data_job_02341
_audit_creation_date              2018-12-19
_audit_creation_method            'Materials Studio'
_symmetry_space_group_name_H-M    'P1'
_symmetry_Int_Tables_number       1
_symmetry_cell_setting            triclinic
loop_
_symmetry_equiv_pos_as_xyz
  x,y,z
_cell_length_a                    23.6567
_cell_length_b                    24.5215
_cell_length_c                    8.7177
_cell_angle_alpha                 90.0000
_cell_angle_beta                  90.0000
_cell_angle_gamma                 90.0000
loop_
_atom_site_label
_atom_site_type_symbol
_atom_site_fract_x
_atom_site_fract_y
_atom_site_fract_z
_atom_site_U_iso_or_equiv
_atom_site_adp_type
_atom_site_occupancy
C1     C     0.87074   0.88147   0.09120   0.00000  Uiso   1.00
C2     C     0.87662   0.84068   0.22226   0.00000  Uiso   1.00
C3     C     0.84896   0.79092   0.23293   0.00000  Uiso   1.00
C4     C     0.86002   0.75948   0.36194   0.00000  Uiso   1.00
C5     C     0.86344   0.69345   0.54813   0.00000  Uiso   1.00
C6     C     0.85236   0.93505   0.16471   0.00000  Uiso   1.00
C7     C     0.80432   0.96462   0.12697   0.00000  Uiso   1.00
C8     C     0.79496   0.01263   0.20753   0.00000  Uiso   1.00
C9     C     0.76074   0.09312   0.30429   0.00000  Uiso   1.00
C10    C     0.93038   0.89108   0.03064   0.00000  Uiso   1.00
C11    C     0.94794   0.88371   0.88015   0.00000  Uiso   1.00
C12    C     0.00426   0.89471   0.84782   0.00000  Uiso   1.00
C13    C     0.09119   0.90694   0.73640   0.00000  Uiso   1.00
C14    C     0.93955   0.91414   0.30134   0.00000  Uiso   1.00
C15    C     0.91399   0.85843   0.33640   0.00000  Uiso   1.00
C16    C     0.92510   0.82705   0.46543   0.00000  Uiso   1.00
C17    C     0.89746   0.77725   0.47629   0.00000  Uiso   1.00
C18    C     0.88974   0.95279   0.27885   0.00000  Uiso   1.00
C19    C     0.88045   0.00076   0.35947   0.00000  Uiso   1.00
C20    C     0.83240   0.03040   0.32188   0.00000  Uiso   1.00
C21    C     0.96776   0.90882   0.14478   0.00000  Uiso   1.00
C22    C     0.02407   0.91984   0.11266   0.00000  Uiso   1.00
C23    C     0.04171   0.91248   0.96217   0.00000  Uiso   1.00
H24    H     0.84164   0.86767   0.00233   0.00000  Uiso   1.00
H25    H     0.82003   0.77720   0.14458   0.00000  Uiso   1.00
H26    H     0.77540   0.95089   0.03863   0.00000  Uiso   1.00
H27    H     0.91900   0.86998   0.79186   0.00000  Uiso   1.00
H28    H     0.81255   0.68474   0.35265   0.00000  Uiso   1.00
H29    H     0.71845   0.05097   0.12921   0.00000  Uiso   1.00
H30    H     0.02126   0.88036   0.60884   0.00000  Uiso   1.00
H31    H     0.96865   0.92795   0.39021   0.00000  Uiso   1.00
H32    H     0.95402   0.84079   0.55374   0.00000  Uiso   1.00
H33    H     0.90938   0.01448   0.44779   0.00000  Uiso   1.00
H34    H     0.05298   0.93357   0.20102   0.00000  Uiso   1.00
H35    H     0.92130   0.73636   0.68475   0.00000  Uiso   1.00
H36    H     0.82720   0.10259   0.46130   0.00000  Uiso   1.00
H37    H     0.13000   0.93198   0.94093   0.00000  Uiso   1.00
O38    O     0.85500   0.65213   0.61930   0.00000  Uiso   1.00
O39    O     0.73154   0.13262   0.32613   0.00000  Uiso   1.00
O40    O     0.12882   0.90878   0.64342   0.00000  Uiso   1.00
N41    N     0.84016   0.70885   0.40835   0.00000  Uiso   1.00
N42    N     0.75218   0.05125   0.19947   0.00000  Uiso   1.00
N43    N     0.03527   0.89175   0.71295   0.00000  Uiso   1.00
N44    N     0.89868   0.73662   0.58705   0.00000  Uiso   1.00
N45    N     0.81069   0.07902   0.37816   0.00000  Uiso   1.00
N46    N     0.09379   0.91953   0.89165   0.00000  Uiso   1.00
C47    C     0.87074   0.38147   0.59120   0.00000  Uiso   1.00
C48    C     0.87662   0.34068   0.72226   0.00000  Uiso   1.00
C49    C     0.84896   0.29092   0.73293   0.00000  Uiso   1.00
C50    C     0.86002   0.25948   0.86194   0.00000  Uiso   1.00
C51    C     0.86344   0.19345   0.04813   0.00000  Uiso   1.00
C52    C     0.85236   0.43505   0.66471   0.00000  Uiso   1.00
C53    C     0.80432   0.46462   0.62697   0.00000  Uiso   1.00
C54    C     0.79496   0.51263   0.70753   0.00000  Uiso   1.00
C55    C     0.76074   0.59312   0.80429   0.00000  Uiso   1.00
C56    C     0.93038   0.39108   0.53064   0.00000  Uiso   1.00
C57    C     0.94794   0.38371   0.38015   0.00000  Uiso   1.00
C58    C     0.00426   0.39471   0.34782   0.00000  Uiso   1.00
C59    C     0.09119   0.40694   0.23640   0.00000  Uiso   1.00
C60    C     0.93955   0.41414   0.80134   0.00000  Uiso   1.00
C61    C     0.91399   0.35843   0.83640   0.00000  Uiso   1.00
C62    C     0.92510   0.32705   0.96543   0.00000  Uiso   1.00
C63    C     0.89746   0.27725   0.97629   0.00000  Uiso   1.00
C64    C     0.88974   0.45279   0.77885   0.00000  Uiso   1.00
C65    C     0.88045   0.50076   0.85947   0.00000  Uiso   1.00
C66    C     0.83240   0.53040   0.82188   0.00000  Uiso   1.00
C67    C     0.96776   0.40882   0.64478   0.00000  Uiso   1.00
C68    C     0.02407   0.41984   0.61266   0.00000  Uiso   1.00
C69    C     0.04171   0.41248   0.46217   0.00000  Uiso   1.00
H70    H     0.84164   0.36767   0.50233   0.00000  Uiso   1.00
H71    H     0.82003   0.27720   0.64458   0.00000  Uiso   1.00
H72    H     0.77540   0.45089   0.53863   0.00000  Uiso   1.00
H73    H     0.91900   0.36998   0.29186   0.00000  Uiso   1.00
H74    H     0.81255   0.18474   0.85265   0.00000  Uiso   1.00
H75    H     0.71845   0.55097   0.62921   0.00000  Uiso   1.00
H76    H     0.02126   0.38036   0.10884   0.00000  Uiso   1.00
H77    H     0.96865   0.42795   0.89021   0.00000  Uiso   1.00
H78    H     0.95402   0.34079   0.05374   0.00000  Uiso   1.00
H79    H     0.90938   0.51448   0.94779   0.00000  Uiso   1.00
H80    H     0.05298   0.43357   0.70102   0.00000  Uiso   1.00
H81    H     0.92130   0.23636   0.18475   0.00000  Uiso   1.00
H82    H     0.82720   0.60259   0.96130   0.00000  Uiso   1.00
H83    H     0.13000   0.43198   0.44093   0.00000  Uiso   1.00
O84    O     0.85500   0.15213   0.11930   0.00000  Uiso   1.00
O85    O     0.73154   0.63262   0.82613   0.00000  Uiso   1.00
O86    O     0.12882   0.40878   0.14342   0.00000  Uiso   1.00
N87    N     0.84016   0.20885   0.90835   0.00000  Uiso   1.00
N88    N     0.75218   0.55125   0.69947   0.00000  Uiso   1.00
N89    N     0.03527   0.39175   0.21295   0.00000  Uiso   1.00
N90    N     0.89868   0.23662   0.08705   0.00000  Uiso   1.00
N91    N     0.81069   0.57902   0.87816   0.00000  Uiso   1.00
N92    N     0.09379   0.41953   0.39165   0.00000  Uiso   1.00
C93    C     0.12926   0.11853   0.09120   0.00000  Uiso   1.00
C94    C     0.12338   0.15932   0.22226   0.00000  Uiso   1.00
C95    C     0.15104   0.20908   0.23293   0.00000  Uiso   1.00
C96    C     0.13998   0.24052   0.36194   0.00000  Uiso   1.00
C97    C     0.13656   0.30655   0.54813   0.00000  Uiso   1.00
C98    C     0.14764   0.06495   0.16471   0.00000  Uiso   1.00
C99    C     0.19568   0.03538   0.12697   0.00000  Uiso   1.00
C100   C     0.20504   0.98737   0.20753   0.00000  Uiso   1.00
C101   C     0.23926   0.90688   0.30429   0.00000  Uiso   1.00
C102   C     0.06962   0.10892   0.03064   0.00000  Uiso   1.00
C103   C     0.05206   0.11629   0.88015   0.00000  Uiso   1.00
C104   C     0.99574   0.10529   0.84782   0.00000  Uiso   1.00
C105   C     0.90881   0.09306   0.73640   0.00000  Uiso   1.00
C106   C     0.06045   0.08586   0.30134   0.00000  Uiso   1.00
C107   C     0.08601   0.14157   0.33640   0.00000  Uiso   1.00
C108   C     0.07490   0.17295   0.46543   0.00000  Uiso   1.00
C109   C     0.10254   0.22275   0.47629   0.00000  Uiso   1.00
C110   C     0.11026   0.04721   0.27885   0.00000  Uiso   1.00
C111   C     0.11955   0.99924   0.35947   0.00000  Uiso   1.00
C112   C     0.16760   0.96960   0.32188   0.00000  Uiso   1.00
C113   C     0.03224   0.09118   0.14478   0.00000  Uiso   1.00
C114   C     0.97593   0.08016   0.11266   0.00000  Uiso   1.00
C115   C     0.95829   0.08752   0.96217   0.00000  Uiso   1.00
H116   H     0.15836   0.13233   0.00233   0.00000  Uiso   1.00
H117   H     0.17997   0.22280   0.14458   0.00000  Uiso   1.00
H118   H     0.22460   0.04911   0.03863   0.00000  Uiso   1.00
H119   H     0.08100   0.13002   0.79186   0.00000  Uiso   1.00
H120   H     0.18745   0.31526   0.35265   0.00000  Uiso   1.00
H121   H     0.28155   0.94903   0.12921   0.00000  Uiso   1.00
H122   H     0.97874   0.11964   0.60884   0.00000  Uiso   1.00
H123   H     0.03135   0.07205   0.39021   0.00000  Uiso   1.00
H124   H     0.04598   0.15921   0.55374   0.00000  Uiso   1.00
H125   H     0.09062   0.98552   0.44779   0.00000  Uiso   1.00
H126   H     0.94702   0.06643   0.20102   0.00000  Uiso   1.00
H127   H     0.07870   0.26364   0.68475   0.00000  Uiso   1.00
H128   H     0.17280   0.89741   0.46130   0.00000  Uiso   1.00
H129   H     0.87000   0.06802   0.94093   0.00000  Uiso   1.00
O130   O     0.14500   0.34787   0.61930   0.00000  Uiso   1.00
O131   O     0.26846   0.86738   0.32613   0.00000  Uiso   1.00
O132   O     0.87118   0.09122   0.64342   0.00000  Uiso   1.00
N133   N     0.15984   0.29115   0.40835   0.00000  Uiso   1.00
N134   N     0.24782   0.94875   0.19947   0.00000  Uiso   1.00
N135   N     0.96473   0.10825   0.71295   0.00000  Uiso   1.00
N136   N     0.10132   0.26338   0.58705   0.00000  Uiso   1.00
N137   N     0.18931   0.92098   0.37816   0.00000  Uiso   1.00
N138   N     0.90621   0.08047   0.89165   0.00000  Uiso   1.00
C139   C     0.12926   0.61853   0.59120   0.00000  Uiso   1.00
C140   C     0.12338   0.65932   0.72226   0.00000  Uiso   1.00
C141   C     0.15104   0.70908   0.73293   0.00000  Uiso   1.00
C142   C     0.13998   0.74052   0.86194   0.00000  Uiso   1.00
C143   C     0.13656   0.80655   0.04813   0.00000  Uiso   1.00
C144   C     0.14764   0.56495   0.66471   0.00000  Uiso   1.00
C145   C     0.19568   0.53538   0.62697   0.00000  Uiso   1.00
C146   C     0.20504   0.48737   0.70753   0.00000  Uiso   1.00
C147   C     0.23926   0.40688   0.80429   0.00000  Uiso   1.00
C148   C     0.06962   0.60892   0.53064   0.00000  Uiso   1.00
C149   C     0.05206   0.61629   0.38015   0.00000  Uiso   1.00
C150   C     0.99574   0.60529   0.34782   0.00000  Uiso   1.00
C151   C     0.90881   0.59306   0.23640   0.00000  Uiso   1.00
C152   C     0.06045   0.58586   0.80134   0.00000  Uiso   1.00
C153   C     0.08601   0.64157   0.83640   0.00000  Uiso   1.00
C154   C     0.07490   0.67295   0.96543   0.00000  Uiso   1.00
C155   C     0.10254   0.72275   0.97629   0.00000  Uiso   1.00
C156   C     0.11026   0.54721   0.77885   0.00000  Uiso   1.00
C157   C     0.11955   0.49924   0.85947   0.00000  Uiso   1.00
C158   C     0.16760   0.46960   0.82188   0.00000  Uiso   1.00
C159   C     0.03224   0.59118   0.64478   0.00000  Uiso   1.00
C160   C     0.97593   0.58016   0.61266   0.00000  Uiso   1.00
C161   C     0.95829   0.58752   0.46217   0.00000  Uiso   1.00
H162   H     0.15836   0.63233   0.50233   0.00000  Uiso   1.00
H163   H     0.17997   0.72280   0.64458   0.00000  Uiso   1.00
H164   H     0.22460   0.54911   0.53863   0.00000  Uiso   1.00
H165   H     0.08100   0.63002   0.29186   0.00000  Uiso   1.00
H166   H     0.18745   0.81526   0.85265   0.00000  Uiso   1.00
H167   H     0.28155   0.44903   0.62921   0.00000  Uiso   1.00
H168   H     0.97874   0.61964   0.10884   0.00000  Uiso   1.00
H169   H     0.03135   0.57205   0.89021   0.00000  Uiso   1.00
H170   H     0.04598   0.65921   0.05374   0.00000  Uiso   1.00
H171   H     0.09062   0.48552   0.94779   0.00000  Uiso   1.00
H172   H     0.94702   0.56643   0.70102   0.00000  Uiso   1.00
H173   H     0.07870   0.76364   0.18475   0.00000  Uiso   1.00
H174   H     0.17280   0.39741   0.96130   0.00000  Uiso   1.00
H175   H     0.87000   0.56802   0.44093   0.00000  Uiso   1.00
O176   O     0.14500   0.84787   0.11930   0.00000  Uiso   1.00
O177   O     0.26846   0.36738   0.82613   0.00000  Uiso   1.00
O178   O     0.87118   0.59122   0.14342   0.00000  Uiso   1.00
N179   N     0.15984   0.79115   0.90835   0.00000  Uiso   1.00
N180   N     0.24782   0.44875   0.69947   0.00000  Uiso   1.00
N181   N     0.96473   0.60825   0.21295   0.00000  Uiso   1.00
N182   N     0.10132   0.76338   0.08705   0.00000  Uiso   1.00
N183   N     0.18931   0.42098   0.87816   0.00000  Uiso   1.00
N184   N     0.90621   0.58047   0.39165   0.00000  Uiso   1.00
C185   C     0.37074   0.61853   0.09120   0.00000  Uiso   1.00
C186   C     0.37662   0.65932   0.22226   0.00000  Uiso   1.00
C187   C     0.34896   0.70908   0.23293   0.00000  Uiso   1.00
C188   C     0.36002   0.74052   0.36194   0.00000  Uiso   1.00
C189   C     0.36344   0.80655   0.54813   0.00000  Uiso   1.00
C190   C     0.35236   0.56495   0.16471   0.00000  Uiso   1.00
C191   C     0.30432   0.53538   0.12697   0.00000  Uiso   1.00
C192   C     0.29496   0.48737   0.20753   0.00000  Uiso   1.00
C193   C     0.26074   0.40688   0.30429   0.00000  Uiso   1.00
C194   C     0.43038   0.60892   0.03064   0.00000  Uiso   1.00
C195   C     0.44794   0.61629   0.88015   0.00000  Uiso   1.00
C196   C     0.50426   0.60529   0.84782   0.00000  Uiso   1.00
C197   C     0.59119   0.59306   0.73640   0.00000  Uiso   1.00
C198   C     0.43955   0.58586   0.30134   0.00000  Uiso   1.00
C199   C     0.41399   0.64157   0.33640   0.00000  Uiso   1.00
C200   C     0.42510   0.67295   0.46543   0.00000  Uiso   1.00
C201   C     0.39746   0.72275   0.47629   0.00000  Uiso   1.00
C202   C     0.38974   0.54721   0.27885   0.00000  Uiso   1.00
C203   C     0.38045   0.49924   0.35947   0.00000  Uiso   1.00
C204   C     0.33240   0.46960   0.32188   0.00000  Uiso   1.00
C205   C     0.46776   0.59118   0.14478   0.00000  Uiso   1.00
C206   C     0.52407   0.58016   0.11266   0.00000  Uiso   1.00
C207   C     0.54171   0.58752   0.96217   0.00000  Uiso   1.00
H208   H     0.34164   0.63233   0.00233   0.00000  Uiso   1.00
H209   H     0.32003   0.72280   0.14458   0.00000  Uiso   1.00
H210   H     0.27540   0.54911   0.03863   0.00000  Uiso   1.00
H211   H     0.41900   0.63002   0.79186   0.00000  Uiso   1.00
H212   H     0.31255   0.81526   0.35265   0.00000  Uiso   1.00
H213   H     0.21845   0.44903   0.12921   0.00000  Uiso   1.00
H214   H     0.52126   0.61964   0.60884   0.00000  Uiso   1.00
H215   H     0.46865   0.57205   0.39021   0.00000  Uiso   1.00
H216   H     0.45402   0.65921   0.55374   0.00000  Uiso   1.00
H217   H     0.40938   0.48552   0.44779   0.00000  Uiso   1.00
H218   H     0.55298   0.56643   0.20102   0.00000  Uiso   1.00
H219   H     0.42130   0.76364   0.68475   0.00000  Uiso   1.00
H220   H     0.32720   0.39741   0.46130   0.00000  Uiso   1.00
H221   H     0.63000   0.56802   0.94093   0.00000  Uiso   1.00
O222   O     0.35500   0.84787   0.61930   0.00000  Uiso   1.00
O223   O     0.23154   0.36738   0.32613   0.00000  Uiso   1.00
O224   O     0.62882   0.59122   0.64342   0.00000  Uiso   1.00
N225   N     0.34016   0.79115   0.40835   0.00000  Uiso   1.00
N226   N     0.25218   0.44875   0.19947   0.00000  Uiso   1.00
N227   N     0.53527   0.60825   0.71295   0.00000  Uiso   1.00
N228   N     0.39868   0.76338   0.58705   0.00000  Uiso   1.00
N229   N     0.31069   0.42098   0.37816   0.00000  Uiso   1.00
N230   N     0.59379   0.58047   0.89165   0.00000  Uiso   1.00
C231   C     0.37074   0.11853   0.59120   0.00000  Uiso   1.00
C232   C     0.37662   0.15932   0.72226   0.00000  Uiso   1.00
C233   C     0.34896   0.20908   0.73293   0.00000  Uiso   1.00
C234   C     0.36002   0.24052   0.86194   0.00000  Uiso   1.00
C235   C     0.36344   0.30655   0.04813   0.00000  Uiso   1.00
C236   C     0.35236   0.06495   0.66471   0.00000  Uiso   1.00
C237   C     0.30432   0.03538   0.62697   0.00000  Uiso   1.00
C238   C     0.29496   0.98737   0.70753   0.00000  Uiso   1.00
C239   C     0.26074   0.90688   0.80429   0.00000  Uiso   1.00
C240   C     0.43038   0.10892   0.53064   0.00000  Uiso   1.00
C241   C     0.44794   0.11629   0.38015   0.00000  Uiso   1.00
C242   C     0.50426   0.10529   0.34782   0.00000  Uiso   1.00
C243   C     0.59119   0.09306   0.23640   0.00000  Uiso   1.00
C244   C     0.43955   0.08586   0.80134   0.00000  Uiso   1.00
C245   C     0.41399   0.14157   0.83640   0.00000  Uiso   1.00
C246   C     0.42510   0.17295   0.96543   0.00000  Uiso   1.00
C247   C     0.39746   0.22275   0.97629   0.00000  Uiso   1.00
C248   C     0.38974   0.04721   0.77885   0.00000  Uiso   1.00
C249   C     0.38045   0.99924   0.85947   0.00000  Uiso   1.00
C250   C     0.33240   0.96960   0.82188   0.00000  Uiso   1.00
C251   C     0.46776   0.09118   0.64478   0.00000  Uiso   1.00
C252   C     0.52407   0.08016   0.61266   0.00000  Uiso   1.00
C253   C     0.54171   0.08752   0.46217   0.00000  Uiso   1.00
H254   H     0.34164   0.13233   0.50233   0.00000  Uiso   1.00
H255   H     0.32003   0.22280   0.64458   0.00000  Uiso   1.00
H256   H     0.27540   0.04911   0.53863   0.00000  Uiso   1.00
H257   H     0.41900   0.13002   0.29186   0.00000  Uiso   1.00
H258   H     0.31255   0.31526   0.85265   0.00000  Uiso   1.00
H259   H     0.21845   0.94903   0.62921   0.00000  Uiso   1.00
H260   H     0.52126   0.11964   0.10884   0.00000  Uiso   1.00
H261   H     0.46865   0.07205   0.89021   0.00000  Uiso   1.00
H262   H     0.45402   0.15921   0.05374   0.00000  Uiso   1.00
H263   H     0.40938   0.98552   0.94779   0.00000  Uiso   1.00
H264   H     0.55298   0.06643   0.70102   0.00000  Uiso   1.00
H265   H     0.42130   0.26364   0.18475   0.00000  Uiso   1.00
H266   H     0.32720   0.89741   0.96130   0.00000  Uiso   1.00
H267   H     0.63000   0.06802   0.44093   0.00000  Uiso   1.00
O268   O     0.35500   0.34787   0.11930   0.00000  Uiso   1.00
O269   O     0.23154   0.86738   0.82613   0.00000  Uiso   1.00
O270   O     0.62882   0.09122   0.14342   0.00000  Uiso   1.00
N271   N     0.34016   0.29115   0.90835   0.00000  Uiso   1.00
N272   N     0.25218   0.94875   0.69947   0.00000  Uiso   1.00
N273   N     0.53527   0.10825   0.21295   0.00000  Uiso   1.00
N274   N     0.39868   0.26338   0.08705   0.00000  Uiso   1.00
N275   N     0.31069   0.92098   0.87816   0.00000  Uiso   1.00
N276   N     0.59379   0.08047   0.39165   0.00000  Uiso   1.00
C277   C     0.62926   0.38147   0.09120   0.00000  Uiso   1.00
C278   C     0.62338   0.34068   0.22226   0.00000  Uiso   1.00
C279   C     0.65104   0.29092   0.23293   0.00000  Uiso   1.00
C280   C     0.63998   0.25948   0.36194   0.00000  Uiso   1.00
C281   C     0.63656   0.19345   0.54813   0.00000  Uiso   1.00
C282   C     0.64764   0.43505   0.16471   0.00000  Uiso   1.00
C283   C     0.69568   0.46462   0.12697   0.00000  Uiso   1.00
C284   C     0.70504   0.51263   0.20753   0.00000  Uiso   1.00
C285   C     0.73926   0.59312   0.30429   0.00000  Uiso   1.00
C286   C     0.56962   0.39108   0.03064   0.00000  Uiso   1.00
C287   C     0.55206   0.38371   0.88015   0.00000  Uiso   1.00
C288   C     0.49574   0.39471   0.84782   0.00000  Uiso   1.00
C289   C     0.40881   0.40694   0.73640   0.00000  Uiso   1.00
C290   C     0.56045   0.41414   0.30134   0.00000  Uiso   1.00
C291   C     0.58601   0.35843   0.33640   0.00000  Uiso   1.00
C292   C     0.57490   0.32705   0.46543   0.00000  Uiso   1.00
C293   C     0.60254   0.27725   0.47629   0.00000  Uiso   1.00
C294   C     0.61026   0.45279   0.27885   0.00000  Uiso   1.00
C295   C     0.61955   0.50076   0.35947   0.00000  Uiso   1.00
C296   C     0.66760   0.53040   0.32188   0.00000  Uiso   1.00
C297   C     0.53224   0.40882   0.14478   0.00000  Uiso   1.00
C298   C     0.47593   0.41984   0.11266   0.00000  Uiso   1.00
C299   C     0.45829   0.41248   0.96217   0.00000  Uiso   1.00
H300   H     0.65836   0.36767   0.00233   0.00000  Uiso   1.00
H301   H     0.67997   0.27720   0.14458   0.00000  Uiso   1.00
H302   H     0.72460   0.45089   0.03863   0.00000  Uiso   1.00
H303   H     0.58100   0.36998   0.79186   0.00000  Uiso   1.00
H304   H     0.68745   0.18474   0.35265   0.00000  Uiso   1.00
H305   H     0.78155   0.55097   0.12921   0.00000  Uiso   1.00
H306   H     0.47874   0.38036   0.60884   0.00000  Uiso   1.00
H307   H     0.53135   0.42795   0.39021   0.00000  Uiso   1.00
H308   H     0.54598   0.34079   0.55374   0.00000  Uiso   1.00
H309   H     0.59062   0.51448   0.44779   0.00000  Uiso   1.00
H310   H     0.44702   0.43357   0.20102   0.00000  Uiso   1.00
H311   H     0.57870   0.23636   0.68475   0.00000  Uiso   1.00
H312   H     0.67280   0.60259   0.46130   0.00000  Uiso   1.00
H313   H     0.37000   0.43198   0.94093   0.00000  Uiso   1.00
O314   O     0.64500   0.15213   0.61930   0.00000  Uiso   1.00
O315   O     0.76846   0.63262   0.32613   0.00000  Uiso   1.00
O316   O     0.37118   0.40878   0.64342   0.00000  Uiso   1.00
N317   N     0.65984   0.20885   0.40835   0.00000  Uiso   1.00
N318   N     0.74782   0.55125   0.19947   0.00000  Uiso   1.00
N319   N     0.46473   0.39175   0.71295   0.00000  Uiso   1.00
N320   N     0.60132   0.23662   0.58705   0.00000  Uiso   1.00
N321   N     0.68931   0.57902   0.37816   0.00000  Uiso   1.00
N322   N     0.40621   0.41953   0.89165   0.00000  Uiso   1.00
C323   C     0.62926   0.88147   0.59120   0.00000  Uiso   1.00
C324   C     0.62338   0.84068   0.72226   0.00000  Uiso   1.00
C325   C     0.65104   0.79092   0.73293   0.00000  Uiso   1.00
C326   C     0.63998   0.75948   0.86194   0.00000  Uiso   1.00
C327   C     0.63656   0.69345   0.04813   0.00000  Uiso   1.00
C328   C     0.64764   0.93505   0.66471   0.00000  Uiso   1.00
C329   C     0.69568   0.96462   0.62697   0.00000  Uiso   1.00
C330   C     0.70504   0.01263   0.70753   0.00000  Uiso   1.00
C331   C     0.73926   0.09312   0.80429   0.00000  Uiso   1.00
C332   C     0.56962   0.89108   0.53064   0.00000  Uiso   1.00
C333   C     0.55206   0.88371   0.38015   0.00000  Uiso   1.00
C334   C     0.49574   0.89471   0.34782   0.00000  Uiso   1.00
C335   C     0.40881   0.90694   0.23640   0.00000  Uiso   1.00
C336   C     0.56045   0.91414   0.80134   0.00000  Uiso   1.00
C337   C     0.58601   0.85843   0.83640   0.00000  Uiso   1.00
C338   C     0.57490   0.82705   0.96543   0.00000  Uiso   1.00
C339   C     0.60254   0.77725   0.97629   0.00000  Uiso   1.00
C340   C     0.61026   0.95279   0.77885   0.00000  Uiso   1.00
C341   C     0.61955   0.00076   0.85947   0.00000  Uiso   1.00
C342   C     0.66760   0.03040   0.82188   0.00000  Uiso   1.00
C343   C     0.53224   0.90882   0.64478   0.00000  Uiso   1.00
C344   C     0.47593   0.91984   0.61266   0.00000  Uiso   1.00
C345   C     0.45829   0.91248   0.46217   0.00000  Uiso   1.00
H346   H     0.65836   0.86767   0.50233   0.00000  Uiso   1.00
H347   H     0.67997   0.77720   0.64458   0.00000  Uiso   1.00
H348   H     0.72460   0.95089   0.53863   0.00000  Uiso   1.00
H349   H     0.58100   0.86998   0.29186   0.00000  Uiso   1.00
H350   H     0.68745   0.68474   0.85265   0.00000  Uiso   1.00
H351   H     0.78155   0.05097   0.62921   0.00000  Uiso   1.00
H352   H     0.47874   0.88036   0.10884   0.00000  Uiso   1.00
H353   H     0.53135   0.92795   0.89021   0.00000  Uiso   1.00
H354   H     0.54598   0.84079   0.05374   0.00000  Uiso   1.00
H355   H     0.59062   0.01448   0.94779   0.00000  Uiso   1.00
H356   H     0.44702   0.93357   0.70102   0.00000  Uiso   1.00
H357   H     0.57870   0.73636   0.18475   0.00000  Uiso   1.00
H358   H     0.67280   0.10259   0.96130   0.00000  Uiso   1.00
H359   H     0.37000   0.93198   0.44093   0.00000  Uiso   1.00
O360   O     0.64500   0.65213   0.11930   0.00000  Uiso   1.00
O361   O     0.76846   0.13262   0.82613   0.00000  Uiso   1.00
O362   O     0.37118   0.90878   0.14342   0.00000  Uiso   1.00
N363   N     0.65984   0.70885   0.90835   0.00000  Uiso   1.00
N364   N     0.74782   0.05125   0.69947   0.00000  Uiso   1.00
N365   N     0.46473   0.89175   0.21295   0.00000  Uiso   1.00
N366   N     0.60132   0.73662   0.08705   0.00000  Uiso   1.00
N367   N     0.68931   0.07902   0.87816   0.00000  Uiso   1.00
N368   N     0.40621   0.91953   0.39165   0.00000  Uiso   1.00
