data_job_03656
_audit_creation_date              2018-12-19
_audit_creation_method            'Materials Studio'
_symmetry_space_group_name_H-M    'P1'
_symmetry_Int_Tables_number       1
_symmetry_cell_setting            triclinic
loop_
_symmetry_equiv_pos_as_xyz
  x,y,z
_cell_length_a                    23.5656
_cell_length_b                    23.3785
_cell_length_c                    17.1568
_cell_angle_alpha                 90.0000
_cell_angle_beta                  86.3140
_cell_angle_gamma                 90.0000
loop_
_atom_site_label
_atom_site_type_symbol
_atom_site_fract_x
_atom_site_fract_y
_atom_site_fract_z
_atom_site_U_iso_or_equiv
_atom_site_adp_type
_atom_site_occupancy
C1     C     0.06262   0.14820   0.82310   0.00000  Uiso   1.00
C2     C     0.09919   0.20154   0.80958   0.00000  Uiso   1.00
C3     C     0.08768   0.24673   0.76057   0.00000  Uiso   1.00
C4     C     0.12639   0.29156   0.75624   0.00000  Uiso   1.00
C5     C     0.17581   0.37442   0.72865   0.00000  Uiso   1.00
C6     C     0.10155   0.09745   0.80321   0.00000  Uiso   1.00
C7     C     0.09202   0.05512   0.74887   0.00000  Uiso   1.00
C8     C     0.13272   0.01233   0.73918   0.00000  Uiso   1.00
C9     C     0.18579   0.93358   0.70176   0.00000  Uiso   1.00
C10    C     0.04827   0.14511   0.91093   0.00000  Uiso   1.00
C11    C     0.99394   0.14284   0.94716   0.00000  Uiso   1.00
C12    C     0.98978   0.14016   0.02817   0.00000  Uiso   1.00
C13    C     0.96012   0.13540   0.15800   0.00000  Uiso   1.00
C14    C     0.15184   0.14747   0.90255   0.00000  Uiso   1.00
C15    C     0.14765   0.20114   0.85273   0.00000  Uiso   1.00
C16    C     0.18639   0.24591   0.84847   0.00000  Uiso   1.00
C17    C     0.17494   0.29116   0.79947   0.00000  Uiso   1.00
C18    C     0.15001   0.09705   0.84637   0.00000  Uiso   1.00
C19    C     0.19073   0.05431   0.83677   0.00000  Uiso   1.00
C20    C     0.18127   0.01193   0.78241   0.00000  Uiso   1.00
C21    C     0.09673   0.14471   0.95409   0.00000  Uiso   1.00
C22    C     0.09265   0.14203   0.03506   0.00000  Uiso   1.00
C23    C     0.03833   0.13975   0.07140   0.00000  Uiso   1.00
H24    H     0.02489   0.14851   0.78950   0.00000  Uiso   1.00
H25    H     0.05017   0.24702   0.72718   0.00000  Uiso   1.00
H26    H     0.05451   0.05544   0.71548   0.00000  Uiso   1.00
H27    H     0.95645   0.14315   0.91375   0.00000  Uiso   1.00
H28    H     0.09958   0.35604   0.67710   0.00000  Uiso   1.00
H29    H     0.10872   0.95209   0.65245   0.00000  Uiso   1.00
H30    H     0.90193   0.13702   0.07053   0.00000  Uiso   1.00
H31    H     0.18957   0.14716   0.93615   0.00000  Uiso   1.00
H32    H     0.22389   0.24559   0.88188   0.00000  Uiso   1.00
H33    H     0.22823   0.05402   0.87018   0.00000  Uiso   1.00
H34    H     0.13016   0.14172   0.06844   0.00000  Uiso   1.00
H35    H     0.24057   0.35489   0.80265   0.00000  Uiso   1.00
H36    H     0.24971   0.95093   0.77801   0.00000  Uiso   1.00
H37    H     0.04293   0.13587   0.19609   0.00000  Uiso   1.00
O38    O     0.18969   0.42023   0.70151   0.00000  Uiso   1.00
O39    O     0.20167   0.89026   0.66919   0.00000  Uiso   1.00
O40    O     0.93037   0.13289   0.21769   0.00000  Uiso   1.00
N41    N     0.12805   0.34227   0.71411   0.00000  Uiso   1.00
N42    N     0.13660   0.96460   0.69106   0.00000  Uiso   1.00
N43    N     0.94327   0.13748   0.08192   0.00000  Uiso   1.00
N44    N     0.20391   0.34164   0.78167   0.00000  Uiso   1.00
N45    N     0.21246   0.96398   0.75862   0.00000  Uiso   1.00
N46    N     0.01914   0.13686   0.14948   0.00000  Uiso   1.00
C47    C     0.56262   0.64820   0.82310   0.00000  Uiso   1.00
C48    C     0.59919   0.70154   0.80958   0.00000  Uiso   1.00
C49    C     0.58768   0.74673   0.76057   0.00000  Uiso   1.00
C50    C     0.62639   0.79156   0.75624   0.00000  Uiso   1.00
C51    C     0.67581   0.87442   0.72865   0.00000  Uiso   1.00
C52    C     0.60155   0.59745   0.80321   0.00000  Uiso   1.00
C53    C     0.59202   0.55512   0.74887   0.00000  Uiso   1.00
C54    C     0.63272   0.51233   0.73918   0.00000  Uiso   1.00
C55    C     0.68579   0.43358   0.70176   0.00000  Uiso   1.00
C56    C     0.54827   0.64511   0.91093   0.00000  Uiso   1.00
C57    C     0.49394   0.64284   0.94716   0.00000  Uiso   1.00
C58    C     0.48978   0.64016   0.02817   0.00000  Uiso   1.00
C59    C     0.46012   0.63540   0.15800   0.00000  Uiso   1.00
C60    C     0.65184   0.64747   0.90255   0.00000  Uiso   1.00
C61    C     0.64765   0.70114   0.85273   0.00000  Uiso   1.00
C62    C     0.68639   0.74591   0.84847   0.00000  Uiso   1.00
C63    C     0.67494   0.79116   0.79947   0.00000  Uiso   1.00
C64    C     0.65001   0.59705   0.84637   0.00000  Uiso   1.00
C65    C     0.69073   0.55431   0.83677   0.00000  Uiso   1.00
C66    C     0.68127   0.51193   0.78241   0.00000  Uiso   1.00
C67    C     0.59673   0.64471   0.95409   0.00000  Uiso   1.00
C68    C     0.59265   0.64203   0.03506   0.00000  Uiso   1.00
C69    C     0.53833   0.63975   0.07140   0.00000  Uiso   1.00
H70    H     0.52489   0.64851   0.78950   0.00000  Uiso   1.00
H71    H     0.55017   0.74702   0.72718   0.00000  Uiso   1.00
H72    H     0.55451   0.55544   0.71548   0.00000  Uiso   1.00
H73    H     0.45645   0.64315   0.91375   0.00000  Uiso   1.00
H74    H     0.59958   0.85604   0.67710   0.00000  Uiso   1.00
H75    H     0.60872   0.45209   0.65245   0.00000  Uiso   1.00
H76    H     0.40193   0.63702   0.07053   0.00000  Uiso   1.00
H77    H     0.68957   0.64716   0.93615   0.00000  Uiso   1.00
H78    H     0.72389   0.74559   0.88188   0.00000  Uiso   1.00
H79    H     0.72823   0.55402   0.87018   0.00000  Uiso   1.00
H80    H     0.63016   0.64172   0.06844   0.00000  Uiso   1.00
H81    H     0.74057   0.85489   0.80265   0.00000  Uiso   1.00
H82    H     0.74971   0.45093   0.77801   0.00000  Uiso   1.00
H83    H     0.54293   0.63587   0.19609   0.00000  Uiso   1.00
O84    O     0.68969   0.92023   0.70151   0.00000  Uiso   1.00
O85    O     0.70167   0.39026   0.66919   0.00000  Uiso   1.00
O86    O     0.43037   0.63289   0.21769   0.00000  Uiso   1.00
N87    N     0.62805   0.84227   0.71411   0.00000  Uiso   1.00
N88    N     0.63660   0.46460   0.69106   0.00000  Uiso   1.00
N89    N     0.44327   0.63748   0.08192   0.00000  Uiso   1.00
N90    N     0.70391   0.84164   0.78167   0.00000  Uiso   1.00
N91    N     0.71246   0.46398   0.75862   0.00000  Uiso   1.00
N92    N     0.51914   0.63686   0.14948   0.00000  Uiso   1.00
C93    C     0.93738   0.14820   0.67690   0.00000  Uiso   1.00
C94    C     0.90081   0.20154   0.69042   0.00000  Uiso   1.00
C95    C     0.91232   0.24673   0.73943   0.00000  Uiso   1.00
C96    C     0.87361   0.29156   0.74376   0.00000  Uiso   1.00
C97    C     0.82419   0.37442   0.77135   0.00000  Uiso   1.00
C98    C     0.89845   0.09745   0.69679   0.00000  Uiso   1.00
C99    C     0.90798   0.05512   0.75113   0.00000  Uiso   1.00
C100   C     0.86728   0.01233   0.76082   0.00000  Uiso   1.00
C101   C     0.81421   0.93358   0.79824   0.00000  Uiso   1.00
C102   C     0.95173   0.14511   0.58907   0.00000  Uiso   1.00
C103   C     0.00606   0.14284   0.55284   0.00000  Uiso   1.00
C104   C     0.01022   0.14016   0.47183   0.00000  Uiso   1.00
C105   C     0.03988   0.13540   0.34200   0.00000  Uiso   1.00
C106   C     0.84816   0.14747   0.59745   0.00000  Uiso   1.00
C107   C     0.85235   0.20114   0.64727   0.00000  Uiso   1.00
C108   C     0.81361   0.24591   0.65153   0.00000  Uiso   1.00
C109   C     0.82506   0.29116   0.70053   0.00000  Uiso   1.00
C110   C     0.84999   0.09705   0.65363   0.00000  Uiso   1.00
C111   C     0.80927   0.05431   0.66323   0.00000  Uiso   1.00
C112   C     0.81873   0.01193   0.71759   0.00000  Uiso   1.00
C113   C     0.90327   0.14471   0.54591   0.00000  Uiso   1.00
C114   C     0.90735   0.14203   0.46494   0.00000  Uiso   1.00
C115   C     0.96167   0.13975   0.42860   0.00000  Uiso   1.00
H116   H     0.97511   0.14851   0.71050   0.00000  Uiso   1.00
H117   H     0.94983   0.24702   0.77282   0.00000  Uiso   1.00
H118   H     0.94549   0.05544   0.78452   0.00000  Uiso   1.00
H119   H     0.04355   0.14315   0.58625   0.00000  Uiso   1.00
H120   H     0.90042   0.35604   0.82290   0.00000  Uiso   1.00
H121   H     0.89128   0.95209   0.84755   0.00000  Uiso   1.00
H122   H     0.09807   0.13702   0.42947   0.00000  Uiso   1.00
H123   H     0.81043   0.14716   0.56385   0.00000  Uiso   1.00
H124   H     0.77611   0.24559   0.61812   0.00000  Uiso   1.00
H125   H     0.77177   0.05402   0.62982   0.00000  Uiso   1.00
H126   H     0.86984   0.14172   0.43156   0.00000  Uiso   1.00
H127   H     0.75943   0.35489   0.69735   0.00000  Uiso   1.00
H128   H     0.75029   0.95093   0.72199   0.00000  Uiso   1.00
H129   H     0.95707   0.13587   0.30391   0.00000  Uiso   1.00
O130   O     0.81031   0.42023   0.79849   0.00000  Uiso   1.00
O131   O     0.79833   0.89026   0.83081   0.00000  Uiso   1.00
O132   O     0.06963   0.13289   0.28231   0.00000  Uiso   1.00
N133   N     0.87195   0.34227   0.78589   0.00000  Uiso   1.00
N134   N     0.86340   0.96460   0.80894   0.00000  Uiso   1.00
N135   N     0.05673   0.13748   0.41808   0.00000  Uiso   1.00
N136   N     0.79609   0.34164   0.71833   0.00000  Uiso   1.00
N137   N     0.78754   0.96398   0.74138   0.00000  Uiso   1.00
N138   N     0.98086   0.13686   0.35052   0.00000  Uiso   1.00
C139   C     0.43738   0.64820   0.67690   0.00000  Uiso   1.00
C140   C     0.40081   0.70154   0.69042   0.00000  Uiso   1.00
C141   C     0.41232   0.74673   0.73943   0.00000  Uiso   1.00
C142   C     0.37361   0.79156   0.74376   0.00000  Uiso   1.00
C143   C     0.32419   0.87442   0.77135   0.00000  Uiso   1.00
C144   C     0.39845   0.59745   0.69679   0.00000  Uiso   1.00
C145   C     0.40798   0.55512   0.75113   0.00000  Uiso   1.00
C146   C     0.36728   0.51233   0.76082   0.00000  Uiso   1.00
C147   C     0.31421   0.43358   0.79824   0.00000  Uiso   1.00
C148   C     0.45173   0.64511   0.58907   0.00000  Uiso   1.00
C149   C     0.50606   0.64284   0.55284   0.00000  Uiso   1.00
C150   C     0.51022   0.64016   0.47183   0.00000  Uiso   1.00
C151   C     0.53988   0.63540   0.34200   0.00000  Uiso   1.00
C152   C     0.34816   0.64747   0.59745   0.00000  Uiso   1.00
C153   C     0.35235   0.70114   0.64727   0.00000  Uiso   1.00
C154   C     0.31361   0.74591   0.65153   0.00000  Uiso   1.00
C155   C     0.32506   0.79116   0.70053   0.00000  Uiso   1.00
C156   C     0.34999   0.59705   0.65363   0.00000  Uiso   1.00
C157   C     0.30927   0.55431   0.66323   0.00000  Uiso   1.00
C158   C     0.31873   0.51193   0.71759   0.00000  Uiso   1.00
C159   C     0.40327   0.64471   0.54591   0.00000  Uiso   1.00
C160   C     0.40735   0.64203   0.46494   0.00000  Uiso   1.00
C161   C     0.46167   0.63975   0.42860   0.00000  Uiso   1.00
H162   H     0.47511   0.64851   0.71050   0.00000  Uiso   1.00
H163   H     0.44983   0.74702   0.77282   0.00000  Uiso   1.00
H164   H     0.44549   0.55544   0.78452   0.00000  Uiso   1.00
H165   H     0.54355   0.64315   0.58625   0.00000  Uiso   1.00
H166   H     0.40042   0.85604   0.82290   0.00000  Uiso   1.00
H167   H     0.39128   0.45209   0.84755   0.00000  Uiso   1.00
H168   H     0.59807   0.63702   0.42947   0.00000  Uiso   1.00
H169   H     0.31043   0.64716   0.56385   0.00000  Uiso   1.00
H170   H     0.27611   0.74559   0.61812   0.00000  Uiso   1.00
H171   H     0.27177   0.55402   0.62982   0.00000  Uiso   1.00
H172   H     0.36984   0.64172   0.43156   0.00000  Uiso   1.00
H173   H     0.25943   0.85489   0.69735   0.00000  Uiso   1.00
H174   H     0.25029   0.45093   0.72199   0.00000  Uiso   1.00
H175   H     0.45707   0.63587   0.30391   0.00000  Uiso   1.00
O176   O     0.31031   0.92023   0.79849   0.00000  Uiso   1.00
O177   O     0.29833   0.39026   0.83081   0.00000  Uiso   1.00
O178   O     0.56963   0.63289   0.28231   0.00000  Uiso   1.00
N179   N     0.37195   0.84227   0.78589   0.00000  Uiso   1.00
N180   N     0.36340   0.46460   0.80894   0.00000  Uiso   1.00
N181   N     0.55673   0.63748   0.41808   0.00000  Uiso   1.00
N182   N     0.29609   0.84164   0.71833   0.00000  Uiso   1.00
N183   N     0.28754   0.46398   0.74138   0.00000  Uiso   1.00
N184   N     0.48086   0.63686   0.35052   0.00000  Uiso   1.00
C185   C     0.93738   0.85180   0.17690   0.00000  Uiso   1.00
C186   C     0.90081   0.79846   0.19042   0.00000  Uiso   1.00
C187   C     0.91232   0.75327   0.23943   0.00000  Uiso   1.00
C188   C     0.87361   0.70844   0.24376   0.00000  Uiso   1.00
C189   C     0.82419   0.62558   0.27135   0.00000  Uiso   1.00
C190   C     0.89845   0.90255   0.19679   0.00000  Uiso   1.00
C191   C     0.90798   0.94488   0.25113   0.00000  Uiso   1.00
C192   C     0.86728   0.98767   0.26082   0.00000  Uiso   1.00
C193   C     0.81421   0.06642   0.29824   0.00000  Uiso   1.00
C194   C     0.95173   0.85489   0.08907   0.00000  Uiso   1.00
C195   C     0.00606   0.85716   0.05284   0.00000  Uiso   1.00
C196   C     0.01022   0.85984   0.97183   0.00000  Uiso   1.00
C197   C     0.03988   0.86460   0.84200   0.00000  Uiso   1.00
C198   C     0.84816   0.85253   0.09745   0.00000  Uiso   1.00
C199   C     0.85235   0.79886   0.14727   0.00000  Uiso   1.00
C200   C     0.81361   0.75409   0.15153   0.00000  Uiso   1.00
C201   C     0.82506   0.70884   0.20053   0.00000  Uiso   1.00
C202   C     0.84999   0.90295   0.15363   0.00000  Uiso   1.00
C203   C     0.80927   0.94569   0.16323   0.00000  Uiso   1.00
C204   C     0.81873   0.98807   0.21759   0.00000  Uiso   1.00
C205   C     0.90327   0.85529   0.04591   0.00000  Uiso   1.00
C206   C     0.90735   0.85797   0.96494   0.00000  Uiso   1.00
C207   C     0.96167   0.86025   0.92860   0.00000  Uiso   1.00
H208   H     0.97511   0.85149   0.21050   0.00000  Uiso   1.00
H209   H     0.94983   0.75298   0.27282   0.00000  Uiso   1.00
H210   H     0.94549   0.94456   0.28452   0.00000  Uiso   1.00
H211   H     0.04355   0.85685   0.08625   0.00000  Uiso   1.00
H212   H     0.90042   0.64396   0.32290   0.00000  Uiso   1.00
H213   H     0.89128   0.04791   0.34755   0.00000  Uiso   1.00
H214   H     0.09807   0.86298   0.92947   0.00000  Uiso   1.00
H215   H     0.81043   0.85284   0.06385   0.00000  Uiso   1.00
H216   H     0.77611   0.75441   0.11812   0.00000  Uiso   1.00
H217   H     0.77177   0.94598   0.12982   0.00000  Uiso   1.00
H218   H     0.86984   0.85828   0.93156   0.00000  Uiso   1.00
H219   H     0.75943   0.64511   0.19735   0.00000  Uiso   1.00
H220   H     0.75029   0.04907   0.22199   0.00000  Uiso   1.00
H221   H     0.95707   0.86413   0.80391   0.00000  Uiso   1.00
O222   O     0.81031   0.57977   0.29849   0.00000  Uiso   1.00
O223   O     0.79833   0.10974   0.33081   0.00000  Uiso   1.00
O224   O     0.06963   0.86711   0.78231   0.00000  Uiso   1.00
N225   N     0.87195   0.65773   0.28589   0.00000  Uiso   1.00
N226   N     0.86340   0.03540   0.30894   0.00000  Uiso   1.00
N227   N     0.05673   0.86252   0.91808   0.00000  Uiso   1.00
N228   N     0.79609   0.65836   0.21833   0.00000  Uiso   1.00
N229   N     0.78754   0.03602   0.24138   0.00000  Uiso   1.00
N230   N     0.98086   0.86314   0.85052   0.00000  Uiso   1.00
C231   C     0.43738   0.35180   0.17690   0.00000  Uiso   1.00
C232   C     0.40081   0.29846   0.19042   0.00000  Uiso   1.00
C233   C     0.41232   0.25327   0.23943   0.00000  Uiso   1.00
C234   C     0.37361   0.20844   0.24376   0.00000  Uiso   1.00
C235   C     0.32419   0.12558   0.27135   0.00000  Uiso   1.00
C236   C     0.39845   0.40255   0.19679   0.00000  Uiso   1.00
C237   C     0.40798   0.44488   0.25113   0.00000  Uiso   1.00
C238   C     0.36728   0.48767   0.26082   0.00000  Uiso   1.00
C239   C     0.31421   0.56642   0.29824   0.00000  Uiso   1.00
C240   C     0.45173   0.35489   0.08907   0.00000  Uiso   1.00
C241   C     0.50606   0.35716   0.05284   0.00000  Uiso   1.00
C242   C     0.51022   0.35984   0.97183   0.00000  Uiso   1.00
C243   C     0.53988   0.36460   0.84200   0.00000  Uiso   1.00
C244   C     0.34816   0.35253   0.09745   0.00000  Uiso   1.00
C245   C     0.35235   0.29886   0.14727   0.00000  Uiso   1.00
C246   C     0.31361   0.25409   0.15153   0.00000  Uiso   1.00
C247   C     0.32506   0.20884   0.20053   0.00000  Uiso   1.00
C248   C     0.34999   0.40295   0.15363   0.00000  Uiso   1.00
C249   C     0.30927   0.44569   0.16323   0.00000  Uiso   1.00
C250   C     0.31873   0.48807   0.21759   0.00000  Uiso   1.00
C251   C     0.40327   0.35529   0.04591   0.00000  Uiso   1.00
C252   C     0.40735   0.35797   0.96494   0.00000  Uiso   1.00
C253   C     0.46167   0.36025   0.92860   0.00000  Uiso   1.00
H254   H     0.47511   0.35149   0.21050   0.00000  Uiso   1.00
H255   H     0.44983   0.25298   0.27282   0.00000  Uiso   1.00
H256   H     0.44549   0.44456   0.28452   0.00000  Uiso   1.00
H257   H     0.54355   0.35685   0.08625   0.00000  Uiso   1.00
H258   H     0.40042   0.14396   0.32290   0.00000  Uiso   1.00
H259   H     0.39128   0.54791   0.34755   0.00000  Uiso   1.00
H260   H     0.59807   0.36298   0.92947   0.00000  Uiso   1.00
H261   H     0.31043   0.35284   0.06385   0.00000  Uiso   1.00
H262   H     0.27611   0.25441   0.11812   0.00000  Uiso   1.00
H263   H     0.27177   0.44598   0.12982   0.00000  Uiso   1.00
H264   H     0.36984   0.35828   0.93156   0.00000  Uiso   1.00
H265   H     0.25943   0.14511   0.19735   0.00000  Uiso   1.00
H266   H     0.25029   0.54907   0.22199   0.00000  Uiso   1.00
H267   H     0.45707   0.36413   0.80391   0.00000  Uiso   1.00
O268   O     0.31031   0.07977   0.29849   0.00000  Uiso   1.00
O269   O     0.29833   0.60974   0.33081   0.00000  Uiso   1.00
O270   O     0.56963   0.36711   0.78231   0.00000  Uiso   1.00
N271   N     0.37195   0.15773   0.28589   0.00000  Uiso   1.00
N272   N     0.36340   0.53540   0.30894   0.00000  Uiso   1.00
N273   N     0.55673   0.36252   0.91808   0.00000  Uiso   1.00
N274   N     0.29609   0.15836   0.21833   0.00000  Uiso   1.00
N275   N     0.28754   0.53602   0.24138   0.00000  Uiso   1.00
N276   N     0.48086   0.36314   0.85052   0.00000  Uiso   1.00
C277   C     0.06262   0.85180   0.32310   0.00000  Uiso   1.00
C278   C     0.09919   0.79846   0.30958   0.00000  Uiso   1.00
C279   C     0.08768   0.75327   0.26057   0.00000  Uiso   1.00
C280   C     0.12639   0.70844   0.25624   0.00000  Uiso   1.00
C281   C     0.17581   0.62558   0.22865   0.00000  Uiso   1.00
C282   C     0.10155   0.90255   0.30321   0.00000  Uiso   1.00
C283   C     0.09202   0.94488   0.24887   0.00000  Uiso   1.00
C284   C     0.13272   0.98767   0.23918   0.00000  Uiso   1.00
C285   C     0.18579   0.06642   0.20176   0.00000  Uiso   1.00
C286   C     0.04827   0.85489   0.41093   0.00000  Uiso   1.00
C287   C     0.99394   0.85716   0.44716   0.00000  Uiso   1.00
C288   C     0.98978   0.85984   0.52817   0.00000  Uiso   1.00
C289   C     0.96012   0.86460   0.65800   0.00000  Uiso   1.00
C290   C     0.15184   0.85253   0.40255   0.00000  Uiso   1.00
C291   C     0.14765   0.79886   0.35273   0.00000  Uiso   1.00
C292   C     0.18639   0.75409   0.34847   0.00000  Uiso   1.00
C293   C     0.17494   0.70884   0.29947   0.00000  Uiso   1.00
C294   C     0.15001   0.90295   0.34637   0.00000  Uiso   1.00
C295   C     0.19073   0.94569   0.33677   0.00000  Uiso   1.00
C296   C     0.18127   0.98807   0.28241   0.00000  Uiso   1.00
C297   C     0.09673   0.85529   0.45409   0.00000  Uiso   1.00
C298   C     0.09265   0.85797   0.53506   0.00000  Uiso   1.00
C299   C     0.03833   0.86025   0.57140   0.00000  Uiso   1.00
H300   H     0.02489   0.85149   0.28950   0.00000  Uiso   1.00
H301   H     0.05017   0.75298   0.22718   0.00000  Uiso   1.00
H302   H     0.05451   0.94456   0.21548   0.00000  Uiso   1.00
H303   H     0.95645   0.85685   0.41375   0.00000  Uiso   1.00
H304   H     0.09958   0.64396   0.17710   0.00000  Uiso   1.00
H305   H     0.10872   0.04791   0.15245   0.00000  Uiso   1.00
H306   H     0.90193   0.86298   0.57053   0.00000  Uiso   1.00
H307   H     0.18957   0.85284   0.43615   0.00000  Uiso   1.00
H308   H     0.22389   0.75441   0.38188   0.00000  Uiso   1.00
H309   H     0.22823   0.94598   0.37018   0.00000  Uiso   1.00
H310   H     0.13016   0.85828   0.56844   0.00000  Uiso   1.00
H311   H     0.24057   0.64511   0.30265   0.00000  Uiso   1.00
H312   H     0.24971   0.04907   0.27801   0.00000  Uiso   1.00
H313   H     0.04293   0.86413   0.69609   0.00000  Uiso   1.00
O314   O     0.18969   0.57977   0.20151   0.00000  Uiso   1.00
O315   O     0.20167   0.10974   0.16919   0.00000  Uiso   1.00
O316   O     0.93037   0.86711   0.71769   0.00000  Uiso   1.00
N317   N     0.12805   0.65773   0.21411   0.00000  Uiso   1.00
N318   N     0.13660   0.03540   0.19106   0.00000  Uiso   1.00
N319   N     0.94327   0.86252   0.58192   0.00000  Uiso   1.00
N320   N     0.20391   0.65836   0.28167   0.00000  Uiso   1.00
N321   N     0.21246   0.03602   0.25862   0.00000  Uiso   1.00
N322   N     0.01914   0.86314   0.64948   0.00000  Uiso   1.00
C323   C     0.56262   0.35180   0.32310   0.00000  Uiso   1.00
C324   C     0.59919   0.29846   0.30958   0.00000  Uiso   1.00
C325   C     0.58768   0.25327   0.26057   0.00000  Uiso   1.00
C326   C     0.62639   0.20844   0.25624   0.00000  Uiso   1.00
C327   C     0.67581   0.12558   0.22865   0.00000  Uiso   1.00
C328   C     0.60155   0.40255   0.30321   0.00000  Uiso   1.00
C329   C     0.59202   0.44488   0.24887   0.00000  Uiso   1.00
C330   C     0.63272   0.48767   0.23918   0.00000  Uiso   1.00
C331   C     0.68579   0.56642   0.20176   0.00000  Uiso   1.00
C332   C     0.54827   0.35489   0.41093   0.00000  Uiso   1.00
C333   C     0.49394   0.35716   0.44716   0.00000  Uiso   1.00
C334   C     0.48978   0.35984   0.52817   0.00000  Uiso   1.00
C335   C     0.46012   0.36460   0.65800   0.00000  Uiso   1.00
C336   C     0.65184   0.35253   0.40255   0.00000  Uiso   1.00
C337   C     0.64765   0.29886   0.35273   0.00000  Uiso   1.00
C338   C     0.68639   0.25409   0.34847   0.00000  Uiso   1.00
C339   C     0.67494   0.20884   0.29947   0.00000  Uiso   1.00
C340   C     0.65001   0.40295   0.34637   0.00000  Uiso   1.00
C341   C     0.69073   0.44569   0.33677   0.00000  Uiso   1.00
C342   C     0.68127   0.48807   0.28241   0.00000  Uiso   1.00
C343   C     0.59673   0.35529   0.45409   0.00000  Uiso   1.00
C344   C     0.59265   0.35797   0.53506   0.00000  Uiso   1.00
C345   C     0.53833   0.36025   0.57140   0.00000  Uiso   1.00
H346   H     0.52489   0.35149   0.28950   0.00000  Uiso   1.00
H347   H     0.55017   0.25298   0.22718   0.00000  Uiso   1.00
H348   H     0.55451   0.44456   0.21548   0.00000  Uiso   1.00
H349   H     0.45645   0.35685   0.41375   0.00000  Uiso   1.00
H350   H     0.59958   0.14396   0.17710   0.00000  Uiso   1.00
H351   H     0.60872   0.54791   0.15245   0.00000  Uiso   1.00
H352   H     0.40193   0.36298   0.57053   0.00000  Uiso   1.00
H353   H     0.68957   0.35284   0.43615   0.00000  Uiso   1.00
H354   H     0.72389   0.25441   0.38188   0.00000  Uiso   1.00
H355   H     0.72823   0.44598   0.37018   0.00000  Uiso   1.00
H356   H     0.63016   0.35828   0.56844   0.00000  Uiso   1.00
H357   H     0.74057   0.14511   0.30265   0.00000  Uiso   1.00
H358   H     0.74971   0.54907   0.27801   0.00000  Uiso   1.00
H359   H     0.54293   0.36413   0.69609   0.00000  Uiso   1.00
O360   O     0.68969   0.07977   0.20151   0.00000  Uiso   1.00
O361   O     0.70167   0.60974   0.16919   0.00000  Uiso   1.00
O362   O     0.43037   0.36711   0.71769   0.00000  Uiso   1.00
N363   N     0.62805   0.15773   0.21411   0.00000  Uiso   1.00
N364   N     0.63660   0.53540   0.19106   0.00000  Uiso   1.00
N365   N     0.44327   0.36252   0.58192   0.00000  Uiso   1.00
N366   N     0.70391   0.15836   0.28167   0.00000  Uiso   1.00
N367   N     0.71246   0.53602   0.25862   0.00000  Uiso   1.00
N368   N     0.51914   0.36314   0.64948   0.00000  Uiso   1.00
