data_job_06373
_audit_creation_date              2018-12-19
_audit_creation_method            'Materials Studio'
_symmetry_space_group_name_H-M    'P1'
_symmetry_Int_Tables_number       1
_symmetry_cell_setting            triclinic
loop_
_symmetry_equiv_pos_as_xyz
  x,y,z
_cell_length_a                    16.7297
_cell_length_b                    16.2478
_cell_length_c                    16.0375
_cell_angle_alpha                 99.9148
_cell_angle_beta                  99.7704
_cell_angle_gamma                 100.2710
loop_
_atom_site_label
_atom_site_type_symbol
_atom_site_fract_x
_atom_site_fract_y
_atom_site_fract_z
_atom_site_U_iso_or_equiv
_atom_site_adp_type
_atom_site_occupancy
C1     C     0.46778   0.90894   0.76310   0.00000  Uiso   1.00
C2     C     0.49269   0.87832   0.67780   0.00000  Uiso   1.00
C3     C     0.46123   0.79889   0.62295   0.00000  Uiso   1.00
C4     C     0.49204   0.78317   0.54799   0.00000  Uiso   1.00
C5     C     0.52161   0.72625   0.41851   0.00000  Uiso   1.00
C6     C     0.54789   0.93464   0.83179   0.00000  Uiso   1.00
C7     C     0.56285   0.90257   0.90642   0.00000  Uiso   1.00
C8     C     0.64013   0.93427   0.96109   0.00000  Uiso   1.00
C9     C     0.75539   0.96483   0.07071   0.00000  Uiso   1.00
C10    C     0.43857   0.99152   0.75531   0.00000  Uiso   1.00
C11    C     0.36162   0.00729   0.76565   0.00000  Uiso   1.00
C12    C     0.34686   0.08689   0.75595   0.00000  Uiso   1.00
C13    C     0.29238   0.20576   0.74683   0.00000  Uiso   1.00
C14    C     0.57842   0.02227   0.72750   0.00000  Uiso   1.00
C15    C     0.55279   0.93988   0.65847   0.00000  Uiso   1.00
C16    C     0.58365   0.92427   0.58357   0.00000  Uiso   1.00
C17    C     0.55224   0.84484   0.52862   0.00000  Uiso   1.00
C18    C     0.60799   0.99619   0.81246   0.00000  Uiso   1.00
C19    C     0.68526   0.02795   0.86703   0.00000  Uiso   1.00
C20    C     0.70033   0.99594   0.94172   0.00000  Uiso   1.00
C21    C     0.49867   0.05307   0.73597   0.00000  Uiso   1.00
C22    C     0.48403   0.13267   0.72626   0.00000  Uiso   1.00
C23    C     0.40707   0.14855   0.73659   0.00000  Uiso   1.00
H24    H     0.42099   0.86102   0.77815   0.00000  Uiso   1.00
H25    H     0.41473   0.75127   0.63794   0.00000  Uiso   1.00
H26    H     0.51633   0.85494   0.92137   0.00000  Uiso   1.00
H27    H     0.31513   0.95964   0.78061   0.00000  Uiso   1.00
H28    H     0.43432   0.65673   0.47398   0.00000  Uiso   1.00
H29    H     0.64853   0.87534   0.07161   0.00000  Uiso   1.00
H30    H     0.22426   0.09612   0.77482   0.00000  Uiso   1.00
H31    H     0.62521   0.07019   0.71245   0.00000  Uiso   1.00
H32    H     0.63015   0.97192   0.56863   0.00000  Uiso   1.00
H33    H     0.73175   0.07559   0.85205   0.00000  Uiso   1.00
H34    H     0.53055   0.18029   0.71130   0.00000  Uiso   1.00
H35    H     0.60916   0.83581   0.41772   0.00000  Uiso   1.00
H36    H     0.82337   0.05443   0.01536   0.00000  Uiso   1.00
H37    H     0.39911   0.27521   0.71856   0.00000  Uiso   1.00
O38    O     0.52133   0.67784   0.35245   0.00000  Uiso   1.00
O39    O     0.80236   0.96467   0.13651   0.00000  Uiso   1.00
O40    O     0.24573   0.25432   0.74712   0.00000  Uiso   1.00
N41    N     0.47478   0.71237   0.48047   0.00000  Uiso   1.00
N42    N     0.67506   0.91675   0.03921   0.00000  Uiso   1.00
N43    N     0.27841   0.12317   0.76175   0.00000  Uiso   1.00
N44    N     0.56886   0.80873   0.45020   0.00000  Uiso   1.00
N45    N     0.76914   0.01312   0.00894   0.00000  Uiso   1.00
N46    N     0.37249   0.21953   0.73148   0.00000  Uiso   1.00
C47    C     0.75792   0.46439   0.90672   0.00000  Uiso   1.00
C48    C     0.67660   0.49080   0.87655   0.00000  Uiso   1.00
C49    C     0.62339   0.45904   0.79653   0.00000  Uiso   1.00
C50    C     0.55210   0.49140   0.78136   0.00000  Uiso   1.00
C51    C     0.42849   0.52303   0.72497   0.00000  Uiso   1.00
C52    C     0.82481   0.54655   0.93228   0.00000  Uiso   1.00
C53    C     0.89622   0.56165   0.89913   0.00000  Uiso   1.00
C54    C     0.94969   0.64094   0.93090   0.00000  Uiso   1.00
C55    C     0.05622   0.75909   0.96107   0.00000  Uiso   1.00
C56    C     0.75042   0.43391   0.99039   0.00000  Uiso   1.00
C57    C     0.75931   0.35432   0.00610   0.00000  Uiso   1.00
C58    C     0.75017   0.33878   0.08680   0.00000  Uiso   1.00
C59    C     0.74119   0.28205   0.20719   0.00000  Uiso   1.00
C60    C     0.72591   0.57833   0.02209   0.00000  Uiso   1.00
C61    C     0.65922   0.55269   0.93921   0.00000  Uiso   1.00
C62    C     0.58798   0.58511   0.92417   0.00000  Uiso   1.00
C63    C     0.53468   0.55340   0.84414   0.00000  Uiso   1.00
C64    C     0.80743   0.60844   0.99494   0.00000  Uiso   1.00
C65    C     0.86081   0.68772   0.02677   0.00000  Uiso   1.00
C66    C     0.93228   0.70295   0.99367   0.00000  Uiso   1.00
C67    C     0.73303   0.49580   0.05305   0.00000  Uiso   1.00
C68    C     0.72389   0.48038   0.13374   0.00000  Uiso   1.00
C69    C     0.73275   0.40078   0.14958   0.00000  Uiso   1.00
H70    H     0.77146   0.41621   0.85794   0.00000  Uiso   1.00
H71    H     0.63687   0.41115   0.74805   0.00000  Uiso   1.00
H72    H     0.90966   0.51374   0.85064   0.00000  Uiso   1.00
H73    H     0.77276   0.30644   0.95760   0.00000  Uiso   1.00
H74    H     0.48001   0.43286   0.65384   0.00000  Uiso   1.00
H75    H     0.05521   0.64917   0.87019   0.00000  Uiso   1.00
H76    H     0.76654   0.21203   0.09573   0.00000  Uiso   1.00
H77    H     0.71238   0.62652   0.07087   0.00000  Uiso   1.00
H78    H     0.57454   0.63300   0.97267   0.00000  Uiso   1.00
H79    H     0.84733   0.73560   0.07526   0.00000  Uiso   1.00
H80    H     0.71044   0.52829   0.18222   0.00000  Uiso   1.00
H81    H     0.42942   0.61293   0.83615   0.00000  Uiso   1.00
H82    H     0.00463   0.82924   0.05250   0.00000  Uiso   1.00
H83    H     0.71595   0.39210   0.27804   0.00000  Uiso   1.00
O84    O     0.36512   0.52339   0.67654   0.00000  Uiso   1.00
O85    O     0.11977   0.80717   0.96039   0.00000  Uiso   1.00
O86    O     0.74104   0.23365   0.25629   0.00000  Uiso   1.00
N87    N     0.48701   0.47434   0.71023   0.00000  Uiso   1.00
N88    N     0.02478   0.67658   0.91249   0.00000  Uiso   1.00
N89    N     0.75492   0.26790   0.12336   0.00000  Uiso   1.00
N90    N     0.45979   0.57123   0.80833   0.00000  Uiso   1.00
N91    N     0.99756   0.77347   0.01059   0.00000  Uiso   1.00
N92    N     0.72770   0.36479   0.22146   0.00000  Uiso   1.00
C93    C     0.91134   0.76171   0.46467   0.00000  Uiso   1.00
C94    C     0.88148   0.67782   0.49154   0.00000  Uiso   1.00
C95    C     0.80411   0.62355   0.46000   0.00000  Uiso   1.00
C96    C     0.78877   0.54989   0.49278   0.00000  Uiso   1.00
C97    C     0.73327   0.42249   0.52509   0.00000  Uiso   1.00
C98    C     0.93706   0.83023   0.54780   0.00000  Uiso   1.00
C99    C     0.90642   0.90411   0.56357   0.00000  Uiso   1.00
C100   C     0.93787   0.95874   0.64370   0.00000  Uiso   1.00
C101   C     0.96870   0.06799   0.76334   0.00000  Uiso   1.00
C102   C     0.99109   0.75357   0.43300   0.00000  Uiso   1.00
C103   C     0.00590   0.76301   0.35224   0.00000  Uiso   1.00
C104   C     0.08285   0.75312   0.33573   0.00000  Uiso   1.00
C105   C     0.19757   0.74334   0.27712   0.00000  Uiso   1.00
C106   C     0.02167   0.72740   0.57896   0.00000  Uiso   1.00
C107   C     0.94141   0.65919   0.55362   0.00000  Uiso   1.00
C108   C     0.92617   0.58559   0.58645   0.00000  Uiso   1.00
C109   C     0.84880   0.53121   0.55496   0.00000  Uiso   1.00
C110   C     0.99698   0.81160   0.60988   0.00000  Uiso   1.00
C111   C     0.02848   0.86614   0.69001   0.00000  Uiso   1.00
C112   C     0.99790   0.94007   0.70590   0.00000  Uiso   1.00
C113   C     0.05101   0.73493   0.49508   0.00000  Uiso   1.00
C114   C     0.12796   0.72504   0.47869   0.00000  Uiso   1.00
C115   C     0.14288   0.73445   0.39792   0.00000  Uiso   1.00
H116   H     0.86469   0.77622   0.41635   0.00000  Uiso   1.00
H117   H     0.75775   0.63800   0.41197   0.00000  Uiso   1.00
H118   H     0.86006   0.91851   0.51551   0.00000  Uiso   1.00
H119   H     0.95951   0.77743   0.30422   0.00000  Uiso   1.00
H120   H     0.66561   0.47655   0.43451   0.00000  Uiso   1.00
H121   H     0.88134   0.06804   0.65283   0.00000  Uiso   1.00
H122   H     0.09107   0.77054   0.20728   0.00000  Uiso   1.00
H123   H     0.06832   0.71289   0.62729   0.00000  Uiso   1.00
H124   H     0.97256   0.57118   0.63449   0.00000  Uiso   1.00
H125   H     0.07486   0.85170   0.73803   0.00000  Uiso   1.00
H126   H     0.17432   0.71061   0.52674   0.00000  Uiso   1.00
H127   H     0.83995   0.42232   0.61512   0.00000  Uiso   1.00
H128   H     0.05568   0.01382   0.83344   0.00000  Uiso   1.00
H129   H     0.26541   0.71631   0.38789   0.00000  Uiso   1.00
O130   O     0.68610   0.35737   0.52577   0.00000  Uiso   1.00
O131   O     0.96914   0.13339   0.81218   0.00000  Uiso   1.00
O132   O     0.24429   0.74308   0.22764   0.00000  Uiso   1.00
N133   N     0.71979   0.48322   0.47602   0.00000  Uiso   1.00
N134   N     0.92147   0.03623   0.68014   0.00000  Uiso   1.00
N135   N     0.11756   0.75811   0.26360   0.00000  Uiso   1.00
N136   N     0.81360   0.45404   0.57320   0.00000  Uiso   1.00
N137   N     0.01528   0.00705   0.77732   0.00000  Uiso   1.00
N138   N     0.21137   0.72893   0.36078   0.00000  Uiso   1.00
C139   C     0.96801   0.26141   0.40810   0.00000  Uiso   1.00
C140   C     0.99279   0.17727   0.37716   0.00000  Uiso   1.00
C141   C     0.96140   0.12278   0.29699   0.00000  Uiso   1.00
C142   C     0.99206   0.04890   0.28109   0.00000  Uiso   1.00
C143   C     0.02146   0.92111   0.22358   0.00000  Uiso   1.00
C144   C     0.04824   0.32968   0.43357   0.00000  Uiso   1.00
C145   C     0.06345   0.40334   0.40082   0.00000  Uiso   1.00
C146   C     0.14079   0.45776   0.43242   0.00000  Uiso   1.00
C147   C     0.25623   0.56661   0.46253   0.00000  Uiso   1.00
C148   C     0.93859   0.25378   0.49193   0.00000  Uiso   1.00
C149   C     0.86162   0.26365   0.50827   0.00000  Uiso   1.00
C150   C     0.84665   0.25419   0.58901   0.00000  Uiso   1.00
C151   C     0.79185   0.24520   0.70973   0.00000  Uiso   1.00
C152   C     0.07829   0.22710   0.52244   0.00000  Uiso   1.00
C153   C     0.05269   0.15864   0.43927   0.00000  Uiso   1.00
C154   C     0.08341   0.08482   0.42349   0.00000  Uiso   1.00
C155   C     0.05207   0.03023   0.34330   0.00000  Uiso   1.00
C156   C     0.10813   0.31104   0.49567   0.00000  Uiso   1.00
C157   C     0.18546   0.36537   0.52733   0.00000  Uiso   1.00
C158   C     0.20079   0.43909   0.49463   0.00000  Uiso   1.00
C159   C     0.99849   0.23514   0.55404   0.00000  Uiso   1.00
C160   C     0.98363   0.22567   0.63477   0.00000  Uiso   1.00
C161   C     0.90665   0.23552   0.65122   0.00000  Uiso   1.00
H162   H     0.92138   0.27593   0.35975   0.00000  Uiso   1.00
H163   H     0.91505   0.13723   0.24894   0.00000  Uiso   1.00
H164   H     0.01708   0.41775   0.35277   0.00000  Uiso   1.00
H165   H     0.81528   0.27807   0.46019   0.00000  Uiso   1.00
H166   H     0.93447   0.97526   0.15346   0.00000  Uiso   1.00
H167   H     0.14960   0.56676   0.37241   0.00000  Uiso   1.00
H168   H     0.72407   0.27222   0.59894   0.00000  Uiso   1.00
H169   H     0.12493   0.21259   0.57080   0.00000  Uiso   1.00
H170   H     0.12976   0.07041   0.47156   0.00000  Uiso   1.00
H171   H     0.23180   0.35093   0.57539   0.00000  Uiso   1.00
H172   H     0.03000   0.21125   0.68281   0.00000  Uiso   1.00
H173   H     0.10874   0.92103   0.33414   0.00000  Uiso   1.00
H174   H     0.32387   0.51253   0.55310   0.00000  Uiso   1.00
H175   H     0.89834   0.21799   0.77962   0.00000  Uiso   1.00
O176   O     0.02114   0.85578   0.17470   0.00000  Uiso   1.00
O177   O     0.30337   0.63180   0.46197   0.00000  Uiso   1.00
O178   O     0.74508   0.24537   0.75916   0.00000  Uiso   1.00
N179   N     0.97481   0.98200   0.20961   0.00000  Uiso   1.00
N180   N     0.17595   0.53501   0.41430   0.00000  Uiso   1.00
N181   N     0.77812   0.25966   0.62609   0.00000  Uiso   1.00
N182   N     0.06858   0.95282   0.30683   0.00000  Uiso   1.00
N183   N     0.26972   0.50583   0.51153   0.00000  Uiso   1.00
N184   N     0.87189   0.23048   0.72332   0.00000  Uiso   1.00
C185   C     0.25803   0.40790   0.96309   0.00000  Uiso   1.00
C186   C     0.17657   0.37777   0.99033   0.00000  Uiso   1.00
C187   C     0.12324   0.29845   0.95862   0.00000  Uiso   1.00
C188   C     0.05183   0.28320   0.99181   0.00000  Uiso   1.00
C189   C     0.92801   0.22700   0.02461   0.00000  Uiso   1.00
C190   C     0.32478   0.43366   0.04593   0.00000  Uiso   1.00
C191   C     0.39607   0.40133   0.06095   0.00000  Uiso   1.00
C192   C     0.44943   0.43314   0.14094   0.00000  Uiso   1.00
C193   C     0.55573   0.46374   0.26002   0.00000  Uiso   1.00
C194   C     0.25080   0.49037   0.93205   0.00000  Uiso   1.00
C195   C     0.25993   0.50574   0.85134   0.00000  Uiso   1.00
C196   C     0.25102   0.58531   0.83545   0.00000  Uiso   1.00
C197   C     0.24248   0.70397   0.77772   0.00000  Uiso   1.00
C198   C     0.22602   0.52189   0.07841   0.00000  Uiso   1.00
C199   C     0.15918   0.43969   0.05297   0.00000  Uiso   1.00
C200   C     0.08783   0.42457   0.08621   0.00000  Uiso   1.00
C201   C     0.03441   0.34523   0.05455   0.00000  Uiso   1.00
C202   C     0.30739   0.49557   0.10857   0.00000  Uiso   1.00
C203   C     0.36066   0.52745   0.18854   0.00000  Uiso   1.00
C204   C     0.43201   0.49517   0.20369   0.00000  Uiso   1.00
C205   C     0.23342   0.55229   0.99469   0.00000  Uiso   1.00
C206   C     0.22451   0.63186   0.97892   0.00000  Uiso   1.00
C207   C     0.23360   0.64734   0.89820   0.00000  Uiso   1.00
H208   H     0.27157   0.35969   0.91433   0.00000  Uiso   1.00
H209   H     0.13672   0.25055   0.91016   0.00000  Uiso   1.00
H210   H     0.40951   0.35342   0.01247   0.00000  Uiso   1.00
H211   H     0.27338   0.45781   0.80288   0.00000  Uiso   1.00
H212   H     0.97957   0.15683   0.93317   0.00000  Uiso   1.00
H213   H     0.55478   0.37376   0.14889   0.00000  Uiso   1.00
H214   H     0.26772   0.59390   0.70694   0.00000  Uiso   1.00
H215   H     0.21248   0.57010   0.12718   0.00000  Uiso   1.00
H216   H     0.07439   0.47249   0.13468   0.00000  Uiso   1.00
H217   H     0.34719   0.57536   0.23699   0.00000  Uiso   1.00
H218   H     0.21105   0.67975   0.02741   0.00000  Uiso   1.00
H219   H     0.92899   0.33697   0.11541   0.00000  Uiso   1.00
H220   H     0.50419   0.55390   0.33113   0.00000  Uiso   1.00
H221   H     0.21713   0.77403   0.88917   0.00000  Uiso   1.00
O222   O     0.86452   0.17888   0.02540   0.00000  Uiso   1.00
O223   O     0.61917   0.46350   0.30841   0.00000  Uiso   1.00
O224   O     0.24255   0.75231   0.72858   0.00000  Uiso   1.00
N225   N     0.98661   0.21263   0.97502   0.00000  Uiso   1.00
N226   N     0.52439   0.41543   0.17671   0.00000  Uiso   1.00
N227   N     0.25603   0.62125   0.76353   0.00000  Uiso   1.00
N228   N     0.95939   0.30956   0.07308   0.00000  Uiso   1.00
N229   N     0.49716   0.51236   0.27477   0.00000  Uiso   1.00
N230   N     0.22881   0.71818   0.86158   0.00000  Uiso   1.00
C231   C     0.41100   0.96573   0.26329   0.00000  Uiso   1.00
C232   C     0.38141   0.99190   0.17839   0.00000  Uiso   1.00
C233   C     0.30410   0.96025   0.12387   0.00000  Uiso   1.00
C234   C     0.28901   0.99235   0.04924   0.00000  Uiso   1.00
C235   C     0.23390   0.02366   0.92038   0.00000  Uiso   1.00
C236   C     0.43675   0.04808   0.33237   0.00000  Uiso   1.00
C237   C     0.40597   0.06366   0.40733   0.00000  Uiso   1.00
C238   C     0.43748   0.14305   0.46233   0.00000  Uiso   1.00
C239   C     0.46833   0.26156   0.57257   0.00000  Uiso   1.00
C240   C     0.49069   0.93484   0.25471   0.00000  Uiso   1.00
C241   C     0.50528   0.85522   0.26440   0.00000  Uiso   1.00
C242   C     0.58222   0.83929   0.25403   0.00000  Uiso   1.00
C243   C     0.69682   0.78198   0.24368   0.00000  Uiso   1.00
C244   C     0.52169   0.07900   0.22769   0.00000  Uiso   1.00
C245   C     0.44153   0.05343   0.15906   0.00000  Uiso   1.00
C246   C     0.42656   0.08558   0.08449   0.00000  Uiso   1.00
C247   C     0.34924   0.05399   0.02987   0.00000  Uiso   1.00
C248   C     0.49687   0.10961   0.31304   0.00000  Uiso   1.00
C249   C     0.52843   0.18899   0.36795   0.00000  Uiso   1.00
C250   C     0.49771   0.20469   0.44297   0.00000  Uiso   1.00
C251   C     0.55081   0.99637   0.23538   0.00000  Uiso   1.00
C252   C     0.62774   0.98055   0.22501   0.00000  Uiso   1.00
C253   C     0.64245   0.90093   0.23466   0.00000  Uiso   1.00
H254   H     0.36419   0.91783   0.27834   0.00000  Uiso   1.00
H255   H     0.25758   0.91264   0.13886   0.00000  Uiso   1.00
H256   H     0.35945   0.01603   0.42228   0.00000  Uiso   1.00
H257   H     0.45874   0.80763   0.27936   0.00000  Uiso   1.00
H258   H     0.16589   0.93405   0.97571   0.00000  Uiso   1.00
H259   H     0.38070   0.15204   0.57332   0.00000  Uiso   1.00
H260   H     0.59008   0.71258   0.27195   0.00000  Uiso   1.00
H261   H     0.56850   0.12691   0.21264   0.00000  Uiso   1.00
H262   H     0.47310   0.13319   0.06954   0.00000  Uiso   1.00
H263   H     0.57496   0.23659   0.35297   0.00000  Uiso   1.00
H264   H     0.67425   0.02818   0.21004   0.00000  Uiso   1.00
H265   H     0.34080   0.11306   0.91945   0.00000  Uiso   1.00
H266   H     0.55562   0.33106   0.51707   0.00000  Uiso   1.00
H267   H     0.76500   0.89159   0.21569   0.00000  Uiso   1.00
O268   O     0.18689   0.02394   0.85464   0.00000  Uiso   1.00
O269   O     0.46873   0.30993   0.63871   0.00000  Uiso   1.00
O270   O     0.74343   0.73336   0.24330   0.00000  Uiso   1.00
N271   N     0.22015   0.97531   0.98209   0.00000  Uiso   1.00
N272   N     0.42098   0.17912   0.54083   0.00000  Uiso   1.00
N273   N     0.61674   0.76827   0.25909   0.00000  Uiso   1.00
N274   N     0.31428   0.07163   0.95182   0.00000  Uiso   1.00
N275   N     0.51510   0.27545   0.51055   0.00000  Uiso   1.00
N276   N     0.71086   0.86459   0.22882   0.00000  Uiso   1.00
