data_job_01216
_audit_creation_date              2018-12-19
_audit_creation_method            'Materials Studio'
_symmetry_space_group_name_H-M    'P1'
_symmetry_Int_Tables_number       1
_symmetry_cell_setting            triclinic
loop_
_symmetry_equiv_pos_as_xyz
  x,y,z
_cell_length_a                    29.7351
_cell_length_b                    12.5410
_cell_length_c                    27.3227
_cell_angle_alpha                 90.0000
_cell_angle_beta                  133.3970
_cell_angle_gamma                 90.0000
loop_
_atom_site_label
_atom_site_type_symbol
_atom_site_fract_x
_atom_site_fract_y
_atom_site_fract_z
_atom_site_U_iso_or_equiv
_atom_site_adp_type
_atom_site_occupancy
C1     C     0.29002   0.13876   0.32782   0.00000  Uiso   1.00
C2     C     0.32884   0.03773   0.36153   0.00000  Uiso   1.00
C3     C     0.35328   0.97934   0.34123   0.00000  Uiso   1.00
C4     C     0.38749   0.88929   0.37872   0.00000  Uiso   1.00
C5     C     0.44632   0.73701   0.42255   0.00000  Uiso   1.00
C6     C     0.22963   0.11625   0.30965   0.00000  Uiso   1.00
C7     C     0.17066   0.12389   0.24573   0.00000  Uiso   1.00
C8     C     0.12136   0.09995   0.23955   0.00000  Uiso   1.00
C9     C     0.02616   0.06965   0.20285   0.00000  Uiso   1.00
C10    C     0.32344   0.22387   0.38265   0.00000  Uiso   1.00
C11    C     0.34332   0.32202   0.38010   0.00000  Uiso   1.00
C12    C     0.37298   0.38870   0.43538   0.00000  Uiso   1.00
C13    C     0.42342   0.52550   0.51202   0.00000  Uiso   1.00
C14    C     0.30732   0.08267   0.43051   0.00000  Uiso   1.00
C15    C     0.33824   0.00726   0.41731   0.00000  Uiso   1.00
C16    C     0.37242   0.91728   0.45484   0.00000  Uiso   1.00
C17    C     0.39691   0.85876   0.43459   0.00000  Uiso   1.00
C18    C     0.23903   0.08578   0.36542   0.00000  Uiso   1.00
C19    C     0.18980   0.06183   0.35934   0.00000  Uiso   1.00
C20    C     0.13077   0.06943   0.29543   0.00000  Uiso   1.00
C21    C     0.33283   0.19340   0.43843   0.00000  Uiso   1.00
C22    C     0.36246   0.25995   0.49371   0.00000  Uiso   1.00
C23    C     0.38239   0.35818   0.49125   0.00000  Uiso   1.00
H24    H     0.28270   0.16248   0.28440   0.00000  Uiso   1.00
H25    H     0.34599   0.00294   0.29806   0.00000  Uiso   1.00
H26    H     0.16340   0.14748   0.20258   0.00000  Uiso   1.00
H27    H     0.33604   0.34557   0.33694   0.00000  Uiso   1.00
H28    H     0.42029   0.81259   0.33779   0.00000  Uiso   1.00
H29    H     0.03529   0.11740   0.13647   0.00000  Uiso   1.00
H30    H     0.39932   0.53512   0.41978   0.00000  Uiso   1.00
H31    H     0.31464   0.05895   0.47393   0.00000  Uiso   1.00
H32    H     0.37969   0.89372   0.49800   0.00000  Uiso   1.00
H33    H     0.19709   0.03826   0.40251   0.00000  Uiso   1.00
H34    H     0.36973   0.23635   0.53687   0.00000  Uiso   1.00
H35    H     0.44763   0.72394   0.50006   0.00000  Uiso   1.00
H36    H     0.06263   0.02876   0.29874   0.00000  Uiso   1.00
H37    H     0.42666   0.44647   0.58205   0.00000  Uiso   1.00
O38    O     0.47616   0.66142   0.43132   0.00000  Uiso   1.00
O39    O     0.97105   0.06135   0.16720   0.00000  Uiso   1.00
O40    O     0.44865   0.60937   0.53889   0.00000  Uiso   1.00
N41    N     0.41781   0.81442   0.37268   0.00000  Uiso   1.00
N42    N     0.05785   0.09938   0.18446   0.00000  Uiso   1.00
N43    N     0.39818   0.48992   0.44932   0.00000  Uiso   1.00
N44    N     0.43252   0.76672   0.46000   0.00000  Uiso   1.00
N45    N     0.07257   0.05168   0.27178   0.00000  Uiso   1.00
N46    N     0.41289   0.44222   0.53664   0.00000  Uiso   1.00
C47    C     0.79002   0.63876   0.32782   0.00000  Uiso   1.00
C48    C     0.82884   0.53773   0.36153   0.00000  Uiso   1.00
C49    C     0.85328   0.47934   0.34123   0.00000  Uiso   1.00
C50    C     0.88749   0.38929   0.37872   0.00000  Uiso   1.00
C51    C     0.94632   0.23701   0.42255   0.00000  Uiso   1.00
C52    C     0.72963   0.61625   0.30965   0.00000  Uiso   1.00
C53    C     0.67066   0.62389   0.24573   0.00000  Uiso   1.00
C54    C     0.62136   0.59995   0.23955   0.00000  Uiso   1.00
C55    C     0.52616   0.56965   0.20285   0.00000  Uiso   1.00
C56    C     0.82344   0.72387   0.38265   0.00000  Uiso   1.00
C57    C     0.84332   0.82202   0.38010   0.00000  Uiso   1.00
C58    C     0.87298   0.88870   0.43538   0.00000  Uiso   1.00
C59    C     0.92342   0.02550   0.51202   0.00000  Uiso   1.00
C60    C     0.80732   0.58267   0.43051   0.00000  Uiso   1.00
C61    C     0.83824   0.50726   0.41731   0.00000  Uiso   1.00
C62    C     0.87242   0.41728   0.45484   0.00000  Uiso   1.00
C63    C     0.89691   0.35876   0.43459   0.00000  Uiso   1.00
C64    C     0.73903   0.58578   0.36542   0.00000  Uiso   1.00
C65    C     0.68980   0.56183   0.35934   0.00000  Uiso   1.00
C66    C     0.63077   0.56943   0.29543   0.00000  Uiso   1.00
C67    C     0.83283   0.69340   0.43843   0.00000  Uiso   1.00
C68    C     0.86246   0.75995   0.49371   0.00000  Uiso   1.00
C69    C     0.88239   0.85818   0.49125   0.00000  Uiso   1.00
H70    H     0.78270   0.66248   0.28440   0.00000  Uiso   1.00
H71    H     0.84599   0.50294   0.29806   0.00000  Uiso   1.00
H72    H     0.66340   0.64748   0.20258   0.00000  Uiso   1.00
H73    H     0.83604   0.84557   0.33694   0.00000  Uiso   1.00
H74    H     0.92029   0.31259   0.33779   0.00000  Uiso   1.00
H75    H     0.53529   0.61740   0.13647   0.00000  Uiso   1.00
H76    H     0.89932   0.03512   0.41978   0.00000  Uiso   1.00
H77    H     0.81464   0.55895   0.47393   0.00000  Uiso   1.00
H78    H     0.87969   0.39372   0.49800   0.00000  Uiso   1.00
H79    H     0.69709   0.53826   0.40251   0.00000  Uiso   1.00
H80    H     0.86973   0.73635   0.53687   0.00000  Uiso   1.00
H81    H     0.94763   0.22394   0.50006   0.00000  Uiso   1.00
H82    H     0.56263   0.52876   0.29874   0.00000  Uiso   1.00
H83    H     0.92666   0.94647   0.58205   0.00000  Uiso   1.00
O84    O     0.97616   0.16142   0.43132   0.00000  Uiso   1.00
O85    O     0.47105   0.56135   0.16720   0.00000  Uiso   1.00
O86    O     0.94865   0.10937   0.53889   0.00000  Uiso   1.00
N87    N     0.91781   0.31442   0.37268   0.00000  Uiso   1.00
N88    N     0.55785   0.59938   0.18446   0.00000  Uiso   1.00
N89    N     0.89818   0.98992   0.44932   0.00000  Uiso   1.00
N90    N     0.93252   0.26672   0.46000   0.00000  Uiso   1.00
N91    N     0.57257   0.55168   0.27178   0.00000  Uiso   1.00
N92    N     0.91289   0.94222   0.53664   0.00000  Uiso   1.00
C93    C     0.70998   0.13876   0.17218   0.00000  Uiso   1.00
C94    C     0.67116   0.03773   0.13847   0.00000  Uiso   1.00
C95    C     0.64672   0.97934   0.15877   0.00000  Uiso   1.00
C96    C     0.61251   0.88929   0.12128   0.00000  Uiso   1.00
C97    C     0.55368   0.73701   0.07745   0.00000  Uiso   1.00
C98    C     0.77037   0.11625   0.19035   0.00000  Uiso   1.00
C99    C     0.82934   0.12389   0.25427   0.00000  Uiso   1.00
C100   C     0.87864   0.09995   0.26045   0.00000  Uiso   1.00
C101   C     0.97384   0.06965   0.29715   0.00000  Uiso   1.00
C102   C     0.67656   0.22387   0.11735   0.00000  Uiso   1.00
C103   C     0.65668   0.32202   0.11990   0.00000  Uiso   1.00
C104   C     0.62702   0.38870   0.06462   0.00000  Uiso   1.00
C105   C     0.57658   0.52550   0.98798   0.00000  Uiso   1.00
C106   C     0.69268   0.08267   0.06949   0.00000  Uiso   1.00
C107   C     0.66176   0.00726   0.08269   0.00000  Uiso   1.00
C108   C     0.62758   0.91728   0.04516   0.00000  Uiso   1.00
C109   C     0.60309   0.85876   0.06541   0.00000  Uiso   1.00
C110   C     0.76097   0.08578   0.13458   0.00000  Uiso   1.00
C111   C     0.81020   0.06183   0.14066   0.00000  Uiso   1.00
C112   C     0.86923   0.06943   0.20457   0.00000  Uiso   1.00
C113   C     0.66717   0.19340   0.06157   0.00000  Uiso   1.00
C114   C     0.63754   0.25995   0.00629   0.00000  Uiso   1.00
C115   C     0.61761   0.35818   0.00875   0.00000  Uiso   1.00
H116   H     0.71730   0.16248   0.21560   0.00000  Uiso   1.00
H117   H     0.65401   0.00294   0.20194   0.00000  Uiso   1.00
H118   H     0.83660   0.14748   0.29742   0.00000  Uiso   1.00
H119   H     0.66396   0.34557   0.16306   0.00000  Uiso   1.00
H120   H     0.57971   0.81259   0.16221   0.00000  Uiso   1.00
H121   H     0.96471   0.11740   0.36353   0.00000  Uiso   1.00
H122   H     0.60068   0.53512   0.08022   0.00000  Uiso   1.00
H123   H     0.68536   0.05895   0.02607   0.00000  Uiso   1.00
H124   H     0.62031   0.89372   0.00200   0.00000  Uiso   1.00
H125   H     0.80291   0.03826   0.09749   0.00000  Uiso   1.00
H126   H     0.63027   0.23635   0.96313   0.00000  Uiso   1.00
H127   H     0.55237   0.72394   0.99994   0.00000  Uiso   1.00
H128   H     0.93737   0.02876   0.20126   0.00000  Uiso   1.00
H129   H     0.57334   0.44647   0.91795   0.00000  Uiso   1.00
O130   O     0.52384   0.66142   0.06868   0.00000  Uiso   1.00
O131   O     0.02895   0.06135   0.33280   0.00000  Uiso   1.00
O132   O     0.55135   0.60937   0.96111   0.00000  Uiso   1.00
N133   N     0.58219   0.81442   0.12732   0.00000  Uiso   1.00
N134   N     0.94215   0.09938   0.31554   0.00000  Uiso   1.00
N135   N     0.60182   0.48992   0.05068   0.00000  Uiso   1.00
N136   N     0.56748   0.76672   0.04000   0.00000  Uiso   1.00
N137   N     0.92743   0.05168   0.22822   0.00000  Uiso   1.00
N138   N     0.58711   0.44222   0.96336   0.00000  Uiso   1.00
C139   C     0.20998   0.63876   0.17218   0.00000  Uiso   1.00
C140   C     0.17116   0.53773   0.13847   0.00000  Uiso   1.00
C141   C     0.14672   0.47934   0.15877   0.00000  Uiso   1.00
C142   C     0.11251   0.38929   0.12128   0.00000  Uiso   1.00
C143   C     0.05368   0.23701   0.07745   0.00000  Uiso   1.00
C144   C     0.27037   0.61625   0.19035   0.00000  Uiso   1.00
C145   C     0.32934   0.62389   0.25427   0.00000  Uiso   1.00
C146   C     0.37864   0.59995   0.26045   0.00000  Uiso   1.00
C147   C     0.47384   0.56965   0.29715   0.00000  Uiso   1.00
C148   C     0.17656   0.72387   0.11735   0.00000  Uiso   1.00
C149   C     0.15668   0.82202   0.11990   0.00000  Uiso   1.00
C150   C     0.12702   0.88870   0.06462   0.00000  Uiso   1.00
C151   C     0.07658   0.02550   0.98798   0.00000  Uiso   1.00
C152   C     0.19268   0.58267   0.06949   0.00000  Uiso   1.00
C153   C     0.16176   0.50726   0.08269   0.00000  Uiso   1.00
C154   C     0.12758   0.41728   0.04516   0.00000  Uiso   1.00
C155   C     0.10309   0.35876   0.06541   0.00000  Uiso   1.00
C156   C     0.26097   0.58578   0.13458   0.00000  Uiso   1.00
C157   C     0.31020   0.56183   0.14066   0.00000  Uiso   1.00
C158   C     0.36923   0.56943   0.20457   0.00000  Uiso   1.00
C159   C     0.16717   0.69340   0.06157   0.00000  Uiso   1.00
C160   C     0.13754   0.75995   0.00629   0.00000  Uiso   1.00
C161   C     0.11761   0.85818   0.00875   0.00000  Uiso   1.00
H162   H     0.21730   0.66248   0.21560   0.00000  Uiso   1.00
H163   H     0.15401   0.50294   0.20194   0.00000  Uiso   1.00
H164   H     0.33660   0.64748   0.29742   0.00000  Uiso   1.00
H165   H     0.16396   0.84557   0.16306   0.00000  Uiso   1.00
H166   H     0.07971   0.31259   0.16221   0.00000  Uiso   1.00
H167   H     0.46471   0.61740   0.36353   0.00000  Uiso   1.00
H168   H     0.10068   0.03512   0.08022   0.00000  Uiso   1.00
H169   H     0.18536   0.55895   0.02607   0.00000  Uiso   1.00
H170   H     0.12031   0.39372   0.00200   0.00000  Uiso   1.00
H171   H     0.30291   0.53826   0.09749   0.00000  Uiso   1.00
H172   H     0.13027   0.73635   0.96313   0.00000  Uiso   1.00
H173   H     0.05237   0.22394   0.99994   0.00000  Uiso   1.00
H174   H     0.43737   0.52876   0.20126   0.00000  Uiso   1.00
H175   H     0.07334   0.94647   0.91795   0.00000  Uiso   1.00
O176   O     0.02384   0.16142   0.06868   0.00000  Uiso   1.00
O177   O     0.52895   0.56135   0.33280   0.00000  Uiso   1.00
O178   O     0.05135   0.10937   0.96111   0.00000  Uiso   1.00
N179   N     0.08219   0.31442   0.12732   0.00000  Uiso   1.00
N180   N     0.44215   0.59938   0.31554   0.00000  Uiso   1.00
N181   N     0.10182   0.98992   0.05068   0.00000  Uiso   1.00
N182   N     0.06748   0.26672   0.04000   0.00000  Uiso   1.00
N183   N     0.42743   0.55168   0.22822   0.00000  Uiso   1.00
N184   N     0.08711   0.94222   0.96336   0.00000  Uiso   1.00
C185   C     0.70998   0.86124   0.67218   0.00000  Uiso   1.00
C186   C     0.67116   0.96227   0.63847   0.00000  Uiso   1.00
C187   C     0.64672   0.02066   0.65877   0.00000  Uiso   1.00
C188   C     0.61251   0.11071   0.62128   0.00000  Uiso   1.00
C189   C     0.55368   0.26299   0.57745   0.00000  Uiso   1.00
C190   C     0.77037   0.88375   0.69035   0.00000  Uiso   1.00
C191   C     0.82934   0.87611   0.75427   0.00000  Uiso   1.00
C192   C     0.87864   0.90005   0.76045   0.00000  Uiso   1.00
C193   C     0.97384   0.93035   0.79715   0.00000  Uiso   1.00
C194   C     0.67656   0.77613   0.61735   0.00000  Uiso   1.00
C195   C     0.65668   0.67798   0.61990   0.00000  Uiso   1.00
C196   C     0.62702   0.61130   0.56462   0.00000  Uiso   1.00
C197   C     0.57658   0.47450   0.48798   0.00000  Uiso   1.00
C198   C     0.69268   0.91733   0.56949   0.00000  Uiso   1.00
C199   C     0.66176   0.99274   0.58269   0.00000  Uiso   1.00
C200   C     0.62758   0.08272   0.54516   0.00000  Uiso   1.00
C201   C     0.60309   0.14124   0.56541   0.00000  Uiso   1.00
C202   C     0.76097   0.91422   0.63458   0.00000  Uiso   1.00
C203   C     0.81020   0.93817   0.64066   0.00000  Uiso   1.00
C204   C     0.86923   0.93057   0.70457   0.00000  Uiso   1.00
C205   C     0.66717   0.80660   0.56157   0.00000  Uiso   1.00
C206   C     0.63754   0.74005   0.50629   0.00000  Uiso   1.00
C207   C     0.61761   0.64182   0.50875   0.00000  Uiso   1.00
H208   H     0.71730   0.83752   0.71560   0.00000  Uiso   1.00
H209   H     0.65401   0.99706   0.70194   0.00000  Uiso   1.00
H210   H     0.83660   0.85252   0.79742   0.00000  Uiso   1.00
H211   H     0.66396   0.65443   0.66306   0.00000  Uiso   1.00
H212   H     0.57971   0.18741   0.66221   0.00000  Uiso   1.00
H213   H     0.96471   0.88260   0.86353   0.00000  Uiso   1.00
H214   H     0.60068   0.46488   0.58022   0.00000  Uiso   1.00
H215   H     0.68536   0.94105   0.52607   0.00000  Uiso   1.00
H216   H     0.62031   0.10628   0.50200   0.00000  Uiso   1.00
H217   H     0.80291   0.96174   0.59749   0.00000  Uiso   1.00
H218   H     0.63027   0.76365   0.46313   0.00000  Uiso   1.00
H219   H     0.55237   0.27606   0.49994   0.00000  Uiso   1.00
H220   H     0.93737   0.97124   0.70126   0.00000  Uiso   1.00
H221   H     0.57334   0.55353   0.41795   0.00000  Uiso   1.00
O222   O     0.52384   0.33858   0.56868   0.00000  Uiso   1.00
O223   O     0.02895   0.93865   0.83280   0.00000  Uiso   1.00
O224   O     0.55135   0.39063   0.46111   0.00000  Uiso   1.00
N225   N     0.58219   0.18558   0.62732   0.00000  Uiso   1.00
N226   N     0.94215   0.90062   0.81554   0.00000  Uiso   1.00
N227   N     0.60182   0.51008   0.55068   0.00000  Uiso   1.00
N228   N     0.56748   0.23328   0.54000   0.00000  Uiso   1.00
N229   N     0.92743   0.94832   0.72822   0.00000  Uiso   1.00
N230   N     0.58711   0.55778   0.46336   0.00000  Uiso   1.00
C231   C     0.20998   0.36124   0.67218   0.00000  Uiso   1.00
C232   C     0.17116   0.46227   0.63847   0.00000  Uiso   1.00
C233   C     0.14672   0.52066   0.65877   0.00000  Uiso   1.00
C234   C     0.11251   0.61071   0.62128   0.00000  Uiso   1.00
C235   C     0.05368   0.76299   0.57745   0.00000  Uiso   1.00
C236   C     0.27037   0.38375   0.69035   0.00000  Uiso   1.00
C237   C     0.32934   0.37611   0.75427   0.00000  Uiso   1.00
C238   C     0.37864   0.40005   0.76045   0.00000  Uiso   1.00
C239   C     0.47384   0.43035   0.79715   0.00000  Uiso   1.00
C240   C     0.17656   0.27613   0.61735   0.00000  Uiso   1.00
C241   C     0.15668   0.17798   0.61990   0.00000  Uiso   1.00
C242   C     0.12702   0.11130   0.56462   0.00000  Uiso   1.00
C243   C     0.07658   0.97450   0.48798   0.00000  Uiso   1.00
C244   C     0.19268   0.41733   0.56949   0.00000  Uiso   1.00
C245   C     0.16176   0.49274   0.58269   0.00000  Uiso   1.00
C246   C     0.12758   0.58272   0.54516   0.00000  Uiso   1.00
C247   C     0.10309   0.64124   0.56541   0.00000  Uiso   1.00
C248   C     0.26097   0.41422   0.63458   0.00000  Uiso   1.00
C249   C     0.31020   0.43817   0.64066   0.00000  Uiso   1.00
C250   C     0.36923   0.43057   0.70457   0.00000  Uiso   1.00
C251   C     0.16717   0.30660   0.56157   0.00000  Uiso   1.00
C252   C     0.13754   0.24005   0.50629   0.00000  Uiso   1.00
C253   C     0.11761   0.14182   0.50875   0.00000  Uiso   1.00
H254   H     0.21730   0.33752   0.71560   0.00000  Uiso   1.00
H255   H     0.15401   0.49706   0.70194   0.00000  Uiso   1.00
H256   H     0.33660   0.35252   0.79742   0.00000  Uiso   1.00
H257   H     0.16396   0.15443   0.66306   0.00000  Uiso   1.00
H258   H     0.07971   0.68741   0.66221   0.00000  Uiso   1.00
H259   H     0.46471   0.38260   0.86353   0.00000  Uiso   1.00
H260   H     0.10068   0.96488   0.58022   0.00000  Uiso   1.00
H261   H     0.18536   0.44105   0.52607   0.00000  Uiso   1.00
H262   H     0.12031   0.60628   0.50200   0.00000  Uiso   1.00
H263   H     0.30291   0.46174   0.59749   0.00000  Uiso   1.00
H264   H     0.13027   0.26365   0.46313   0.00000  Uiso   1.00
H265   H     0.05237   0.77606   0.49994   0.00000  Uiso   1.00
H266   H     0.43737   0.47124   0.70126   0.00000  Uiso   1.00
H267   H     0.07334   0.05353   0.41795   0.00000  Uiso   1.00
O268   O     0.02384   0.83858   0.56868   0.00000  Uiso   1.00
O269   O     0.52895   0.43865   0.83280   0.00000  Uiso   1.00
O270   O     0.05135   0.89063   0.46111   0.00000  Uiso   1.00
N271   N     0.08219   0.68558   0.62732   0.00000  Uiso   1.00
N272   N     0.44215   0.40062   0.81554   0.00000  Uiso   1.00
N273   N     0.10182   0.01008   0.55068   0.00000  Uiso   1.00
N274   N     0.06748   0.73328   0.54000   0.00000  Uiso   1.00
N275   N     0.42743   0.44832   0.72822   0.00000  Uiso   1.00
N276   N     0.08711   0.05778   0.46336   0.00000  Uiso   1.00
C277   C     0.29002   0.86124   0.82782   0.00000  Uiso   1.00
C278   C     0.32884   0.96227   0.86153   0.00000  Uiso   1.00
C279   C     0.35328   0.02066   0.84123   0.00000  Uiso   1.00
C280   C     0.38749   0.11071   0.87872   0.00000  Uiso   1.00
C281   C     0.44632   0.26299   0.92255   0.00000  Uiso   1.00
C282   C     0.22963   0.88375   0.80965   0.00000  Uiso   1.00
C283   C     0.17066   0.87611   0.74573   0.00000  Uiso   1.00
C284   C     0.12136   0.90005   0.73955   0.00000  Uiso   1.00
C285   C     0.02616   0.93035   0.70285   0.00000  Uiso   1.00
C286   C     0.32344   0.77613   0.88265   0.00000  Uiso   1.00
C287   C     0.34332   0.67798   0.88010   0.00000  Uiso   1.00
C288   C     0.37298   0.61130   0.93538   0.00000  Uiso   1.00
C289   C     0.42342   0.47450   0.01202   0.00000  Uiso   1.00
C290   C     0.30732   0.91733   0.93051   0.00000  Uiso   1.00
C291   C     0.33824   0.99274   0.91731   0.00000  Uiso   1.00
C292   C     0.37242   0.08272   0.95484   0.00000  Uiso   1.00
C293   C     0.39691   0.14124   0.93459   0.00000  Uiso   1.00
C294   C     0.23903   0.91422   0.86542   0.00000  Uiso   1.00
C295   C     0.18980   0.93817   0.85934   0.00000  Uiso   1.00
C296   C     0.13077   0.93057   0.79543   0.00000  Uiso   1.00
C297   C     0.33283   0.80660   0.93843   0.00000  Uiso   1.00
C298   C     0.36246   0.74005   0.99371   0.00000  Uiso   1.00
C299   C     0.38239   0.64182   0.99125   0.00000  Uiso   1.00
H300   H     0.28270   0.83752   0.78440   0.00000  Uiso   1.00
H301   H     0.34599   0.99706   0.79806   0.00000  Uiso   1.00
H302   H     0.16340   0.85252   0.70258   0.00000  Uiso   1.00
H303   H     0.33604   0.65443   0.83694   0.00000  Uiso   1.00
H304   H     0.42029   0.18741   0.83779   0.00000  Uiso   1.00
H305   H     0.03529   0.88260   0.63647   0.00000  Uiso   1.00
H306   H     0.39932   0.46488   0.91978   0.00000  Uiso   1.00
H307   H     0.31464   0.94105   0.97393   0.00000  Uiso   1.00
H308   H     0.37969   0.10628   0.99800   0.00000  Uiso   1.00
H309   H     0.19709   0.96174   0.90251   0.00000  Uiso   1.00
H310   H     0.36973   0.76365   0.03687   0.00000  Uiso   1.00
H311   H     0.44763   0.27606   0.00006   0.00000  Uiso   1.00
H312   H     0.06263   0.97124   0.79874   0.00000  Uiso   1.00
H313   H     0.42666   0.55353   0.08205   0.00000  Uiso   1.00
O314   O     0.47616   0.33858   0.93132   0.00000  Uiso   1.00
O315   O     0.97105   0.93865   0.66720   0.00000  Uiso   1.00
O316   O     0.44865   0.39063   0.03889   0.00000  Uiso   1.00
N317   N     0.41781   0.18558   0.87268   0.00000  Uiso   1.00
N318   N     0.05785   0.90062   0.68446   0.00000  Uiso   1.00
N319   N     0.39818   0.51008   0.94932   0.00000  Uiso   1.00
N320   N     0.43252   0.23328   0.96000   0.00000  Uiso   1.00
N321   N     0.07257   0.94832   0.77178   0.00000  Uiso   1.00
N322   N     0.41289   0.55778   0.03664   0.00000  Uiso   1.00
C323   C     0.79002   0.36124   0.82782   0.00000  Uiso   1.00
C324   C     0.82884   0.46227   0.86153   0.00000  Uiso   1.00
C325   C     0.85328   0.52066   0.84123   0.00000  Uiso   1.00
C326   C     0.88749   0.61071   0.87872   0.00000  Uiso   1.00
C327   C     0.94632   0.76299   0.92255   0.00000  Uiso   1.00
C328   C     0.72963   0.38375   0.80965   0.00000  Uiso   1.00
C329   C     0.67066   0.37611   0.74573   0.00000  Uiso   1.00
C330   C     0.62136   0.40005   0.73955   0.00000  Uiso   1.00
C331   C     0.52616   0.43035   0.70285   0.00000  Uiso   1.00
C332   C     0.82344   0.27613   0.88265   0.00000  Uiso   1.00
C333   C     0.84332   0.17798   0.88010   0.00000  Uiso   1.00
C334   C     0.87298   0.11130   0.93538   0.00000  Uiso   1.00
C335   C     0.92342   0.97450   0.01202   0.00000  Uiso   1.00
C336   C     0.80732   0.41733   0.93051   0.00000  Uiso   1.00
C337   C     0.83824   0.49274   0.91731   0.00000  Uiso   1.00
C338   C     0.87242   0.58272   0.95484   0.00000  Uiso   1.00
C339   C     0.89691   0.64124   0.93459   0.00000  Uiso   1.00
C340   C     0.73903   0.41422   0.86542   0.00000  Uiso   1.00
C341   C     0.68980   0.43817   0.85934   0.00000  Uiso   1.00
C342   C     0.63077   0.43057   0.79543   0.00000  Uiso   1.00
C343   C     0.83283   0.30660   0.93843   0.00000  Uiso   1.00
C344   C     0.86246   0.24005   0.99371   0.00000  Uiso   1.00
C345   C     0.88239   0.14182   0.99125   0.00000  Uiso   1.00
H346   H     0.78270   0.33752   0.78440   0.00000  Uiso   1.00
H347   H     0.84599   0.49706   0.79806   0.00000  Uiso   1.00
H348   H     0.66340   0.35252   0.70258   0.00000  Uiso   1.00
H349   H     0.83604   0.15443   0.83694   0.00000  Uiso   1.00
H350   H     0.92029   0.68741   0.83779   0.00000  Uiso   1.00
H351   H     0.53529   0.38260   0.63647   0.00000  Uiso   1.00
H352   H     0.89932   0.96488   0.91978   0.00000  Uiso   1.00
H353   H     0.81464   0.44105   0.97393   0.00000  Uiso   1.00
H354   H     0.87969   0.60628   0.99800   0.00000  Uiso   1.00
H355   H     0.69709   0.46174   0.90251   0.00000  Uiso   1.00
H356   H     0.86973   0.26365   0.03687   0.00000  Uiso   1.00
H357   H     0.94763   0.77606   0.00006   0.00000  Uiso   1.00
H358   H     0.56263   0.47124   0.79874   0.00000  Uiso   1.00
H359   H     0.92666   0.05353   0.08205   0.00000  Uiso   1.00
O360   O     0.97616   0.83858   0.93132   0.00000  Uiso   1.00
O361   O     0.47105   0.43865   0.66720   0.00000  Uiso   1.00
O362   O     0.94865   0.89063   0.03889   0.00000  Uiso   1.00
N363   N     0.91781   0.68558   0.87268   0.00000  Uiso   1.00
N364   N     0.55785   0.40062   0.68446   0.00000  Uiso   1.00
N365   N     0.89818   0.01008   0.94932   0.00000  Uiso   1.00
N366   N     0.93252   0.73328   0.96000   0.00000  Uiso   1.00
N367   N     0.57257   0.44832   0.77178   0.00000  Uiso   1.00
N368   N     0.91289   0.05778   0.03664   0.00000  Uiso   1.00
