data_job_01621
_audit_creation_date              2018-12-19
_audit_creation_method            'Materials Studio'
_symmetry_space_group_name_H-M    'P1'
_symmetry_Int_Tables_number       1
_symmetry_cell_setting            triclinic
loop_
_symmetry_equiv_pos_as_xyz
  x,y,z
_cell_length_a                    10.4182
_cell_length_b                    10.4182
_cell_length_c                    41.5657
_cell_angle_alpha                 90.0000
_cell_angle_beta                  90.0000
_cell_angle_gamma                 90.0000
loop_
_atom_site_label
_atom_site_type_symbol
_atom_site_fract_x
_atom_site_fract_y
_atom_site_fract_z
_atom_site_U_iso_or_equiv
_atom_site_adp_type
_atom_site_occupancy
C1     C     0.48374   0.92726   0.53779   0.00000  Uiso   1.00
C2     C     0.48739   0.78166   0.54144   0.00000  Uiso   1.00
C3     C     0.57890   0.71252   0.55842   0.00000  Uiso   1.00
C4     C     0.56540   0.57995   0.55888   0.00000  Uiso   1.00
C5     C     0.58653   0.36316   0.56696   0.00000  Uiso   1.00
C6     C     0.48338   0.95349   0.50170   0.00000  Uiso   1.00
C7     C     0.57152   0.02884   0.48527   0.00000  Uiso   1.00
C8     C     0.55464   0.04094   0.45227   0.00000  Uiso   1.00
C9     C     0.56949   0.09100   0.39865   0.00000  Uiso   1.00
C10    C     0.35251   0.96955   0.55011   0.00000  Uiso   1.00
C11    C     0.33061   0.05842   0.57436   0.00000  Uiso   1.00
C12    C     0.20353   0.08405   0.58212   0.00000  Uiso   1.00
C13    C     0.01519   0.15904   0.60366   0.00000  Uiso   1.00
C14    C     0.29703   0.81479   0.50842   0.00000  Uiso   1.00
C15    C     0.38597   0.72057   0.52549   0.00000  Uiso   1.00
C16    C     0.37232   0.58807   0.52592   0.00000  Uiso   1.00
C17    C     0.46380   0.51874   0.54290   0.00000  Uiso   1.00
C18    C     0.38197   0.89241   0.48575   0.00000  Uiso   1.00
C19    C     0.36494   0.90440   0.45277   0.00000  Uiso   1.00
C20    C     0.45304   0.97974   0.43629   0.00000  Uiso   1.00
C21    C     0.25109   0.90845   0.53415   0.00000  Uiso   1.00
C22    C     0.12403   0.93397   0.54187   0.00000  Uiso   1.00
C23    C     0.10193   0.02286   0.56614   0.00000  Uiso   1.00
H24    H     0.56270   0.97483   0.55021   0.00000  Uiso   1.00
H25    H     0.65738   0.75983   0.57076   0.00000  Uiso   1.00
H26    H     0.64999   0.07612   0.49762   0.00000  Uiso   1.00
H27    H     0.40911   0.10568   0.58670   0.00000  Uiso   1.00
H28    H     0.71765   0.49452   0.58650   0.00000  Uiso   1.00
H29    H     0.70204   0.16146   0.43227   0.00000  Uiso   1.00
H30    H     0.19411   0.22381   0.62013   0.00000  Uiso   1.00
H31    H     0.21807   0.76722   0.49600   0.00000  Uiso   1.00
H32    H     0.29383   0.54082   0.51357   0.00000  Uiso   1.00
H33    H     0.28645   0.85712   0.44043   0.00000  Uiso   1.00
H34    H     0.04557   0.88668   0.52952   0.00000  Uiso   1.00
H35    H     0.42259   0.31677   0.54008   0.00000  Uiso   1.00
H36    H     0.40698   0.98372   0.38586   0.00000  Uiso   1.00
H37    H     0.89904   0.04605   0.57371   0.00000  Uiso   1.00
O38    O     0.62620   0.26045   0.57582   0.00000  Uiso   1.00
O39    O     0.60571   0.13548   0.37349   0.00000  Uiso   1.00
O40    O     0.93932   0.21726   0.61995   0.00000  Uiso   1.00
N41    N     0.63780   0.48376   0.57317   0.00000  Uiso   1.00
N42    N     0.62321   0.10730   0.42898   0.00000  Uiso   1.00
N43    N     0.14834   0.16560   0.60460   0.00000  Uiso   1.00
N44    N     0.47902   0.38811   0.54819   0.00000  Uiso   1.00
N45    N     0.46444   0.01165   0.40400   0.00000  Uiso   1.00
N46    N     0.98956   0.06996   0.57962   0.00000  Uiso   1.00
C47    C     0.51626   0.07274   0.03779   0.00000  Uiso   1.00
C48    C     0.51261   0.21834   0.04144   0.00000  Uiso   1.00
C49    C     0.42110   0.28748   0.05842   0.00000  Uiso   1.00
C50    C     0.43460   0.42005   0.05888   0.00000  Uiso   1.00
C51    C     0.41347   0.63684   0.06696   0.00000  Uiso   1.00
C52    C     0.51662   0.04651   0.00170   0.00000  Uiso   1.00
C53    C     0.42848   0.97116   0.98527   0.00000  Uiso   1.00
C54    C     0.44536   0.95906   0.95227   0.00000  Uiso   1.00
C55    C     0.43051   0.90900   0.89865   0.00000  Uiso   1.00
C56    C     0.64749   0.03045   0.05011   0.00000  Uiso   1.00
C57    C     0.66939   0.94158   0.07436   0.00000  Uiso   1.00
C58    C     0.79647   0.91595   0.08212   0.00000  Uiso   1.00
C59    C     0.98481   0.84096   0.10366   0.00000  Uiso   1.00
C60    C     0.70297   0.18521   0.00842   0.00000  Uiso   1.00
C61    C     0.61403   0.27943   0.02549   0.00000  Uiso   1.00
C62    C     0.62768   0.41193   0.02592   0.00000  Uiso   1.00
C63    C     0.53620   0.48126   0.04290   0.00000  Uiso   1.00
C64    C     0.61803   0.10759   0.98575   0.00000  Uiso   1.00
C65    C     0.63506   0.09560   0.95277   0.00000  Uiso   1.00
C66    C     0.54696   0.02026   0.93629   0.00000  Uiso   1.00
C67    C     0.74891   0.09155   0.03415   0.00000  Uiso   1.00
C68    C     0.87597   0.06603   0.04187   0.00000  Uiso   1.00
C69    C     0.89807   0.97714   0.06614   0.00000  Uiso   1.00
H70    H     0.43730   0.02517   0.05021   0.00000  Uiso   1.00
H71    H     0.34262   0.24017   0.07076   0.00000  Uiso   1.00
H72    H     0.35001   0.92388   0.99762   0.00000  Uiso   1.00
H73    H     0.59089   0.89432   0.08670   0.00000  Uiso   1.00
H74    H     0.28235   0.50548   0.08650   0.00000  Uiso   1.00
H75    H     0.29796   0.83854   0.93227   0.00000  Uiso   1.00
H76    H     0.80589   0.77619   0.12013   0.00000  Uiso   1.00
H77    H     0.78193   0.23278   0.99600   0.00000  Uiso   1.00
H78    H     0.70617   0.45918   0.01357   0.00000  Uiso   1.00
H79    H     0.71355   0.14288   0.94043   0.00000  Uiso   1.00
H80    H     0.95443   0.11332   0.02952   0.00000  Uiso   1.00
H81    H     0.57741   0.68323   0.04008   0.00000  Uiso   1.00
H82    H     0.59302   0.01628   0.88586   0.00000  Uiso   1.00
H83    H     0.10096   0.95395   0.07371   0.00000  Uiso   1.00
O84    O     0.37380   0.73955   0.07582   0.00000  Uiso   1.00
O85    O     0.39429   0.86452   0.87349   0.00000  Uiso   1.00
O86    O     0.06068   0.78274   0.11995   0.00000  Uiso   1.00
N87    N     0.36220   0.51624   0.07317   0.00000  Uiso   1.00
N88    N     0.37679   0.89270   0.92898   0.00000  Uiso   1.00
N89    N     0.85166   0.83440   0.10460   0.00000  Uiso   1.00
N90    N     0.52098   0.61189   0.04819   0.00000  Uiso   1.00
N91    N     0.53556   0.98835   0.90400   0.00000  Uiso   1.00
N92    N     0.01044   0.93004   0.07962   0.00000  Uiso   1.00
C93    C     0.57274   0.98374   0.28779   0.00000  Uiso   1.00
C94    C     0.71834   0.98739   0.29144   0.00000  Uiso   1.00
C95    C     0.78748   0.07890   0.30842   0.00000  Uiso   1.00
C96    C     0.92005   0.06540   0.30888   0.00000  Uiso   1.00
C97    C     0.13684   0.08653   0.31696   0.00000  Uiso   1.00
C98    C     0.54651   0.98338   0.25170   0.00000  Uiso   1.00
C99    C     0.47116   0.07152   0.23527   0.00000  Uiso   1.00
C100   C     0.45906   0.05464   0.20227   0.00000  Uiso   1.00
C101   C     0.40900   0.06949   0.14865   0.00000  Uiso   1.00
C102   C     0.53045   0.85251   0.30011   0.00000  Uiso   1.00
C103   C     0.44158   0.83061   0.32436   0.00000  Uiso   1.00
C104   C     0.41595   0.70353   0.33212   0.00000  Uiso   1.00
C105   C     0.34096   0.51519   0.35366   0.00000  Uiso   1.00
C106   C     0.68521   0.79703   0.25842   0.00000  Uiso   1.00
C107   C     0.77943   0.88597   0.27549   0.00000  Uiso   1.00
C108   C     0.91193   0.87232   0.27592   0.00000  Uiso   1.00
C109   C     0.98126   0.96380   0.29290   0.00000  Uiso   1.00
C110   C     0.60759   0.88197   0.23575   0.00000  Uiso   1.00
C111   C     0.59560   0.86494   0.20277   0.00000  Uiso   1.00
C112   C     0.52026   0.95304   0.18629   0.00000  Uiso   1.00
C113   C     0.59155   0.75109   0.28415   0.00000  Uiso   1.00
C114   C     0.56603   0.62403   0.29187   0.00000  Uiso   1.00
C115   C     0.47714   0.60193   0.31614   0.00000  Uiso   1.00
H116   H     0.52517   0.06270   0.30021   0.00000  Uiso   1.00
H117   H     0.74017   0.15738   0.32076   0.00000  Uiso   1.00
H118   H     0.42388   0.14999   0.24762   0.00000  Uiso   1.00
H119   H     0.39432   0.90911   0.33670   0.00000  Uiso   1.00
H120   H     0.00548   0.21765   0.33650   0.00000  Uiso   1.00
H121   H     0.33854   0.20204   0.18227   0.00000  Uiso   1.00
H122   H     0.27619   0.69411   0.37013   0.00000  Uiso   1.00
H123   H     0.73278   0.71807   0.24600   0.00000  Uiso   1.00
H124   H     0.95918   0.79383   0.26357   0.00000  Uiso   1.00
H125   H     0.64288   0.78645   0.19043   0.00000  Uiso   1.00
H126   H     0.61332   0.54557   0.27952   0.00000  Uiso   1.00
H127   H     0.18323   0.92259   0.29008   0.00000  Uiso   1.00
H128   H     0.51628   0.90698   0.13586   0.00000  Uiso   1.00
H129   H     0.45395   0.39904   0.32371   0.00000  Uiso   1.00
O130   O     0.23955   0.12620   0.32582   0.00000  Uiso   1.00
O131   O     0.36452   0.10571   0.12349   0.00000  Uiso   1.00
O132   O     0.28274   0.43932   0.36995   0.00000  Uiso   1.00
N133   N     0.01624   0.13780   0.32317   0.00000  Uiso   1.00
N134   N     0.39270   0.12321   0.17898   0.00000  Uiso   1.00
N135   N     0.33440   0.64834   0.35460   0.00000  Uiso   1.00
N136   N     0.11189   0.97902   0.29819   0.00000  Uiso   1.00
N137   N     0.48835   0.96444   0.15400   0.00000  Uiso   1.00
N138   N     0.43004   0.48956   0.32962   0.00000  Uiso   1.00
C139   C     0.42726   0.01626   0.78779   0.00000  Uiso   1.00
C140   C     0.28166   0.01261   0.79144   0.00000  Uiso   1.00
C141   C     0.21252   0.92110   0.80842   0.00000  Uiso   1.00
C142   C     0.07995   0.93460   0.80888   0.00000  Uiso   1.00
C143   C     0.86316   0.91347   0.81696   0.00000  Uiso   1.00
C144   C     0.45349   0.01662   0.75170   0.00000  Uiso   1.00
C145   C     0.52884   0.92848   0.73527   0.00000  Uiso   1.00
C146   C     0.54094   0.94536   0.70227   0.00000  Uiso   1.00
C147   C     0.59100   0.93051   0.64865   0.00000  Uiso   1.00
C148   C     0.46955   0.14749   0.80011   0.00000  Uiso   1.00
C149   C     0.55842   0.16939   0.82436   0.00000  Uiso   1.00
C150   C     0.58405   0.29647   0.83212   0.00000  Uiso   1.00
C151   C     0.65904   0.48481   0.85366   0.00000  Uiso   1.00
C152   C     0.31479   0.20297   0.75842   0.00000  Uiso   1.00
C153   C     0.22057   0.11403   0.77549   0.00000  Uiso   1.00
C154   C     0.08807   0.12768   0.77592   0.00000  Uiso   1.00
C155   C     0.01874   0.03620   0.79290   0.00000  Uiso   1.00
C156   C     0.39241   0.11803   0.73575   0.00000  Uiso   1.00
C157   C     0.40440   0.13506   0.70277   0.00000  Uiso   1.00
C158   C     0.47974   0.04696   0.68629   0.00000  Uiso   1.00
C159   C     0.40845   0.24891   0.78415   0.00000  Uiso   1.00
C160   C     0.43397   0.37597   0.79187   0.00000  Uiso   1.00
C161   C     0.52286   0.39807   0.81614   0.00000  Uiso   1.00
H162   H     0.47483   0.93730   0.80021   0.00000  Uiso   1.00
H163   H     0.25983   0.84262   0.82076   0.00000  Uiso   1.00
H164   H     0.57612   0.85001   0.74762   0.00000  Uiso   1.00
H165   H     0.60568   0.09089   0.83670   0.00000  Uiso   1.00
H166   H     0.99452   0.78235   0.83650   0.00000  Uiso   1.00
H167   H     0.66146   0.79796   0.68227   0.00000  Uiso   1.00
H168   H     0.72381   0.30589   0.87013   0.00000  Uiso   1.00
H169   H     0.26722   0.28193   0.74600   0.00000  Uiso   1.00
H170   H     0.04082   0.20617   0.76357   0.00000  Uiso   1.00
H171   H     0.35712   0.21355   0.69043   0.00000  Uiso   1.00
H172   H     0.38668   0.45443   0.77952   0.00000  Uiso   1.00
H173   H     0.81677   0.07741   0.79008   0.00000  Uiso   1.00
H174   H     0.48372   0.09302   0.63586   0.00000  Uiso   1.00
H175   H     0.54605   0.60096   0.82371   0.00000  Uiso   1.00
O176   O     0.76045   0.87380   0.82582   0.00000  Uiso   1.00
O177   O     0.63548   0.89429   0.62349   0.00000  Uiso   1.00
O178   O     0.71726   0.56068   0.86995   0.00000  Uiso   1.00
N179   N     0.98376   0.86220   0.82317   0.00000  Uiso   1.00
N180   N     0.60730   0.87679   0.67898   0.00000  Uiso   1.00
N181   N     0.66560   0.35166   0.85460   0.00000  Uiso   1.00
N182   N     0.88811   0.02098   0.79819   0.00000  Uiso   1.00
N183   N     0.51165   0.03556   0.65400   0.00000  Uiso   1.00
N184   N     0.56996   0.51044   0.82962   0.00000  Uiso   1.00
C185   C     0.01626   0.42726   0.21221   0.00000  Uiso   1.00
C186   C     0.01261   0.28166   0.20856   0.00000  Uiso   1.00
C187   C     0.92110   0.21252   0.19158   0.00000  Uiso   1.00
C188   C     0.93460   0.07995   0.19112   0.00000  Uiso   1.00
C189   C     0.91347   0.86316   0.18304   0.00000  Uiso   1.00
C190   C     0.01662   0.45349   0.24830   0.00000  Uiso   1.00
C191   C     0.92848   0.52884   0.26473   0.00000  Uiso   1.00
C192   C     0.94536   0.54094   0.29773   0.00000  Uiso   1.00
C193   C     0.93051   0.59100   0.35135   0.00000  Uiso   1.00
C194   C     0.14749   0.46955   0.19989   0.00000  Uiso   1.00
C195   C     0.16939   0.55842   0.17564   0.00000  Uiso   1.00
C196   C     0.29647   0.58405   0.16788   0.00000  Uiso   1.00
C197   C     0.48481   0.65904   0.14634   0.00000  Uiso   1.00
C198   C     0.20297   0.31479   0.24158   0.00000  Uiso   1.00
C199   C     0.11403   0.22057   0.22451   0.00000  Uiso   1.00
C200   C     0.12768   0.08807   0.22408   0.00000  Uiso   1.00
C201   C     0.03620   0.01874   0.20710   0.00000  Uiso   1.00
C202   C     0.11803   0.39241   0.26425   0.00000  Uiso   1.00
C203   C     0.13506   0.40440   0.29723   0.00000  Uiso   1.00
C204   C     0.04696   0.47974   0.31371   0.00000  Uiso   1.00
C205   C     0.24891   0.40845   0.21585   0.00000  Uiso   1.00
C206   C     0.37597   0.43397   0.20813   0.00000  Uiso   1.00
C207   C     0.39807   0.52286   0.18386   0.00000  Uiso   1.00
H208   H     0.93730   0.47483   0.19979   0.00000  Uiso   1.00
H209   H     0.84262   0.25983   0.17924   0.00000  Uiso   1.00
H210   H     0.85001   0.57612   0.25238   0.00000  Uiso   1.00
H211   H     0.09089   0.60568   0.16330   0.00000  Uiso   1.00
H212   H     0.78235   0.99452   0.16350   0.00000  Uiso   1.00
H213   H     0.79796   0.66146   0.31773   0.00000  Uiso   1.00
H214   H     0.30589   0.72381   0.12987   0.00000  Uiso   1.00
H215   H     0.28193   0.26722   0.25400   0.00000  Uiso   1.00
H216   H     0.20617   0.04082   0.23643   0.00000  Uiso   1.00
H217   H     0.21355   0.35712   0.30957   0.00000  Uiso   1.00
H218   H     0.45443   0.38668   0.22048   0.00000  Uiso   1.00
H219   H     0.07741   0.81677   0.20992   0.00000  Uiso   1.00
H220   H     0.09302   0.48372   0.36414   0.00000  Uiso   1.00
H221   H     0.60096   0.54605   0.17629   0.00000  Uiso   1.00
O222   O     0.87380   0.76045   0.17418   0.00000  Uiso   1.00
O223   O     0.89429   0.63548   0.37651   0.00000  Uiso   1.00
O224   O     0.56068   0.71726   0.13005   0.00000  Uiso   1.00
N225   N     0.86220   0.98376   0.17683   0.00000  Uiso   1.00
N226   N     0.87679   0.60730   0.32102   0.00000  Uiso   1.00
N227   N     0.35166   0.66560   0.14540   0.00000  Uiso   1.00
N228   N     0.02098   0.88811   0.20181   0.00000  Uiso   1.00
N229   N     0.03556   0.51165   0.34600   0.00000  Uiso   1.00
N230   N     0.51044   0.56996   0.17038   0.00000  Uiso   1.00
C231   C     0.98374   0.57274   0.71221   0.00000  Uiso   1.00
C232   C     0.98739   0.71834   0.70856   0.00000  Uiso   1.00
C233   C     0.07890   0.78748   0.69158   0.00000  Uiso   1.00
C234   C     0.06540   0.92005   0.69112   0.00000  Uiso   1.00
C235   C     0.08653   0.13684   0.68304   0.00000  Uiso   1.00
C236   C     0.98338   0.54651   0.74830   0.00000  Uiso   1.00
C237   C     0.07152   0.47116   0.76473   0.00000  Uiso   1.00
C238   C     0.05464   0.45906   0.79773   0.00000  Uiso   1.00
C239   C     0.06949   0.40900   0.85135   0.00000  Uiso   1.00
C240   C     0.85251   0.53045   0.69989   0.00000  Uiso   1.00
C241   C     0.83061   0.44158   0.67564   0.00000  Uiso   1.00
C242   C     0.70353   0.41595   0.66788   0.00000  Uiso   1.00
C243   C     0.51519   0.34096   0.64634   0.00000  Uiso   1.00
C244   C     0.79703   0.68521   0.74158   0.00000  Uiso   1.00
C245   C     0.88597   0.77943   0.72451   0.00000  Uiso   1.00
C246   C     0.87232   0.91193   0.72408   0.00000  Uiso   1.00
C247   C     0.96380   0.98126   0.70710   0.00000  Uiso   1.00
C248   C     0.88197   0.60759   0.76425   0.00000  Uiso   1.00
C249   C     0.86494   0.59560   0.79723   0.00000  Uiso   1.00
C250   C     0.95304   0.52026   0.81371   0.00000  Uiso   1.00
C251   C     0.75109   0.59155   0.71585   0.00000  Uiso   1.00
C252   C     0.62403   0.56603   0.70813   0.00000  Uiso   1.00
C253   C     0.60193   0.47714   0.68386   0.00000  Uiso   1.00
H254   H     0.06270   0.52517   0.69979   0.00000  Uiso   1.00
H255   H     0.15738   0.74017   0.67924   0.00000  Uiso   1.00
H256   H     0.14999   0.42388   0.75238   0.00000  Uiso   1.00
H257   H     0.90911   0.39432   0.66330   0.00000  Uiso   1.00
H258   H     0.21765   0.00548   0.66350   0.00000  Uiso   1.00
H259   H     0.20204   0.33854   0.81773   0.00000  Uiso   1.00
H260   H     0.69411   0.27619   0.62987   0.00000  Uiso   1.00
H261   H     0.71807   0.73278   0.75400   0.00000  Uiso   1.00
H262   H     0.79383   0.95918   0.73643   0.00000  Uiso   1.00
H263   H     0.78645   0.64288   0.80957   0.00000  Uiso   1.00
H264   H     0.54557   0.61332   0.72048   0.00000  Uiso   1.00
H265   H     0.92259   0.18323   0.70992   0.00000  Uiso   1.00
H266   H     0.90698   0.51628   0.86414   0.00000  Uiso   1.00
H267   H     0.39904   0.45395   0.67629   0.00000  Uiso   1.00
O268   O     0.12620   0.23955   0.67418   0.00000  Uiso   1.00
O269   O     0.10571   0.36452   0.87651   0.00000  Uiso   1.00
O270   O     0.43932   0.28274   0.63005   0.00000  Uiso   1.00
N271   N     0.13780   0.01624   0.67683   0.00000  Uiso   1.00
N272   N     0.12321   0.39270   0.82102   0.00000  Uiso   1.00
N273   N     0.64834   0.33440   0.64540   0.00000  Uiso   1.00
N274   N     0.97902   0.11189   0.70181   0.00000  Uiso   1.00
N275   N     0.96444   0.48835   0.84600   0.00000  Uiso   1.00
N276   N     0.48956   0.43004   0.67038   0.00000  Uiso   1.00
C277   C     0.92726   0.48374   0.46221   0.00000  Uiso   1.00
C278   C     0.78166   0.48739   0.45856   0.00000  Uiso   1.00
C279   C     0.71252   0.57890   0.44158   0.00000  Uiso   1.00
C280   C     0.57995   0.56540   0.44112   0.00000  Uiso   1.00
C281   C     0.36316   0.58653   0.43304   0.00000  Uiso   1.00
C282   C     0.95349   0.48338   0.49830   0.00000  Uiso   1.00
C283   C     0.02884   0.57152   0.51473   0.00000  Uiso   1.00
C284   C     0.04094   0.55464   0.54773   0.00000  Uiso   1.00
C285   C     0.09100   0.56949   0.60135   0.00000  Uiso   1.00
C286   C     0.96955   0.35251   0.44989   0.00000  Uiso   1.00
C287   C     0.05842   0.33061   0.42564   0.00000  Uiso   1.00
C288   C     0.08405   0.20353   0.41788   0.00000  Uiso   1.00
C289   C     0.15904   0.01519   0.39634   0.00000  Uiso   1.00
C290   C     0.81479   0.29703   0.49158   0.00000  Uiso   1.00
C291   C     0.72057   0.38597   0.47451   0.00000  Uiso   1.00
C292   C     0.58807   0.37232   0.47408   0.00000  Uiso   1.00
C293   C     0.51874   0.46380   0.45710   0.00000  Uiso   1.00
C294   C     0.89241   0.38197   0.51425   0.00000  Uiso   1.00
C295   C     0.90440   0.36494   0.54723   0.00000  Uiso   1.00
C296   C     0.97974   0.45304   0.56371   0.00000  Uiso   1.00
C297   C     0.90845   0.25109   0.46585   0.00000  Uiso   1.00
C298   C     0.93397   0.12403   0.45813   0.00000  Uiso   1.00
C299   C     0.02286   0.10193   0.43386   0.00000  Uiso   1.00
H300   H     0.97483   0.56270   0.44979   0.00000  Uiso   1.00
H301   H     0.75983   0.65738   0.42924   0.00000  Uiso   1.00
H302   H     0.07612   0.64999   0.50238   0.00000  Uiso   1.00
H303   H     0.10568   0.40911   0.41330   0.00000  Uiso   1.00
H304   H     0.49452   0.71765   0.41350   0.00000  Uiso   1.00
H305   H     0.16146   0.70204   0.56773   0.00000  Uiso   1.00
H306   H     0.22381   0.19411   0.37987   0.00000  Uiso   1.00
H307   H     0.76722   0.21807   0.50400   0.00000  Uiso   1.00
H308   H     0.54082   0.29383   0.48643   0.00000  Uiso   1.00
H309   H     0.85712   0.28645   0.55957   0.00000  Uiso   1.00
H310   H     0.88668   0.04557   0.47048   0.00000  Uiso   1.00
H311   H     0.31677   0.42259   0.45992   0.00000  Uiso   1.00
H312   H     0.98372   0.40698   0.61414   0.00000  Uiso   1.00
H313   H     0.04605   0.89904   0.42629   0.00000  Uiso   1.00
O314   O     0.26045   0.62620   0.42418   0.00000  Uiso   1.00
O315   O     0.13548   0.60571   0.62651   0.00000  Uiso   1.00
O316   O     0.21726   0.93932   0.38005   0.00000  Uiso   1.00
N317   N     0.48376   0.63780   0.42683   0.00000  Uiso   1.00
N318   N     0.10730   0.62321   0.57102   0.00000  Uiso   1.00
N319   N     0.16560   0.14834   0.39540   0.00000  Uiso   1.00
N320   N     0.38811   0.47902   0.45181   0.00000  Uiso   1.00
N321   N     0.01165   0.46444   0.59600   0.00000  Uiso   1.00
N322   N     0.06996   0.98956   0.42038   0.00000  Uiso   1.00
C323   C     0.07274   0.51626   0.96221   0.00000  Uiso   1.00
C324   C     0.21834   0.51261   0.95856   0.00000  Uiso   1.00
C325   C     0.28748   0.42110   0.94158   0.00000  Uiso   1.00
C326   C     0.42005   0.43460   0.94112   0.00000  Uiso   1.00
C327   C     0.63684   0.41347   0.93304   0.00000  Uiso   1.00
C328   C     0.04651   0.51662   0.99830   0.00000  Uiso   1.00
C329   C     0.97116   0.42848   0.01473   0.00000  Uiso   1.00
C330   C     0.95906   0.44536   0.04773   0.00000  Uiso   1.00
C331   C     0.90900   0.43051   0.10135   0.00000  Uiso   1.00
C332   C     0.03045   0.64749   0.94989   0.00000  Uiso   1.00
C333   C     0.94158   0.66939   0.92564   0.00000  Uiso   1.00
C334   C     0.91595   0.79647   0.91788   0.00000  Uiso   1.00
C335   C     0.84096   0.98481   0.89634   0.00000  Uiso   1.00
C336   C     0.18521   0.70297   0.99158   0.00000  Uiso   1.00
C337   C     0.27943   0.61403   0.97451   0.00000  Uiso   1.00
C338   C     0.41193   0.62768   0.97408   0.00000  Uiso   1.00
C339   C     0.48126   0.53620   0.95710   0.00000  Uiso   1.00
C340   C     0.10759   0.61803   0.01425   0.00000  Uiso   1.00
C341   C     0.09560   0.63506   0.04723   0.00000  Uiso   1.00
C342   C     0.02026   0.54696   0.06371   0.00000  Uiso   1.00
C343   C     0.09155   0.74891   0.96585   0.00000  Uiso   1.00
C344   C     0.06603   0.87597   0.95813   0.00000  Uiso   1.00
C345   C     0.97714   0.89807   0.93386   0.00000  Uiso   1.00
H346   H     0.02517   0.43730   0.94979   0.00000  Uiso   1.00
H347   H     0.24017   0.34262   0.92924   0.00000  Uiso   1.00
H348   H     0.92388   0.35001   0.00238   0.00000  Uiso   1.00
H349   H     0.89432   0.59089   0.91330   0.00000  Uiso   1.00
H350   H     0.50548   0.28235   0.91350   0.00000  Uiso   1.00
H351   H     0.83854   0.29796   0.06773   0.00000  Uiso   1.00
H352   H     0.77619   0.80589   0.87987   0.00000  Uiso   1.00
H353   H     0.23278   0.78193   0.00400   0.00000  Uiso   1.00
H354   H     0.45918   0.70617   0.98643   0.00000  Uiso   1.00
H355   H     0.14288   0.71355   0.05957   0.00000  Uiso   1.00
H356   H     0.11332   0.95443   0.97048   0.00000  Uiso   1.00
H357   H     0.68323   0.57741   0.95992   0.00000  Uiso   1.00
H358   H     0.01628   0.59302   0.11414   0.00000  Uiso   1.00
H359   H     0.95395   0.10096   0.92629   0.00000  Uiso   1.00
O360   O     0.73955   0.37380   0.92418   0.00000  Uiso   1.00
O361   O     0.86452   0.39429   0.12651   0.00000  Uiso   1.00
O362   O     0.78274   0.06068   0.88005   0.00000  Uiso   1.00
N363   N     0.51624   0.36220   0.92683   0.00000  Uiso   1.00
N364   N     0.89270   0.37679   0.07102   0.00000  Uiso   1.00
N365   N     0.83440   0.85166   0.89540   0.00000  Uiso   1.00
N366   N     0.61189   0.52098   0.95181   0.00000  Uiso   1.00
N367   N     0.98835   0.53556   0.09600   0.00000  Uiso   1.00
N368   N     0.93004   0.01044   0.92038   0.00000  Uiso   1.00
