data_job_01403
_audit_creation_date              2018-12-19
_audit_creation_method            'Materials Studio'
_symmetry_space_group_name_H-M    'P1'
_symmetry_Int_Tables_number       1
_symmetry_cell_setting            triclinic
loop_
_symmetry_equiv_pos_as_xyz
  x,y,z
_cell_length_a                    20.3455
_cell_length_b                    17.9225
_cell_length_c                    13.6414
_cell_angle_alpha                 90.0000
_cell_angle_beta                  90.0000
_cell_angle_gamma                 90.0000
loop_
_atom_site_label
_atom_site_type_symbol
_atom_site_fract_x
_atom_site_fract_y
_atom_site_fract_z
_atom_site_U_iso_or_equiv
_atom_site_adp_type
_atom_site_occupancy
C1     C     0.23238   0.76104   0.32856   0.00000  Uiso   1.00
C2     C     0.18324   0.75865   0.41291   0.00000  Uiso   1.00
C3     C     0.11696   0.77628   0.40663   0.00000  Uiso   1.00
C4     C     0.08027   0.77060   0.49212   0.00000  Uiso   1.00
C5     C     0.99963   0.77035   0.60965   0.00000  Uiso   1.00
C6     C     0.28755   0.81283   0.36166   0.00000  Uiso   1.00
C7     C     0.30897   0.87601   0.31227   0.00000  Uiso   1.00
C8     C     0.36010   0.91593   0.35462   0.00000  Uiso   1.00
C9     C     0.44142   0.99977   0.39253   0.00000  Uiso   1.00
C10    C     0.26247   0.68324   0.32282   0.00000  Uiso   1.00
C11    C     0.26283   0.63747   0.24076   0.00000  Uiso   1.00
C12    C     0.29287   0.56829   0.25040   0.00000  Uiso   1.00
C13    C     0.33526   0.45093   0.22800   0.00000  Uiso   1.00
C14    C     0.28510   0.71959   0.49158   0.00000  Uiso   1.00
C15    C     0.21188   0.73614   0.50146   0.00000  Uiso   1.00
C16    C     0.17528   0.73042   0.58699   0.00000  Uiso   1.00
C17    C     0.10896   0.74804   0.58082   0.00000  Uiso   1.00
C18    C     0.31618   0.79032   0.45020   0.00000  Uiso   1.00
C19    C     0.36730   0.83015   0.49263   0.00000  Uiso   1.00
C20    C     0.38879   0.89338   0.44332   0.00000  Uiso   1.00
C21    C     0.29111   0.66073   0.41136   0.00000  Uiso   1.00
C22    C     0.32116   0.59161   0.42112   0.00000  Uiso   1.00
C23    C     0.32156   0.54574   0.33910   0.00000  Uiso   1.00
H24    H     0.21009   0.77857   0.25962   0.00000  Uiso   1.00
H25    H     0.09481   0.79371   0.33809   0.00000  Uiso   1.00
H26    H     0.28680   0.89342   0.24375   0.00000  Uiso   1.00
H27    H     0.24067   0.65491   0.17225   0.00000  Uiso   1.00
H28    H     0.97965   0.80059   0.46414   0.00000  Uiso   1.00
H29    H     0.38448   0.01081   0.26519   0.00000  Uiso   1.00
H30    H     0.28720   0.50788   0.11443   0.00000  Uiso   1.00
H31    H     0.30740   0.70206   0.56051   0.00000  Uiso   1.00
H32    H     0.19746   0.71300   0.65550   0.00000  Uiso   1.00
H33    H     0.38945   0.81271   0.56115   0.00000  Uiso   1.00
H34    H     0.34331   0.57421   0.48965   0.00000  Uiso   1.00
H35    H     0.06296   0.73509   0.72176   0.00000  Uiso   1.00
H36    H     0.46779   0.94531   0.52281   0.00000  Uiso   1.00
H37    H     0.37051   0.44238   0.37205   0.00000  Uiso   1.00
O38    O     0.94723   0.77644   0.65001   0.00000  Uiso   1.00
O39    O     0.47836   0.05224   0.38899   0.00000  Uiso   1.00
O40    O     0.35073   0.39240   0.19119   0.00000  Uiso   1.00
N41    N     0.01434   0.78366   0.51173   0.00000  Uiso   1.00
N42    N     0.39282   0.98021   0.32574   0.00000  Uiso   1.00
N43    N     0.30189   0.51002   0.18478   0.00000  Uiso   1.00
N44    N     0.05917   0.74841   0.65036   0.00000  Uiso   1.00
N45    N     0.43765   0.94497   0.46436   0.00000  Uiso   1.00
N46    N     0.34672   0.47477   0.32340   0.00000  Uiso   1.00
C47    C     0.26762   0.73896   0.82856   0.00000  Uiso   1.00
C48    C     0.31676   0.74135   0.91291   0.00000  Uiso   1.00
C49    C     0.38304   0.72372   0.90663   0.00000  Uiso   1.00
C50    C     0.41973   0.72940   0.99212   0.00000  Uiso   1.00
C51    C     0.50037   0.72965   0.10965   0.00000  Uiso   1.00
C52    C     0.21245   0.68717   0.86166   0.00000  Uiso   1.00
C53    C     0.19103   0.62399   0.81227   0.00000  Uiso   1.00
C54    C     0.13990   0.58407   0.85462   0.00000  Uiso   1.00
C55    C     0.05858   0.50023   0.89253   0.00000  Uiso   1.00
C56    C     0.23753   0.81676   0.82282   0.00000  Uiso   1.00
C57    C     0.23717   0.86253   0.74076   0.00000  Uiso   1.00
C58    C     0.20713   0.93171   0.75040   0.00000  Uiso   1.00
C59    C     0.16474   0.04907   0.72800   0.00000  Uiso   1.00
C60    C     0.21490   0.78041   0.99158   0.00000  Uiso   1.00
C61    C     0.28812   0.76386   0.00146   0.00000  Uiso   1.00
C62    C     0.32472   0.76958   0.08699   0.00000  Uiso   1.00
C63    C     0.39104   0.75196   0.08082   0.00000  Uiso   1.00
C64    C     0.18382   0.70968   0.95020   0.00000  Uiso   1.00
C65    C     0.13270   0.66985   0.99263   0.00000  Uiso   1.00
C66    C     0.11121   0.60662   0.94332   0.00000  Uiso   1.00
C67    C     0.20889   0.83927   0.91136   0.00000  Uiso   1.00
C68    C     0.17884   0.90839   0.92112   0.00000  Uiso   1.00
C69    C     0.17844   0.95426   0.83910   0.00000  Uiso   1.00
H70    H     0.28991   0.72143   0.75962   0.00000  Uiso   1.00
H71    H     0.40519   0.70629   0.83809   0.00000  Uiso   1.00
H72    H     0.21320   0.60658   0.74375   0.00000  Uiso   1.00
H73    H     0.25933   0.84509   0.67225   0.00000  Uiso   1.00
H74    H     0.52035   0.69941   0.96414   0.00000  Uiso   1.00
H75    H     0.11552   0.48919   0.76519   0.00000  Uiso   1.00
H76    H     0.21280   0.99212   0.61443   0.00000  Uiso   1.00
H77    H     0.19260   0.79794   0.06051   0.00000  Uiso   1.00
H78    H     0.30254   0.78700   0.15550   0.00000  Uiso   1.00
H79    H     0.11055   0.68729   0.06115   0.00000  Uiso   1.00
H80    H     0.15669   0.92579   0.98965   0.00000  Uiso   1.00
H81    H     0.43704   0.76491   0.22176   0.00000  Uiso   1.00
H82    H     0.03221   0.55469   0.02281   0.00000  Uiso   1.00
H83    H     0.12949   0.05762   0.87205   0.00000  Uiso   1.00
O84    O     0.55277   0.72356   0.15001   0.00000  Uiso   1.00
O85    O     0.02164   0.44776   0.88899   0.00000  Uiso   1.00
O86    O     0.14927   0.10760   0.69119   0.00000  Uiso   1.00
N87    N     0.48566   0.71634   0.01173   0.00000  Uiso   1.00
N88    N     0.10718   0.51979   0.82574   0.00000  Uiso   1.00
N89    N     0.19811   0.98998   0.68478   0.00000  Uiso   1.00
N90    N     0.44083   0.75159   0.15036   0.00000  Uiso   1.00
N91    N     0.06235   0.55503   0.96436   0.00000  Uiso   1.00
N92    N     0.15328   0.02523   0.82340   0.00000  Uiso   1.00
C93    C     0.76762   0.76104   0.17144   0.00000  Uiso   1.00
C94    C     0.81676   0.75865   0.08709   0.00000  Uiso   1.00
C95    C     0.88304   0.77628   0.09337   0.00000  Uiso   1.00
C96    C     0.91973   0.77060   0.00788   0.00000  Uiso   1.00
C97    C     0.00037   0.77035   0.89035   0.00000  Uiso   1.00
C98    C     0.71245   0.81283   0.13834   0.00000  Uiso   1.00
C99    C     0.69103   0.87601   0.18773   0.00000  Uiso   1.00
C100   C     0.63990   0.91593   0.14538   0.00000  Uiso   1.00
C101   C     0.55858   0.99977   0.10747   0.00000  Uiso   1.00
C102   C     0.73753   0.68324   0.17718   0.00000  Uiso   1.00
C103   C     0.73717   0.63747   0.25924   0.00000  Uiso   1.00
C104   C     0.70713   0.56829   0.24960   0.00000  Uiso   1.00
C105   C     0.66474   0.45093   0.27200   0.00000  Uiso   1.00
C106   C     0.71490   0.71959   0.00842   0.00000  Uiso   1.00
C107   C     0.78812   0.73614   0.99854   0.00000  Uiso   1.00
C108   C     0.82472   0.73042   0.91301   0.00000  Uiso   1.00
C109   C     0.89104   0.74804   0.91918   0.00000  Uiso   1.00
C110   C     0.68382   0.79032   0.04980   0.00000  Uiso   1.00
C111   C     0.63270   0.83015   0.00737   0.00000  Uiso   1.00
C112   C     0.61121   0.89338   0.05668   0.00000  Uiso   1.00
C113   C     0.70889   0.66073   0.08864   0.00000  Uiso   1.00
C114   C     0.67884   0.59161   0.07888   0.00000  Uiso   1.00
C115   C     0.67844   0.54574   0.16090   0.00000  Uiso   1.00
H116   H     0.78991   0.77857   0.24038   0.00000  Uiso   1.00
H117   H     0.90519   0.79371   0.16191   0.00000  Uiso   1.00
H118   H     0.71320   0.89342   0.25625   0.00000  Uiso   1.00
H119   H     0.75933   0.65491   0.32775   0.00000  Uiso   1.00
H120   H     0.02035   0.80059   0.03586   0.00000  Uiso   1.00
H121   H     0.61552   0.01081   0.23481   0.00000  Uiso   1.00
H122   H     0.71280   0.50788   0.38557   0.00000  Uiso   1.00
H123   H     0.69260   0.70206   0.93949   0.00000  Uiso   1.00
H124   H     0.80254   0.71300   0.84450   0.00000  Uiso   1.00
H125   H     0.61055   0.81271   0.93885   0.00000  Uiso   1.00
H126   H     0.65669   0.57421   0.01035   0.00000  Uiso   1.00
H127   H     0.93704   0.73509   0.77824   0.00000  Uiso   1.00
H128   H     0.53221   0.94531   0.97719   0.00000  Uiso   1.00
H129   H     0.62949   0.44238   0.12795   0.00000  Uiso   1.00
O130   O     0.05277   0.77644   0.84999   0.00000  Uiso   1.00
O131   O     0.52164   0.05224   0.11101   0.00000  Uiso   1.00
O132   O     0.64927   0.39240   0.30881   0.00000  Uiso   1.00
N133   N     0.98566   0.78366   0.98827   0.00000  Uiso   1.00
N134   N     0.60718   0.98021   0.17426   0.00000  Uiso   1.00
N135   N     0.69811   0.51002   0.31522   0.00000  Uiso   1.00
N136   N     0.94083   0.74841   0.84964   0.00000  Uiso   1.00
N137   N     0.56235   0.94497   0.03564   0.00000  Uiso   1.00
N138   N     0.65328   0.47477   0.17660   0.00000  Uiso   1.00
C139   C     0.73238   0.73896   0.67144   0.00000  Uiso   1.00
C140   C     0.68324   0.74135   0.58709   0.00000  Uiso   1.00
C141   C     0.61696   0.72372   0.59337   0.00000  Uiso   1.00
C142   C     0.58027   0.72940   0.50788   0.00000  Uiso   1.00
C143   C     0.49963   0.72965   0.39035   0.00000  Uiso   1.00
C144   C     0.78755   0.68717   0.63834   0.00000  Uiso   1.00
C145   C     0.80897   0.62399   0.68773   0.00000  Uiso   1.00
C146   C     0.86010   0.58407   0.64538   0.00000  Uiso   1.00
C147   C     0.94142   0.50023   0.60747   0.00000  Uiso   1.00
C148   C     0.76247   0.81676   0.67718   0.00000  Uiso   1.00
C149   C     0.76283   0.86253   0.75924   0.00000  Uiso   1.00
C150   C     0.79287   0.93171   0.74960   0.00000  Uiso   1.00
C151   C     0.83526   0.04907   0.77200   0.00000  Uiso   1.00
C152   C     0.78510   0.78041   0.50842   0.00000  Uiso   1.00
C153   C     0.71188   0.76386   0.49854   0.00000  Uiso   1.00
C154   C     0.67528   0.76958   0.41301   0.00000  Uiso   1.00
C155   C     0.60896   0.75196   0.41918   0.00000  Uiso   1.00
C156   C     0.81618   0.70968   0.54980   0.00000  Uiso   1.00
C157   C     0.86730   0.66985   0.50737   0.00000  Uiso   1.00
C158   C     0.88879   0.60662   0.55668   0.00000  Uiso   1.00
C159   C     0.79111   0.83927   0.58864   0.00000  Uiso   1.00
C160   C     0.82116   0.90839   0.57888   0.00000  Uiso   1.00
C161   C     0.82156   0.95426   0.66090   0.00000  Uiso   1.00
H162   H     0.71009   0.72143   0.74038   0.00000  Uiso   1.00
H163   H     0.59481   0.70629   0.66191   0.00000  Uiso   1.00
H164   H     0.78680   0.60658   0.75625   0.00000  Uiso   1.00
H165   H     0.74067   0.84509   0.82775   0.00000  Uiso   1.00
H166   H     0.47965   0.69941   0.53586   0.00000  Uiso   1.00
H167   H     0.88448   0.48919   0.73481   0.00000  Uiso   1.00
H168   H     0.78720   0.99212   0.88557   0.00000  Uiso   1.00
H169   H     0.80740   0.79794   0.43949   0.00000  Uiso   1.00
H170   H     0.69746   0.78700   0.34450   0.00000  Uiso   1.00
H171   H     0.88945   0.68729   0.43885   0.00000  Uiso   1.00
H172   H     0.84331   0.92579   0.51035   0.00000  Uiso   1.00
H173   H     0.56296   0.76491   0.27824   0.00000  Uiso   1.00
H174   H     0.96779   0.55469   0.47719   0.00000  Uiso   1.00
H175   H     0.87051   0.05762   0.62795   0.00000  Uiso   1.00
O176   O     0.44723   0.72356   0.34999   0.00000  Uiso   1.00
O177   O     0.97836   0.44776   0.61101   0.00000  Uiso   1.00
O178   O     0.85073   0.10760   0.80881   0.00000  Uiso   1.00
N179   N     0.51434   0.71634   0.48827   0.00000  Uiso   1.00
N180   N     0.89282   0.51979   0.67426   0.00000  Uiso   1.00
N181   N     0.80189   0.98998   0.81522   0.00000  Uiso   1.00
N182   N     0.55917   0.75159   0.34964   0.00000  Uiso   1.00
N183   N     0.93765   0.55503   0.53564   0.00000  Uiso   1.00
N184   N     0.84672   0.02523   0.67660   0.00000  Uiso   1.00
C185   C     0.76762   0.23896   0.67144   0.00000  Uiso   1.00
C186   C     0.81676   0.24135   0.58709   0.00000  Uiso   1.00
C187   C     0.88304   0.22372   0.59337   0.00000  Uiso   1.00
C188   C     0.91973   0.22940   0.50788   0.00000  Uiso   1.00
C189   C     0.00037   0.22965   0.39035   0.00000  Uiso   1.00
C190   C     0.71245   0.18717   0.63834   0.00000  Uiso   1.00
C191   C     0.69103   0.12399   0.68773   0.00000  Uiso   1.00
C192   C     0.63990   0.08407   0.64538   0.00000  Uiso   1.00
C193   C     0.55858   0.00023   0.60747   0.00000  Uiso   1.00
C194   C     0.73753   0.31676   0.67718   0.00000  Uiso   1.00
C195   C     0.73717   0.36253   0.75924   0.00000  Uiso   1.00
C196   C     0.70713   0.43171   0.74960   0.00000  Uiso   1.00
C197   C     0.66474   0.54907   0.77200   0.00000  Uiso   1.00
C198   C     0.71490   0.28041   0.50842   0.00000  Uiso   1.00
C199   C     0.78812   0.26386   0.49854   0.00000  Uiso   1.00
C200   C     0.82472   0.26958   0.41301   0.00000  Uiso   1.00
C201   C     0.89104   0.25196   0.41918   0.00000  Uiso   1.00
C202   C     0.68382   0.20968   0.54980   0.00000  Uiso   1.00
C203   C     0.63270   0.16985   0.50737   0.00000  Uiso   1.00
C204   C     0.61121   0.10662   0.55668   0.00000  Uiso   1.00
C205   C     0.70889   0.33927   0.58864   0.00000  Uiso   1.00
C206   C     0.67884   0.40839   0.57888   0.00000  Uiso   1.00
C207   C     0.67844   0.45426   0.66090   0.00000  Uiso   1.00
H208   H     0.78991   0.22143   0.74038   0.00000  Uiso   1.00
H209   H     0.90519   0.20629   0.66191   0.00000  Uiso   1.00
H210   H     0.71320   0.10658   0.75625   0.00000  Uiso   1.00
H211   H     0.75933   0.34509   0.82775   0.00000  Uiso   1.00
H212   H     0.02035   0.19941   0.53586   0.00000  Uiso   1.00
H213   H     0.61552   0.98919   0.73481   0.00000  Uiso   1.00
H214   H     0.71280   0.49212   0.88557   0.00000  Uiso   1.00
H215   H     0.69260   0.29794   0.43949   0.00000  Uiso   1.00
H216   H     0.80254   0.28700   0.34450   0.00000  Uiso   1.00
H217   H     0.61055   0.18729   0.43885   0.00000  Uiso   1.00
H218   H     0.65669   0.42579   0.51035   0.00000  Uiso   1.00
H219   H     0.93704   0.26491   0.27824   0.00000  Uiso   1.00
H220   H     0.53221   0.05469   0.47719   0.00000  Uiso   1.00
H221   H     0.62949   0.55762   0.62795   0.00000  Uiso   1.00
O222   O     0.05277   0.22356   0.34999   0.00000  Uiso   1.00
O223   O     0.52164   0.94776   0.61101   0.00000  Uiso   1.00
O224   O     0.64927   0.60760   0.80881   0.00000  Uiso   1.00
N225   N     0.98566   0.21634   0.48827   0.00000  Uiso   1.00
N226   N     0.60718   0.01979   0.67426   0.00000  Uiso   1.00
N227   N     0.69811   0.48998   0.81522   0.00000  Uiso   1.00
N228   N     0.94083   0.25159   0.34964   0.00000  Uiso   1.00
N229   N     0.56235   0.05503   0.53564   0.00000  Uiso   1.00
N230   N     0.65328   0.52523   0.67660   0.00000  Uiso   1.00
C231   C     0.73238   0.26104   0.17144   0.00000  Uiso   1.00
C232   C     0.68324   0.25865   0.08709   0.00000  Uiso   1.00
C233   C     0.61696   0.27628   0.09337   0.00000  Uiso   1.00
C234   C     0.58027   0.27060   0.00788   0.00000  Uiso   1.00
C235   C     0.49963   0.27035   0.89035   0.00000  Uiso   1.00
C236   C     0.78755   0.31283   0.13834   0.00000  Uiso   1.00
C237   C     0.80897   0.37601   0.18773   0.00000  Uiso   1.00
C238   C     0.86010   0.41593   0.14538   0.00000  Uiso   1.00
C239   C     0.94142   0.49977   0.10747   0.00000  Uiso   1.00
C240   C     0.76247   0.18324   0.17718   0.00000  Uiso   1.00
C241   C     0.76283   0.13747   0.25924   0.00000  Uiso   1.00
C242   C     0.79287   0.06829   0.24960   0.00000  Uiso   1.00
C243   C     0.83526   0.95093   0.27200   0.00000  Uiso   1.00
C244   C     0.78510   0.21959   0.00842   0.00000  Uiso   1.00
C245   C     0.71188   0.23614   0.99854   0.00000  Uiso   1.00
C246   C     0.67528   0.23042   0.91301   0.00000  Uiso   1.00
C247   C     0.60896   0.24804   0.91918   0.00000  Uiso   1.00
C248   C     0.81618   0.29032   0.04980   0.00000  Uiso   1.00
C249   C     0.86730   0.33015   0.00737   0.00000  Uiso   1.00
C250   C     0.88879   0.39338   0.05668   0.00000  Uiso   1.00
C251   C     0.79111   0.16073   0.08864   0.00000  Uiso   1.00
C252   C     0.82116   0.09161   0.07888   0.00000  Uiso   1.00
C253   C     0.82156   0.04574   0.16090   0.00000  Uiso   1.00
H254   H     0.71009   0.27857   0.24038   0.00000  Uiso   1.00
H255   H     0.59481   0.29371   0.16191   0.00000  Uiso   1.00
H256   H     0.78680   0.39342   0.25625   0.00000  Uiso   1.00
H257   H     0.74067   0.15491   0.32775   0.00000  Uiso   1.00
H258   H     0.47965   0.30059   0.03586   0.00000  Uiso   1.00
H259   H     0.88448   0.51081   0.23481   0.00000  Uiso   1.00
H260   H     0.78720   0.00788   0.38557   0.00000  Uiso   1.00
H261   H     0.80740   0.20206   0.93949   0.00000  Uiso   1.00
H262   H     0.69746   0.21300   0.84450   0.00000  Uiso   1.00
H263   H     0.88945   0.31271   0.93885   0.00000  Uiso   1.00
H264   H     0.84331   0.07421   0.01035   0.00000  Uiso   1.00
H265   H     0.56296   0.23509   0.77824   0.00000  Uiso   1.00
H266   H     0.96779   0.44531   0.97719   0.00000  Uiso   1.00
H267   H     0.87051   0.94238   0.12795   0.00000  Uiso   1.00
O268   O     0.44723   0.27644   0.84999   0.00000  Uiso   1.00
O269   O     0.97836   0.55224   0.11101   0.00000  Uiso   1.00
O270   O     0.85073   0.89240   0.30881   0.00000  Uiso   1.00
N271   N     0.51434   0.28366   0.98827   0.00000  Uiso   1.00
N272   N     0.89282   0.48021   0.17426   0.00000  Uiso   1.00
N273   N     0.80189   0.01002   0.31522   0.00000  Uiso   1.00
N274   N     0.55917   0.24841   0.84964   0.00000  Uiso   1.00
N275   N     0.93765   0.44497   0.03564   0.00000  Uiso   1.00
N276   N     0.84672   0.97477   0.17660   0.00000  Uiso   1.00
C277   C     0.23238   0.23896   0.82856   0.00000  Uiso   1.00
C278   C     0.18324   0.24135   0.91291   0.00000  Uiso   1.00
C279   C     0.11696   0.22372   0.90663   0.00000  Uiso   1.00
C280   C     0.08027   0.22940   0.99212   0.00000  Uiso   1.00
C281   C     0.99963   0.22965   0.10965   0.00000  Uiso   1.00
C282   C     0.28755   0.18717   0.86166   0.00000  Uiso   1.00
C283   C     0.30897   0.12399   0.81227   0.00000  Uiso   1.00
C284   C     0.36010   0.08407   0.85462   0.00000  Uiso   1.00
C285   C     0.44142   0.00023   0.89253   0.00000  Uiso   1.00
C286   C     0.26247   0.31676   0.82282   0.00000  Uiso   1.00
C287   C     0.26283   0.36253   0.74076   0.00000  Uiso   1.00
C288   C     0.29287   0.43171   0.75040   0.00000  Uiso   1.00
C289   C     0.33526   0.54907   0.72800   0.00000  Uiso   1.00
C290   C     0.28510   0.28041   0.99158   0.00000  Uiso   1.00
C291   C     0.21188   0.26386   0.00146   0.00000  Uiso   1.00
C292   C     0.17528   0.26958   0.08699   0.00000  Uiso   1.00
C293   C     0.10896   0.25196   0.08082   0.00000  Uiso   1.00
C294   C     0.31618   0.20968   0.95020   0.00000  Uiso   1.00
C295   C     0.36730   0.16985   0.99263   0.00000  Uiso   1.00
C296   C     0.38879   0.10662   0.94332   0.00000  Uiso   1.00
C297   C     0.29111   0.33927   0.91136   0.00000  Uiso   1.00
C298   C     0.32116   0.40839   0.92112   0.00000  Uiso   1.00
C299   C     0.32156   0.45426   0.83910   0.00000  Uiso   1.00
H300   H     0.21009   0.22143   0.75962   0.00000  Uiso   1.00
H301   H     0.09481   0.20629   0.83809   0.00000  Uiso   1.00
H302   H     0.28680   0.10658   0.74375   0.00000  Uiso   1.00
H303   H     0.24067   0.34509   0.67225   0.00000  Uiso   1.00
H304   H     0.97965   0.19941   0.96414   0.00000  Uiso   1.00
H305   H     0.38448   0.98919   0.76519   0.00000  Uiso   1.00
H306   H     0.28720   0.49212   0.61443   0.00000  Uiso   1.00
H307   H     0.30740   0.29794   0.06051   0.00000  Uiso   1.00
H308   H     0.19746   0.28700   0.15550   0.00000  Uiso   1.00
H309   H     0.38945   0.18729   0.06115   0.00000  Uiso   1.00
H310   H     0.34331   0.42579   0.98965   0.00000  Uiso   1.00
H311   H     0.06296   0.26491   0.22176   0.00000  Uiso   1.00
H312   H     0.46779   0.05469   0.02281   0.00000  Uiso   1.00
H313   H     0.37051   0.55762   0.87205   0.00000  Uiso   1.00
O314   O     0.94723   0.22356   0.15001   0.00000  Uiso   1.00
O315   O     0.47836   0.94776   0.88899   0.00000  Uiso   1.00
O316   O     0.35073   0.60760   0.69119   0.00000  Uiso   1.00
N317   N     0.01434   0.21634   0.01173   0.00000  Uiso   1.00
N318   N     0.39282   0.01979   0.82574   0.00000  Uiso   1.00
N319   N     0.30189   0.48998   0.68478   0.00000  Uiso   1.00
N320   N     0.05917   0.25159   0.15036   0.00000  Uiso   1.00
N321   N     0.43765   0.05503   0.96436   0.00000  Uiso   1.00
N322   N     0.34672   0.52523   0.82340   0.00000  Uiso   1.00
C323   C     0.26762   0.26104   0.32856   0.00000  Uiso   1.00
C324   C     0.31676   0.25865   0.41291   0.00000  Uiso   1.00
C325   C     0.38304   0.27628   0.40663   0.00000  Uiso   1.00
C326   C     0.41973   0.27060   0.49212   0.00000  Uiso   1.00
C327   C     0.50037   0.27035   0.60965   0.00000  Uiso   1.00
C328   C     0.21245   0.31283   0.36166   0.00000  Uiso   1.00
C329   C     0.19103   0.37601   0.31227   0.00000  Uiso   1.00
C330   C     0.13990   0.41593   0.35462   0.00000  Uiso   1.00
C331   C     0.05858   0.49977   0.39253   0.00000  Uiso   1.00
C332   C     0.23753   0.18324   0.32282   0.00000  Uiso   1.00
C333   C     0.23717   0.13747   0.24076   0.00000  Uiso   1.00
C334   C     0.20713   0.06829   0.25040   0.00000  Uiso   1.00
C335   C     0.16474   0.95093   0.22800   0.00000  Uiso   1.00
C336   C     0.21490   0.21959   0.49158   0.00000  Uiso   1.00
C337   C     0.28812   0.23614   0.50146   0.00000  Uiso   1.00
C338   C     0.32472   0.23042   0.58699   0.00000  Uiso   1.00
C339   C     0.39104   0.24804   0.58082   0.00000  Uiso   1.00
C340   C     0.18382   0.29032   0.45020   0.00000  Uiso   1.00
C341   C     0.13270   0.33015   0.49263   0.00000  Uiso   1.00
C342   C     0.11121   0.39338   0.44332   0.00000  Uiso   1.00
C343   C     0.20889   0.16073   0.41136   0.00000  Uiso   1.00
C344   C     0.17884   0.09161   0.42112   0.00000  Uiso   1.00
C345   C     0.17844   0.04574   0.33910   0.00000  Uiso   1.00
H346   H     0.28991   0.27857   0.25962   0.00000  Uiso   1.00
H347   H     0.40519   0.29371   0.33809   0.00000  Uiso   1.00
H348   H     0.21320   0.39342   0.24375   0.00000  Uiso   1.00
H349   H     0.25933   0.15491   0.17225   0.00000  Uiso   1.00
H350   H     0.52035   0.30059   0.46414   0.00000  Uiso   1.00
H351   H     0.11552   0.51081   0.26519   0.00000  Uiso   1.00
H352   H     0.21280   0.00788   0.11443   0.00000  Uiso   1.00
H353   H     0.19260   0.20206   0.56051   0.00000  Uiso   1.00
H354   H     0.30254   0.21300   0.65550   0.00000  Uiso   1.00
H355   H     0.11055   0.31271   0.56115   0.00000  Uiso   1.00
H356   H     0.15669   0.07421   0.48965   0.00000  Uiso   1.00
H357   H     0.43704   0.23509   0.72176   0.00000  Uiso   1.00
H358   H     0.03221   0.44531   0.52281   0.00000  Uiso   1.00
H359   H     0.12949   0.94238   0.37205   0.00000  Uiso   1.00
O360   O     0.55277   0.27644   0.65001   0.00000  Uiso   1.00
O361   O     0.02164   0.55224   0.38899   0.00000  Uiso   1.00
O362   O     0.14927   0.89240   0.19119   0.00000  Uiso   1.00
N363   N     0.48566   0.28366   0.51173   0.00000  Uiso   1.00
N364   N     0.10718   0.48021   0.32574   0.00000  Uiso   1.00
N365   N     0.19811   0.01002   0.18478   0.00000  Uiso   1.00
N366   N     0.44083   0.24841   0.65036   0.00000  Uiso   1.00
N367   N     0.06235   0.44497   0.46436   0.00000  Uiso   1.00
N368   N     0.15328   0.97477   0.32340   0.00000  Uiso   1.00
