data_job_02991
_audit_creation_date              2018-12-19
_audit_creation_method            'Materials Studio'
_symmetry_space_group_name_H-M    'P1'
_symmetry_Int_Tables_number       1
_symmetry_cell_setting            triclinic
loop_
_symmetry_equiv_pos_as_xyz
  x,y,z
_cell_length_a                    31.7204
_cell_length_b                    14.0441
_cell_length_c                    9.7637
_cell_angle_alpha                 90.0000
_cell_angle_beta                  90.0000
_cell_angle_gamma                 90.0000
loop_
_atom_site_label
_atom_site_type_symbol
_atom_site_fract_x
_atom_site_fract_y
_atom_site_fract_z
_atom_site_U_iso_or_equiv
_atom_site_adp_type
_atom_site_occupancy
C1     C     0.88748   0.19012   0.69068   0.00000  Uiso   1.00
C2     C     0.84763   0.21301   0.77157   0.00000  Uiso   1.00
C3     C     0.82382   0.29551   0.75976   0.00000  Uiso   1.00
C4     C     0.78845   0.30293   0.84285   0.00000  Uiso   1.00
C5     C     0.72827   0.34952   0.95458   0.00000  Uiso   1.00
C6     C     0.92167   0.17041   0.79674   0.00000  Uiso   1.00
C7     C     0.96013   0.21708   0.80608   0.00000  Uiso   1.00
C8     C     0.98710   0.18862   0.91034   0.00000  Uiso   1.00
C9     C     0.04189   0.16903   0.06109   0.00000  Uiso   1.00
C10    C     0.87911   0.09544   0.61923   0.00000  Uiso   1.00
C11    C     0.88179   0.07908   0.47933   0.00000  Uiso   1.00
C12    C     0.87293   0.98749   0.43414   0.00000  Uiso   1.00
C13    C     0.86163   0.85150   0.30928   0.00000  Uiso   1.00
C14    C     0.86700   0.05658   0.85922   0.00000  Uiso   1.00
C15    C     0.83650   0.14048   0.86312   0.00000  Uiso   1.00
C16    C     0.80116   0.14777   0.94624   0.00000  Uiso   1.00
C17    C     0.77730   0.23027   0.93455   0.00000  Uiso   1.00
C18    C     0.91055   0.09788   0.88829   0.00000  Uiso   1.00
C19    C     0.93747   0.06934   0.99255   0.00000  Uiso   1.00
C20    C     0.97595   0.11596   0.00206   0.00000  Uiso   1.00
C21    C     0.86798   0.02291   0.71078   0.00000  Uiso   1.00
C22    C     0.85912   0.93133   0.66580   0.00000  Uiso   1.00
C23    C     0.86178   0.91483   0.52586   0.00000  Uiso   1.00
H24    H     0.89615   0.24659   0.61941   0.00000  Uiso   1.00
H25    H     0.83245   0.35163   0.68891   0.00000  Uiso   1.00
H26    H     0.96874   0.27320   0.73521   0.00000  Uiso   1.00
H27    H     0.89040   0.13522   0.40852   0.00000  Uiso   1.00
H28    H     0.75692   0.43612   0.80638   0.00000  Uiso   1.00
H29    H     0.04430   0.27073   0.90398   0.00000  Uiso   1.00
H30    H     0.87912   0.97976   0.21507   0.00000  Uiso   1.00
H31    H     0.85833   0.00011   0.93050   0.00000  Uiso   1.00
H32    H     0.79255   0.09163   0.01707   0.00000  Uiso   1.00
H33    H     0.92884   0.01320   0.06337   0.00000  Uiso   1.00
H34    H     0.85051   0.87522   0.73668   0.00000  Uiso   1.00
H35    H     0.72455   0.22509   0.07273   0.00000  Uiso   1.00
H36    H     0.01193   0.05969   0.17032   0.00000  Uiso   1.00
H37    H     0.84674   0.76873   0.48142   0.00000  Uiso   1.00
O38    O     0.69816   0.39527   0.99093   0.00000  Uiso   1.00
O39    O     0.07519   0.17827   0.11895   0.00000  Uiso   1.00
O40    O     0.85847   0.79653   0.21512   0.00000  Uiso   1.00
N41    N     0.75833   0.37388   0.85716   0.00000  Uiso   1.00
N42    N     0.02701   0.21926   0.94843   0.00000  Uiso   1.00
N43    N     0.87258   0.94723   0.30436   0.00000  Uiso   1.00
N44    N     0.74090   0.26033   0.00048   0.00000  Uiso   1.00
N45    N     0.00958   0.10571   0.09175   0.00000  Uiso   1.00
N46    N     0.85516   0.83368   0.44768   0.00000  Uiso   1.00
C47    C     0.61252   0.80988   0.19068   0.00000  Uiso   1.00
C48    C     0.65237   0.78699   0.27157   0.00000  Uiso   1.00
C49    C     0.67618   0.70449   0.25976   0.00000  Uiso   1.00
C50    C     0.71155   0.69707   0.34285   0.00000  Uiso   1.00
C51    C     0.77173   0.65048   0.45458   0.00000  Uiso   1.00
C52    C     0.57833   0.82959   0.29674   0.00000  Uiso   1.00
C53    C     0.53987   0.78292   0.30608   0.00000  Uiso   1.00
C54    C     0.51290   0.81138   0.41034   0.00000  Uiso   1.00
C55    C     0.45811   0.83097   0.56109   0.00000  Uiso   1.00
C56    C     0.62089   0.90456   0.11923   0.00000  Uiso   1.00
C57    C     0.61821   0.92092   0.97933   0.00000  Uiso   1.00
C58    C     0.62707   0.01251   0.93414   0.00000  Uiso   1.00
C59    C     0.63837   0.14850   0.80928   0.00000  Uiso   1.00
C60    C     0.63300   0.94342   0.35922   0.00000  Uiso   1.00
C61    C     0.66350   0.85952   0.36312   0.00000  Uiso   1.00
C62    C     0.69884   0.85223   0.44624   0.00000  Uiso   1.00
C63    C     0.72270   0.76973   0.43455   0.00000  Uiso   1.00
C64    C     0.58945   0.90212   0.38829   0.00000  Uiso   1.00
C65    C     0.56253   0.93066   0.49255   0.00000  Uiso   1.00
C66    C     0.52405   0.88404   0.50206   0.00000  Uiso   1.00
C67    C     0.63202   0.97709   0.21078   0.00000  Uiso   1.00
C68    C     0.64088   0.06867   0.16580   0.00000  Uiso   1.00
C69    C     0.63822   0.08517   0.02586   0.00000  Uiso   1.00
H70    H     0.60385   0.75341   0.11941   0.00000  Uiso   1.00
H71    H     0.66755   0.64837   0.18891   0.00000  Uiso   1.00
H72    H     0.53126   0.72680   0.23521   0.00000  Uiso   1.00
H73    H     0.60960   0.86478   0.90852   0.00000  Uiso   1.00
H74    H     0.74308   0.56388   0.30638   0.00000  Uiso   1.00
H75    H     0.45570   0.72927   0.40398   0.00000  Uiso   1.00
H76    H     0.62088   0.02024   0.71507   0.00000  Uiso   1.00
H77    H     0.64167   0.99989   0.43050   0.00000  Uiso   1.00
H78    H     0.70745   0.90837   0.51707   0.00000  Uiso   1.00
H79    H     0.57116   0.98680   0.56337   0.00000  Uiso   1.00
H80    H     0.64949   0.12478   0.23668   0.00000  Uiso   1.00
H81    H     0.77545   0.77491   0.57273   0.00000  Uiso   1.00
H82    H     0.48807   0.94031   0.67032   0.00000  Uiso   1.00
H83    H     0.65326   0.23127   0.98142   0.00000  Uiso   1.00
O84    O     0.80184   0.60473   0.49093   0.00000  Uiso   1.00
O85    O     0.42481   0.82173   0.61895   0.00000  Uiso   1.00
O86    O     0.64153   0.20347   0.71512   0.00000  Uiso   1.00
N87    N     0.74167   0.62612   0.35716   0.00000  Uiso   1.00
N88    N     0.47299   0.78074   0.44843   0.00000  Uiso   1.00
N89    N     0.62742   0.05277   0.80436   0.00000  Uiso   1.00
N90    N     0.75910   0.73967   0.50048   0.00000  Uiso   1.00
N91    N     0.49042   0.89429   0.59175   0.00000  Uiso   1.00
N92    N     0.64484   0.16632   0.94768   0.00000  Uiso   1.00
C93    C     0.11252   0.69012   0.80932   0.00000  Uiso   1.00
C94    C     0.15237   0.71301   0.72843   0.00000  Uiso   1.00
C95    C     0.17618   0.79551   0.74024   0.00000  Uiso   1.00
C96    C     0.21155   0.80293   0.65715   0.00000  Uiso   1.00
C97    C     0.27173   0.84952   0.54542   0.00000  Uiso   1.00
C98    C     0.07833   0.67041   0.70326   0.00000  Uiso   1.00
C99    C     0.03987   0.71708   0.69392   0.00000  Uiso   1.00
C100   C     0.01290   0.68862   0.58966   0.00000  Uiso   1.00
C101   C     0.95811   0.66903   0.43891   0.00000  Uiso   1.00
C102   C     0.12089   0.59544   0.88077   0.00000  Uiso   1.00
C103   C     0.11821   0.57908   0.02067   0.00000  Uiso   1.00
C104   C     0.12707   0.48749   0.06586   0.00000  Uiso   1.00
C105   C     0.13837   0.35150   0.19072   0.00000  Uiso   1.00
C106   C     0.13300   0.55658   0.64078   0.00000  Uiso   1.00
C107   C     0.16350   0.64048   0.63688   0.00000  Uiso   1.00
C108   C     0.19884   0.64777   0.55376   0.00000  Uiso   1.00
C109   C     0.22270   0.73027   0.56545   0.00000  Uiso   1.00
C110   C     0.08945   0.59788   0.61171   0.00000  Uiso   1.00
C111   C     0.06253   0.56934   0.50745   0.00000  Uiso   1.00
C112   C     0.02405   0.61596   0.49794   0.00000  Uiso   1.00
C113   C     0.13202   0.52291   0.78922   0.00000  Uiso   1.00
C114   C     0.14088   0.43133   0.83420   0.00000  Uiso   1.00
C115   C     0.13822   0.41483   0.97414   0.00000  Uiso   1.00
H116   H     0.10385   0.74659   0.88059   0.00000  Uiso   1.00
H117   H     0.16755   0.85163   0.81109   0.00000  Uiso   1.00
H118   H     0.03126   0.77320   0.76479   0.00000  Uiso   1.00
H119   H     0.10960   0.63522   0.09148   0.00000  Uiso   1.00
H120   H     0.24308   0.93612   0.69362   0.00000  Uiso   1.00
H121   H     0.95570   0.77073   0.59602   0.00000  Uiso   1.00
H122   H     0.12088   0.47976   0.28493   0.00000  Uiso   1.00
H123   H     0.14167   0.50011   0.56950   0.00000  Uiso   1.00
H124   H     0.20745   0.59163   0.48293   0.00000  Uiso   1.00
H125   H     0.07116   0.51320   0.43663   0.00000  Uiso   1.00
H126   H     0.14949   0.37522   0.76332   0.00000  Uiso   1.00
H127   H     0.27545   0.72509   0.42727   0.00000  Uiso   1.00
H128   H     0.98807   0.55969   0.32968   0.00000  Uiso   1.00
H129   H     0.15326   0.26873   0.01858   0.00000  Uiso   1.00
O130   O     0.30184   0.89527   0.50907   0.00000  Uiso   1.00
O131   O     0.92481   0.67827   0.38105   0.00000  Uiso   1.00
O132   O     0.14153   0.29653   0.28488   0.00000  Uiso   1.00
N133   N     0.24167   0.87388   0.64284   0.00000  Uiso   1.00
N134   N     0.97299   0.71926   0.55157   0.00000  Uiso   1.00
N135   N     0.12742   0.44723   0.19564   0.00000  Uiso   1.00
N136   N     0.25910   0.76033   0.49952   0.00000  Uiso   1.00
N137   N     0.99042   0.60571   0.40825   0.00000  Uiso   1.00
N138   N     0.14484   0.33368   0.05232   0.00000  Uiso   1.00
C139   C     0.38748   0.30988   0.30932   0.00000  Uiso   1.00
C140   C     0.34763   0.28699   0.22843   0.00000  Uiso   1.00
C141   C     0.32382   0.20449   0.24024   0.00000  Uiso   1.00
C142   C     0.28845   0.19707   0.15715   0.00000  Uiso   1.00
C143   C     0.22827   0.15048   0.04542   0.00000  Uiso   1.00
C144   C     0.42167   0.32959   0.20326   0.00000  Uiso   1.00
C145   C     0.46013   0.28292   0.19392   0.00000  Uiso   1.00
C146   C     0.48710   0.31138   0.08966   0.00000  Uiso   1.00
C147   C     0.54189   0.33097   0.93891   0.00000  Uiso   1.00
C148   C     0.37911   0.40456   0.38077   0.00000  Uiso   1.00
C149   C     0.38179   0.42092   0.52067   0.00000  Uiso   1.00
C150   C     0.37293   0.51251   0.56586   0.00000  Uiso   1.00
C151   C     0.36163   0.64850   0.69072   0.00000  Uiso   1.00
C152   C     0.36700   0.44342   0.14078   0.00000  Uiso   1.00
C153   C     0.33650   0.35952   0.13688   0.00000  Uiso   1.00
C154   C     0.30116   0.35223   0.05376   0.00000  Uiso   1.00
C155   C     0.27730   0.26973   0.06545   0.00000  Uiso   1.00
C156   C     0.41055   0.40212   0.11171   0.00000  Uiso   1.00
C157   C     0.43747   0.43066   0.00745   0.00000  Uiso   1.00
C158   C     0.47595   0.38404   0.99794   0.00000  Uiso   1.00
C159   C     0.36798   0.47709   0.28922   0.00000  Uiso   1.00
C160   C     0.35912   0.56867   0.33420   0.00000  Uiso   1.00
C161   C     0.36178   0.58517   0.47414   0.00000  Uiso   1.00
H162   H     0.39615   0.25341   0.38059   0.00000  Uiso   1.00
H163   H     0.33245   0.14837   0.31109   0.00000  Uiso   1.00
H164   H     0.46874   0.22680   0.26479   0.00000  Uiso   1.00
H165   H     0.39040   0.36478   0.59148   0.00000  Uiso   1.00
H166   H     0.25692   0.06388   0.19362   0.00000  Uiso   1.00
H167   H     0.54430   0.22927   0.09602   0.00000  Uiso   1.00
H168   H     0.37912   0.52024   0.78493   0.00000  Uiso   1.00
H169   H     0.35833   0.49989   0.06950   0.00000  Uiso   1.00
H170   H     0.29255   0.40837   0.98293   0.00000  Uiso   1.00
H171   H     0.42884   0.48680   0.93663   0.00000  Uiso   1.00
H172   H     0.35051   0.62478   0.26332   0.00000  Uiso   1.00
H173   H     0.22455   0.27491   0.92727   0.00000  Uiso   1.00
H174   H     0.51193   0.44031   0.82968   0.00000  Uiso   1.00
H175   H     0.34674   0.73127   0.51858   0.00000  Uiso   1.00
O176   O     0.19816   0.10473   0.00907   0.00000  Uiso   1.00
O177   O     0.57519   0.32173   0.88105   0.00000  Uiso   1.00
O178   O     0.35847   0.70347   0.78488   0.00000  Uiso   1.00
N179   N     0.25833   0.12612   0.14284   0.00000  Uiso   1.00
N180   N     0.52701   0.28074   0.05157   0.00000  Uiso   1.00
N181   N     0.37258   0.55277   0.69564   0.00000  Uiso   1.00
N182   N     0.24090   0.23967   0.99952   0.00000  Uiso   1.00
N183   N     0.50958   0.39429   0.90825   0.00000  Uiso   1.00
N184   N     0.35516   0.66632   0.55232   0.00000  Uiso   1.00
C185   C     0.11252   0.80988   0.30932   0.00000  Uiso   1.00
C186   C     0.15237   0.78699   0.22843   0.00000  Uiso   1.00
C187   C     0.17618   0.70449   0.24024   0.00000  Uiso   1.00
C188   C     0.21155   0.69707   0.15715   0.00000  Uiso   1.00
C189   C     0.27173   0.65048   0.04542   0.00000  Uiso   1.00
C190   C     0.07833   0.82959   0.20326   0.00000  Uiso   1.00
C191   C     0.03987   0.78292   0.19392   0.00000  Uiso   1.00
C192   C     0.01290   0.81138   0.08966   0.00000  Uiso   1.00
C193   C     0.95811   0.83097   0.93891   0.00000  Uiso   1.00
C194   C     0.12089   0.90456   0.38077   0.00000  Uiso   1.00
C195   C     0.11821   0.92092   0.52067   0.00000  Uiso   1.00
C196   C     0.12707   0.01251   0.56586   0.00000  Uiso   1.00
C197   C     0.13837   0.14850   0.69072   0.00000  Uiso   1.00
C198   C     0.13300   0.94342   0.14078   0.00000  Uiso   1.00
C199   C     0.16350   0.85952   0.13688   0.00000  Uiso   1.00
C200   C     0.19884   0.85223   0.05376   0.00000  Uiso   1.00
C201   C     0.22270   0.76973   0.06545   0.00000  Uiso   1.00
C202   C     0.08945   0.90212   0.11171   0.00000  Uiso   1.00
C203   C     0.06253   0.93066   0.00745   0.00000  Uiso   1.00
C204   C     0.02405   0.88404   0.99794   0.00000  Uiso   1.00
C205   C     0.13202   0.97709   0.28922   0.00000  Uiso   1.00
C206   C     0.14088   0.06867   0.33420   0.00000  Uiso   1.00
C207   C     0.13822   0.08517   0.47414   0.00000  Uiso   1.00
H208   H     0.10385   0.75341   0.38059   0.00000  Uiso   1.00
H209   H     0.16755   0.64837   0.31109   0.00000  Uiso   1.00
H210   H     0.03126   0.72680   0.26479   0.00000  Uiso   1.00
H211   H     0.10960   0.86478   0.59148   0.00000  Uiso   1.00
H212   H     0.24308   0.56388   0.19362   0.00000  Uiso   1.00
H213   H     0.95570   0.72927   0.09602   0.00000  Uiso   1.00
H214   H     0.12088   0.02024   0.78493   0.00000  Uiso   1.00
H215   H     0.14167   0.99989   0.06950   0.00000  Uiso   1.00
H216   H     0.20745   0.90837   0.98293   0.00000  Uiso   1.00
H217   H     0.07116   0.98680   0.93663   0.00000  Uiso   1.00
H218   H     0.14949   0.12478   0.26332   0.00000  Uiso   1.00
H219   H     0.27545   0.77491   0.92727   0.00000  Uiso   1.00
H220   H     0.98807   0.94031   0.82968   0.00000  Uiso   1.00
H221   H     0.15326   0.23127   0.51858   0.00000  Uiso   1.00
O222   O     0.30184   0.60473   0.00907   0.00000  Uiso   1.00
O223   O     0.92481   0.82173   0.88105   0.00000  Uiso   1.00
O224   O     0.14153   0.20347   0.78488   0.00000  Uiso   1.00
N225   N     0.24167   0.62612   0.14284   0.00000  Uiso   1.00
N226   N     0.97299   0.78074   0.05157   0.00000  Uiso   1.00
N227   N     0.12742   0.05277   0.69564   0.00000  Uiso   1.00
N228   N     0.25910   0.73967   0.99952   0.00000  Uiso   1.00
N229   N     0.99042   0.89429   0.90825   0.00000  Uiso   1.00
N230   N     0.14484   0.16632   0.55232   0.00000  Uiso   1.00
C231   C     0.38748   0.19012   0.80932   0.00000  Uiso   1.00
C232   C     0.34763   0.21301   0.72843   0.00000  Uiso   1.00
C233   C     0.32382   0.29551   0.74024   0.00000  Uiso   1.00
C234   C     0.28845   0.30293   0.65715   0.00000  Uiso   1.00
C235   C     0.22827   0.34952   0.54542   0.00000  Uiso   1.00
C236   C     0.42167   0.17041   0.70326   0.00000  Uiso   1.00
C237   C     0.46013   0.21708   0.69392   0.00000  Uiso   1.00
C238   C     0.48710   0.18862   0.58966   0.00000  Uiso   1.00
C239   C     0.54189   0.16903   0.43891   0.00000  Uiso   1.00
C240   C     0.37911   0.09544   0.88077   0.00000  Uiso   1.00
C241   C     0.38179   0.07908   0.02067   0.00000  Uiso   1.00
C242   C     0.37293   0.98749   0.06586   0.00000  Uiso   1.00
C243   C     0.36163   0.85150   0.19072   0.00000  Uiso   1.00
C244   C     0.36700   0.05658   0.64078   0.00000  Uiso   1.00
C245   C     0.33650   0.14048   0.63688   0.00000  Uiso   1.00
C246   C     0.30116   0.14777   0.55376   0.00000  Uiso   1.00
C247   C     0.27730   0.23027   0.56545   0.00000  Uiso   1.00
C248   C     0.41055   0.09788   0.61171   0.00000  Uiso   1.00
C249   C     0.43747   0.06934   0.50745   0.00000  Uiso   1.00
C250   C     0.47595   0.11596   0.49794   0.00000  Uiso   1.00
C251   C     0.36798   0.02291   0.78922   0.00000  Uiso   1.00
C252   C     0.35912   0.93133   0.83420   0.00000  Uiso   1.00
C253   C     0.36178   0.91483   0.97414   0.00000  Uiso   1.00
H254   H     0.39615   0.24659   0.88059   0.00000  Uiso   1.00
H255   H     0.33245   0.35163   0.81109   0.00000  Uiso   1.00
H256   H     0.46874   0.27320   0.76479   0.00000  Uiso   1.00
H257   H     0.39040   0.13522   0.09148   0.00000  Uiso   1.00
H258   H     0.25692   0.43612   0.69362   0.00000  Uiso   1.00
H259   H     0.54430   0.27073   0.59602   0.00000  Uiso   1.00
H260   H     0.37912   0.97976   0.28493   0.00000  Uiso   1.00
H261   H     0.35833   0.00011   0.56950   0.00000  Uiso   1.00
H262   H     0.29255   0.09163   0.48293   0.00000  Uiso   1.00
H263   H     0.42884   0.01320   0.43663   0.00000  Uiso   1.00
H264   H     0.35051   0.87522   0.76332   0.00000  Uiso   1.00
H265   H     0.22455   0.22509   0.42727   0.00000  Uiso   1.00
H266   H     0.51193   0.05969   0.32968   0.00000  Uiso   1.00
H267   H     0.34674   0.76873   0.01858   0.00000  Uiso   1.00
O268   O     0.19816   0.39527   0.50907   0.00000  Uiso   1.00
O269   O     0.57519   0.17827   0.38105   0.00000  Uiso   1.00
O270   O     0.35847   0.79653   0.28488   0.00000  Uiso   1.00
N271   N     0.25833   0.37388   0.64284   0.00000  Uiso   1.00
N272   N     0.52701   0.21926   0.55157   0.00000  Uiso   1.00
N273   N     0.37258   0.94723   0.19564   0.00000  Uiso   1.00
N274   N     0.24090   0.26033   0.49952   0.00000  Uiso   1.00
N275   N     0.50958   0.10571   0.40825   0.00000  Uiso   1.00
N276   N     0.35516   0.83368   0.05232   0.00000  Uiso   1.00
C277   C     0.88748   0.30988   0.19068   0.00000  Uiso   1.00
C278   C     0.84763   0.28699   0.27157   0.00000  Uiso   1.00
C279   C     0.82382   0.20449   0.25976   0.00000  Uiso   1.00
C280   C     0.78845   0.19707   0.34285   0.00000  Uiso   1.00
C281   C     0.72827   0.15048   0.45458   0.00000  Uiso   1.00
C282   C     0.92167   0.32959   0.29674   0.00000  Uiso   1.00
C283   C     0.96013   0.28292   0.30608   0.00000  Uiso   1.00
C284   C     0.98710   0.31138   0.41034   0.00000  Uiso   1.00
C285   C     0.04189   0.33097   0.56109   0.00000  Uiso   1.00
C286   C     0.87911   0.40456   0.11923   0.00000  Uiso   1.00
C287   C     0.88179   0.42092   0.97933   0.00000  Uiso   1.00
C288   C     0.87293   0.51251   0.93414   0.00000  Uiso   1.00
C289   C     0.86163   0.64850   0.80928   0.00000  Uiso   1.00
C290   C     0.86700   0.44342   0.35922   0.00000  Uiso   1.00
C291   C     0.83650   0.35952   0.36312   0.00000  Uiso   1.00
C292   C     0.80116   0.35223   0.44624   0.00000  Uiso   1.00
C293   C     0.77730   0.26973   0.43455   0.00000  Uiso   1.00
C294   C     0.91055   0.40212   0.38829   0.00000  Uiso   1.00
C295   C     0.93747   0.43066   0.49255   0.00000  Uiso   1.00
C296   C     0.97595   0.38404   0.50206   0.00000  Uiso   1.00
C297   C     0.86798   0.47709   0.21078   0.00000  Uiso   1.00
C298   C     0.85912   0.56867   0.16580   0.00000  Uiso   1.00
C299   C     0.86178   0.58517   0.02586   0.00000  Uiso   1.00
H300   H     0.89615   0.25341   0.11941   0.00000  Uiso   1.00
H301   H     0.83245   0.14837   0.18891   0.00000  Uiso   1.00
H302   H     0.96874   0.22680   0.23521   0.00000  Uiso   1.00
H303   H     0.89040   0.36478   0.90852   0.00000  Uiso   1.00
H304   H     0.75692   0.06388   0.30638   0.00000  Uiso   1.00
H305   H     0.04430   0.22927   0.40398   0.00000  Uiso   1.00
H306   H     0.87912   0.52024   0.71507   0.00000  Uiso   1.00
H307   H     0.85833   0.49989   0.43050   0.00000  Uiso   1.00
H308   H     0.79255   0.40837   0.51707   0.00000  Uiso   1.00
H309   H     0.92884   0.48680   0.56337   0.00000  Uiso   1.00
H310   H     0.85051   0.62478   0.23668   0.00000  Uiso   1.00
H311   H     0.72455   0.27491   0.57273   0.00000  Uiso   1.00
H312   H     0.01193   0.44031   0.67032   0.00000  Uiso   1.00
H313   H     0.84674   0.73127   0.98142   0.00000  Uiso   1.00
O314   O     0.69816   0.10473   0.49093   0.00000  Uiso   1.00
O315   O     0.07519   0.32173   0.61895   0.00000  Uiso   1.00
O316   O     0.85847   0.70347   0.71512   0.00000  Uiso   1.00
N317   N     0.75833   0.12612   0.35716   0.00000  Uiso   1.00
N318   N     0.02701   0.28074   0.44843   0.00000  Uiso   1.00
N319   N     0.87258   0.55277   0.80436   0.00000  Uiso   1.00
N320   N     0.74090   0.23967   0.50048   0.00000  Uiso   1.00
N321   N     0.00958   0.39429   0.59175   0.00000  Uiso   1.00
N322   N     0.85516   0.66632   0.94768   0.00000  Uiso   1.00
C323   C     0.61252   0.69012   0.69068   0.00000  Uiso   1.00
C324   C     0.65237   0.71301   0.77157   0.00000  Uiso   1.00
C325   C     0.67618   0.79551   0.75976   0.00000  Uiso   1.00
C326   C     0.71155   0.80293   0.84285   0.00000  Uiso   1.00
C327   C     0.77173   0.84952   0.95458   0.00000  Uiso   1.00
C328   C     0.57833   0.67041   0.79674   0.00000  Uiso   1.00
C329   C     0.53987   0.71708   0.80608   0.00000  Uiso   1.00
C330   C     0.51290   0.68862   0.91034   0.00000  Uiso   1.00
C331   C     0.45811   0.66903   0.06109   0.00000  Uiso   1.00
C332   C     0.62089   0.59544   0.61923   0.00000  Uiso   1.00
C333   C     0.61821   0.57908   0.47933   0.00000  Uiso   1.00
C334   C     0.62707   0.48749   0.43414   0.00000  Uiso   1.00
C335   C     0.63837   0.35150   0.30928   0.00000  Uiso   1.00
C336   C     0.63300   0.55658   0.85922   0.00000  Uiso   1.00
C337   C     0.66350   0.64048   0.86312   0.00000  Uiso   1.00
C338   C     0.69884   0.64777   0.94624   0.00000  Uiso   1.00
C339   C     0.72270   0.73027   0.93455   0.00000  Uiso   1.00
C340   C     0.58945   0.59788   0.88829   0.00000  Uiso   1.00
C341   C     0.56253   0.56934   0.99255   0.00000  Uiso   1.00
C342   C     0.52405   0.61596   0.00206   0.00000  Uiso   1.00
C343   C     0.63202   0.52291   0.71078   0.00000  Uiso   1.00
C344   C     0.64088   0.43133   0.66580   0.00000  Uiso   1.00
C345   C     0.63822   0.41483   0.52586   0.00000  Uiso   1.00
H346   H     0.60385   0.74659   0.61941   0.00000  Uiso   1.00
H347   H     0.66755   0.85163   0.68891   0.00000  Uiso   1.00
H348   H     0.53126   0.77320   0.73521   0.00000  Uiso   1.00
H349   H     0.60960   0.63522   0.40852   0.00000  Uiso   1.00
H350   H     0.74308   0.93612   0.80638   0.00000  Uiso   1.00
H351   H     0.45570   0.77073   0.90398   0.00000  Uiso   1.00
H352   H     0.62088   0.47976   0.21507   0.00000  Uiso   1.00
H353   H     0.64167   0.50011   0.93050   0.00000  Uiso   1.00
H354   H     0.70745   0.59163   0.01707   0.00000  Uiso   1.00
H355   H     0.57116   0.51320   0.06337   0.00000  Uiso   1.00
H356   H     0.64949   0.37522   0.73668   0.00000  Uiso   1.00
H357   H     0.77545   0.72509   0.07273   0.00000  Uiso   1.00
H358   H     0.48807   0.55969   0.17032   0.00000  Uiso   1.00
H359   H     0.65326   0.26873   0.48142   0.00000  Uiso   1.00
O360   O     0.80184   0.89527   0.99093   0.00000  Uiso   1.00
O361   O     0.42481   0.67827   0.11895   0.00000  Uiso   1.00
O362   O     0.64153   0.29653   0.21512   0.00000  Uiso   1.00
N363   N     0.74167   0.87388   0.85716   0.00000  Uiso   1.00
N364   N     0.47299   0.71926   0.94843   0.00000  Uiso   1.00
N365   N     0.62742   0.44723   0.30436   0.00000  Uiso   1.00
N366   N     0.75910   0.76033   0.00048   0.00000  Uiso   1.00
N367   N     0.49042   0.60571   0.09175   0.00000  Uiso   1.00
N368   N     0.64484   0.33368   0.44768   0.00000  Uiso   1.00
