data_job_05233
_audit_creation_date              2018-12-19
_audit_creation_method            'Materials Studio'
_symmetry_space_group_name_H-M    'P1'
_symmetry_Int_Tables_number       1
_symmetry_cell_setting            triclinic
loop_
_symmetry_equiv_pos_as_xyz
  x,y,z
_cell_length_a                    43.3584
_cell_length_b                    12.3745
_cell_length_c                    14.3596
_cell_angle_alpha                 90.0000
_cell_angle_beta                  90.0000
_cell_angle_gamma                 90.0000
loop_
_atom_site_label
_atom_site_type_symbol
_atom_site_fract_x
_atom_site_fract_y
_atom_site_fract_z
_atom_site_U_iso_or_equiv
_atom_site_adp_type
_atom_site_occupancy
C1     C     0.61467   0.80852   0.93188   0.00000  Uiso   1.00
C2     C     0.59392   0.72940   0.98385   0.00000  Uiso   1.00
C3     C     0.58129   0.63557   0.94712   0.00000  Uiso   1.00
C4     C     0.56290   0.57409   0.00593   0.00000  Uiso   1.00
C5     C     0.53150   0.44650   0.07258   0.00000  Uiso   1.00
C6     C     0.59894   0.91843   0.93893   0.00000  Uiso   1.00
C7     C     0.59055   0.98355   0.86443   0.00000  Uiso   1.00
C8     C     0.57640   0.08120   0.88543   0.00000  Uiso   1.00
C9     C     0.55282   0.24713   0.88233   0.00000  Uiso   1.00
C10    C     0.64417   0.81724   0.98922   0.00000  Uiso   1.00
C11    C     0.67381   0.79731   0.95700   0.00000  Uiso   1.00
C12    C     0.69774   0.80980   0.02035   0.00000  Uiso   1.00
C13    C     0.74439   0.81861   0.09534   0.00000  Uiso   1.00
C14    C     0.60447   0.86618   0.10165   0.00000  Uiso   1.00
C15    C     0.58837   0.76072   0.07606   0.00000  Uiso   1.00
C16    C     0.57000   0.69937   0.13495   0.00000  Uiso   1.00
C17    C     0.55735   0.60546   0.09831   0.00000  Uiso   1.00
C18    C     0.59340   0.94975   0.03113   0.00000  Uiso   1.00
C19    C     0.57926   0.04734   0.05225   0.00000  Uiso   1.00
C20    C     0.57085   0.11258   0.97781   0.00000  Uiso   1.00
C21    C     0.63863   0.84856   0.08143   0.00000  Uiso   1.00
C22    C     0.66252   0.86110   0.14484   0.00000  Uiso   1.00
C23    C     0.69219   0.84118   0.11273   0.00000  Uiso   1.00
H24    H     0.61899   0.78414   0.86009   0.00000  Uiso   1.00
H25    H     0.58558   0.61137   0.87575   0.00000  Uiso   1.00
H26    H     0.59484   0.95929   0.79307   0.00000  Uiso   1.00
H27    H     0.67809   0.77307   0.88564   0.00000  Uiso   1.00
H28    H     0.54609   0.43365   0.93377   0.00000  Uiso   1.00
H29    H     0.56563   0.16728   0.75944   0.00000  Uiso   1.00
H30    H     0.74117   0.77461   0.95463   0.00000  Uiso   1.00
H31    H     0.60016   0.89057   0.17345   0.00000  Uiso   1.00
H32    H     0.56572   0.72363   0.20630   0.00000  Uiso   1.00
H33    H     0.57498   0.07155   0.12362   0.00000  Uiso   1.00
H34    H     0.65823   0.88534   0.21619   0.00000  Uiso   1.00
H35    H     0.52997   0.52476   0.20205   0.00000  Uiso   1.00
H36    H     0.54951   0.25840   0.02772   0.00000  Uiso   1.00
H37    H     0.72505   0.86573   0.22292   0.00000  Uiso   1.00
O38    O     0.51571   0.36748   0.08386   0.00000  Uiso   1.00
O39    O     0.54134   0.32999   0.85515   0.00000  Uiso   1.00
O40    O     0.77165   0.81481   0.11124   0.00000  Uiso   1.00
N41    N     0.54703   0.47799   0.99240   0.00000  Uiso   1.00
N42    N     0.56529   0.16389   0.82942   0.00000  Uiso   1.00
N43    N     0.72940   0.79680   0.01190   0.00000  Uiso   1.00
N44    N     0.53835   0.52702   0.13677   0.00000  Uiso   1.00
N45    N     0.55662   0.21292   0.97378   0.00000  Uiso   1.00
N46    N     0.72073   0.84583   0.15626   0.00000  Uiso   1.00
C47    C     0.42180   0.27991   0.06885   0.00000  Uiso   1.00
C48    C     0.44382   0.20300   0.01922   0.00000  Uiso   1.00
C49    C     0.45676   0.11044   0.05732   0.00000  Uiso   1.00
C50    C     0.47635   0.05094   0.00059   0.00000  Uiso   1.00
C51    C     0.50959   0.92668   0.93747   0.00000  Uiso   1.00
C52    C     0.43669   0.39139   0.06358   0.00000  Uiso   1.00
C53    C     0.44363   0.45722   0.13898   0.00000  Uiso   1.00
C54    C     0.45721   0.55630   0.11958   0.00000  Uiso   1.00
C55    C     0.47935   0.72454   0.12533   0.00000  Uiso   1.00
C56    C     0.39296   0.28573   0.00827   0.00000  Uiso   1.00
C57    C     0.36313   0.26276   0.03715   0.00000  Uiso   1.00
C58    C     0.33989   0.27291   0.97118   0.00000  Uiso   1.00
C59    C     0.29414   0.27710   0.89105   0.00000  Uiso   1.00
C60    C     0.43358   0.33883   0.90034   0.00000  Uiso   1.00
C61    C     0.45022   0.23501   0.92770   0.00000  Uiso   1.00
C62    C     0.46980   0.17563   0.87089   0.00000  Uiso   1.00
C63    C     0.48276   0.08299   0.90889   0.00000  Uiso   1.00
C64    C     0.44309   0.42339   0.97206   0.00000  Uiso   1.00
C65    C     0.45667   0.52240   0.95254   0.00000  Uiso   1.00
C66    C     0.46363   0.58836   0.02789   0.00000  Uiso   1.00
C67    C     0.39936   0.31773   0.91674   0.00000  Uiso   1.00
C68    C     0.37617   0.32793   0.85072   0.00000  Uiso   1.00
C69    C     0.34631   0.30497   0.87949   0.00000  Uiso   1.00
H70    H     0.41681   0.25501   0.14011   0.00000  Uiso   1.00
H71    H     0.45180   0.08571   0.12816   0.00000  Uiso   1.00
H72    H     0.43867   0.43243   0.20980   0.00000  Uiso   1.00
H73    H     0.35818   0.23799   0.10799   0.00000  Uiso   1.00
H74    H     0.49342   0.91215   0.07456   0.00000  Uiso   1.00
H75    H     0.46572   0.64325   0.24670   0.00000  Uiso   1.00
H76    H     0.29600   0.23324   0.03201   0.00000  Uiso   1.00
H77    H     0.43857   0.36375   0.82908   0.00000  Uiso   1.00
H78    H     0.47475   0.20041   0.80006   0.00000  Uiso   1.00
H79    H     0.46162   0.54714   0.88171   0.00000  Uiso   1.00
H80    H     0.38113   0.35270   0.77989   0.00000  Uiso   1.00
H81    H     0.51205   0.00525   0.80827   0.00000  Uiso   1.00
H82    H     0.48435   0.73635   0.98041   0.00000  Uiso   1.00
H83    H     0.31463   0.32634   0.76572   0.00000  Uiso   1.00
O84    O     0.52616   0.84931   0.92795   0.00000  Uiso   1.00
O85    O     0.48980   0.80849   0.15379   0.00000  Uiso   1.00
O86    O     0.26714   0.27056   0.87212   0.00000  Uiso   1.00
N87    N     0.49284   0.95646   0.01586   0.00000  Uiso   1.00
N88    N     0.46694   0.63999   0.17681   0.00000  Uiso   1.00
N89    N     0.30827   0.25669   0.97610   0.00000  Uiso   1.00
N90    N     0.50286   0.00656   0.87257   0.00000  Uiso   1.00
N91    N     0.47696   0.69009   0.03352   0.00000  Uiso   1.00
N92    N     0.31829   0.30679   0.83281   0.00000  Uiso   1.00
C93    C     0.38533   0.19148   0.43188   0.00000  Uiso   1.00
C94    C     0.40608   0.27060   0.48385   0.00000  Uiso   1.00
C95    C     0.41871   0.36443   0.44712   0.00000  Uiso   1.00
C96    C     0.43710   0.42591   0.50593   0.00000  Uiso   1.00
C97    C     0.46850   0.55350   0.57258   0.00000  Uiso   1.00
C98    C     0.40106   0.08157   0.43893   0.00000  Uiso   1.00
C99    C     0.40945   0.01645   0.36443   0.00000  Uiso   1.00
C100   C     0.42360   0.91880   0.38543   0.00000  Uiso   1.00
C101   C     0.44718   0.75287   0.38233   0.00000  Uiso   1.00
C102   C     0.35583   0.18276   0.48922   0.00000  Uiso   1.00
C103   C     0.32619   0.20269   0.45700   0.00000  Uiso   1.00
C104   C     0.30226   0.19020   0.52035   0.00000  Uiso   1.00
C105   C     0.25561   0.18139   0.59534   0.00000  Uiso   1.00
C106   C     0.39553   0.13382   0.60165   0.00000  Uiso   1.00
C107   C     0.41163   0.23928   0.57606   0.00000  Uiso   1.00
C108   C     0.43000   0.30063   0.63495   0.00000  Uiso   1.00
C109   C     0.44265   0.39454   0.59831   0.00000  Uiso   1.00
C110   C     0.40660   0.05025   0.53113   0.00000  Uiso   1.00
C111   C     0.42074   0.95266   0.55225   0.00000  Uiso   1.00
C112   C     0.42915   0.88742   0.47781   0.00000  Uiso   1.00
C113   C     0.36137   0.15144   0.58143   0.00000  Uiso   1.00
C114   C     0.33748   0.13890   0.64484   0.00000  Uiso   1.00
C115   C     0.30781   0.15882   0.61273   0.00000  Uiso   1.00
H116   H     0.38101   0.21586   0.36009   0.00000  Uiso   1.00
H117   H     0.41442   0.38863   0.37575   0.00000  Uiso   1.00
H118   H     0.40516   0.04071   0.29307   0.00000  Uiso   1.00
H119   H     0.32191   0.22693   0.38564   0.00000  Uiso   1.00
H120   H     0.45391   0.56635   0.43377   0.00000  Uiso   1.00
H121   H     0.43437   0.83272   0.25944   0.00000  Uiso   1.00
H122   H     0.25883   0.22539   0.45463   0.00000  Uiso   1.00
H123   H     0.39984   0.10943   0.67345   0.00000  Uiso   1.00
H124   H     0.43428   0.27637   0.70630   0.00000  Uiso   1.00
H125   H     0.42502   0.92845   0.62362   0.00000  Uiso   1.00
H126   H     0.34177   0.11466   0.71619   0.00000  Uiso   1.00
H127   H     0.47003   0.47524   0.70205   0.00000  Uiso   1.00
H128   H     0.45049   0.74160   0.52772   0.00000  Uiso   1.00
H129   H     0.27495   0.13427   0.72292   0.00000  Uiso   1.00
O130   O     0.48429   0.63252   0.58386   0.00000  Uiso   1.00
O131   O     0.45866   0.67001   0.35515   0.00000  Uiso   1.00
O132   O     0.22835   0.18519   0.61124   0.00000  Uiso   1.00
N133   N     0.45297   0.52201   0.49240   0.00000  Uiso   1.00
N134   N     0.43471   0.83611   0.32942   0.00000  Uiso   1.00
N135   N     0.27060   0.20320   0.51190   0.00000  Uiso   1.00
N136   N     0.46165   0.47298   0.63677   0.00000  Uiso   1.00
N137   N     0.44338   0.78708   0.47378   0.00000  Uiso   1.00
N138   N     0.27927   0.15417   0.65626   0.00000  Uiso   1.00
C139   C     0.57820   0.72009   0.56885   0.00000  Uiso   1.00
C140   C     0.55618   0.79700   0.51922   0.00000  Uiso   1.00
C141   C     0.54324   0.88956   0.55732   0.00000  Uiso   1.00
C142   C     0.52365   0.94906   0.50059   0.00000  Uiso   1.00
C143   C     0.49041   0.07332   0.43747   0.00000  Uiso   1.00
C144   C     0.56331   0.60861   0.56358   0.00000  Uiso   1.00
C145   C     0.55637   0.54278   0.63898   0.00000  Uiso   1.00
C146   C     0.54279   0.44370   0.61958   0.00000  Uiso   1.00
C147   C     0.52065   0.27546   0.62533   0.00000  Uiso   1.00
C148   C     0.60704   0.71427   0.50827   0.00000  Uiso   1.00
C149   C     0.63687   0.73724   0.53715   0.00000  Uiso   1.00
C150   C     0.66011   0.72709   0.47118   0.00000  Uiso   1.00
C151   C     0.70586   0.72290   0.39105   0.00000  Uiso   1.00
C152   C     0.56642   0.66117   0.40034   0.00000  Uiso   1.00
C153   C     0.54978   0.76499   0.42770   0.00000  Uiso   1.00
C154   C     0.53020   0.82437   0.37089   0.00000  Uiso   1.00
C155   C     0.51724   0.91701   0.40889   0.00000  Uiso   1.00
C156   C     0.55691   0.57661   0.47206   0.00000  Uiso   1.00
C157   C     0.54333   0.47760   0.45254   0.00000  Uiso   1.00
C158   C     0.53637   0.41164   0.52789   0.00000  Uiso   1.00
C159   C     0.60064   0.68227   0.41674   0.00000  Uiso   1.00
C160   C     0.62383   0.67207   0.35072   0.00000  Uiso   1.00
C161   C     0.65369   0.69503   0.37949   0.00000  Uiso   1.00
H162   H     0.58319   0.74499   0.64011   0.00000  Uiso   1.00
H163   H     0.54820   0.91429   0.62816   0.00000  Uiso   1.00
H164   H     0.56133   0.56757   0.70980   0.00000  Uiso   1.00
H165   H     0.64182   0.76201   0.60799   0.00000  Uiso   1.00
H166   H     0.50658   0.08785   0.57456   0.00000  Uiso   1.00
H167   H     0.53428   0.35675   0.74670   0.00000  Uiso   1.00
H168   H     0.70400   0.76676   0.53201   0.00000  Uiso   1.00
H169   H     0.56143   0.63625   0.32908   0.00000  Uiso   1.00
H170   H     0.52525   0.79959   0.30006   0.00000  Uiso   1.00
H171   H     0.53838   0.45286   0.38171   0.00000  Uiso   1.00
H172   H     0.61887   0.64730   0.27989   0.00000  Uiso   1.00
H173   H     0.48795   0.99475   0.30827   0.00000  Uiso   1.00
H174   H     0.51565   0.26365   0.48041   0.00000  Uiso   1.00
H175   H     0.68537   0.67366   0.26572   0.00000  Uiso   1.00
O176   O     0.47384   0.15069   0.42795   0.00000  Uiso   1.00
O177   O     0.51020   0.19151   0.65379   0.00000  Uiso   1.00
O178   O     0.73286   0.72944   0.37212   0.00000  Uiso   1.00
N179   N     0.50716   0.04354   0.51586   0.00000  Uiso   1.00
N180   N     0.53306   0.36001   0.67681   0.00000  Uiso   1.00
N181   N     0.69173   0.74331   0.47610   0.00000  Uiso   1.00
N182   N     0.49714   0.99344   0.37257   0.00000  Uiso   1.00
N183   N     0.52304   0.30991   0.53352   0.00000  Uiso   1.00
N184   N     0.68171   0.69321   0.33281   0.00000  Uiso   1.00
C185   C     0.11467   0.19148   0.93188   0.00000  Uiso   1.00
C186   C     0.09392   0.27060   0.98385   0.00000  Uiso   1.00
C187   C     0.08129   0.36443   0.94712   0.00000  Uiso   1.00
C188   C     0.06290   0.42591   0.00593   0.00000  Uiso   1.00
C189   C     0.03150   0.55350   0.07258   0.00000  Uiso   1.00
C190   C     0.09894   0.08157   0.93893   0.00000  Uiso   1.00
C191   C     0.09055   0.01645   0.86443   0.00000  Uiso   1.00
C192   C     0.07640   0.91880   0.88543   0.00000  Uiso   1.00
C193   C     0.05282   0.75287   0.88233   0.00000  Uiso   1.00
C194   C     0.14417   0.18276   0.98922   0.00000  Uiso   1.00
C195   C     0.17381   0.20269   0.95700   0.00000  Uiso   1.00
C196   C     0.19774   0.19020   0.02035   0.00000  Uiso   1.00
C197   C     0.24439   0.18139   0.09534   0.00000  Uiso   1.00
C198   C     0.10447   0.13382   0.10165   0.00000  Uiso   1.00
C199   C     0.08837   0.23928   0.07606   0.00000  Uiso   1.00
C200   C     0.07000   0.30063   0.13495   0.00000  Uiso   1.00
C201   C     0.05735   0.39454   0.09831   0.00000  Uiso   1.00
C202   C     0.09340   0.05025   0.03113   0.00000  Uiso   1.00
C203   C     0.07926   0.95266   0.05225   0.00000  Uiso   1.00
C204   C     0.07085   0.88742   0.97781   0.00000  Uiso   1.00
C205   C     0.13863   0.15144   0.08143   0.00000  Uiso   1.00
C206   C     0.16252   0.13890   0.14484   0.00000  Uiso   1.00
C207   C     0.19219   0.15882   0.11273   0.00000  Uiso   1.00
H208   H     0.11899   0.21586   0.86009   0.00000  Uiso   1.00
H209   H     0.08558   0.38863   0.87575   0.00000  Uiso   1.00
H210   H     0.09484   0.04071   0.79307   0.00000  Uiso   1.00
H211   H     0.17809   0.22693   0.88564   0.00000  Uiso   1.00
H212   H     0.04609   0.56635   0.93377   0.00000  Uiso   1.00
H213   H     0.06563   0.83272   0.75944   0.00000  Uiso   1.00
H214   H     0.24117   0.22539   0.95463   0.00000  Uiso   1.00
H215   H     0.10016   0.10943   0.17345   0.00000  Uiso   1.00
H216   H     0.06572   0.27637   0.20630   0.00000  Uiso   1.00
H217   H     0.07498   0.92845   0.12362   0.00000  Uiso   1.00
H218   H     0.15823   0.11466   0.21619   0.00000  Uiso   1.00
H219   H     0.02997   0.47524   0.20205   0.00000  Uiso   1.00
H220   H     0.04951   0.74160   0.02772   0.00000  Uiso   1.00
H221   H     0.22505   0.13427   0.22292   0.00000  Uiso   1.00
O222   O     0.01571   0.63252   0.08386   0.00000  Uiso   1.00
O223   O     0.04134   0.67001   0.85515   0.00000  Uiso   1.00
O224   O     0.27165   0.18519   0.11124   0.00000  Uiso   1.00
N225   N     0.04703   0.52201   0.99240   0.00000  Uiso   1.00
N226   N     0.06529   0.83611   0.82942   0.00000  Uiso   1.00
N227   N     0.22940   0.20320   0.01190   0.00000  Uiso   1.00
N228   N     0.03835   0.47298   0.13677   0.00000  Uiso   1.00
N229   N     0.05662   0.78708   0.97378   0.00000  Uiso   1.00
N230   N     0.22073   0.15417   0.15626   0.00000  Uiso   1.00
C231   C     0.92180   0.72009   0.06885   0.00000  Uiso   1.00
C232   C     0.94382   0.79700   0.01922   0.00000  Uiso   1.00
C233   C     0.95676   0.88956   0.05732   0.00000  Uiso   1.00
C234   C     0.97635   0.94906   0.00059   0.00000  Uiso   1.00
C235   C     0.00959   0.07332   0.93747   0.00000  Uiso   1.00
C236   C     0.93669   0.60861   0.06358   0.00000  Uiso   1.00
C237   C     0.94363   0.54278   0.13898   0.00000  Uiso   1.00
C238   C     0.95721   0.44370   0.11958   0.00000  Uiso   1.00
C239   C     0.97935   0.27546   0.12533   0.00000  Uiso   1.00
C240   C     0.89296   0.71427   0.00827   0.00000  Uiso   1.00
C241   C     0.86313   0.73724   0.03715   0.00000  Uiso   1.00
C242   C     0.83989   0.72709   0.97118   0.00000  Uiso   1.00
C243   C     0.79414   0.72290   0.89105   0.00000  Uiso   1.00
C244   C     0.93358   0.66117   0.90034   0.00000  Uiso   1.00
C245   C     0.95022   0.76499   0.92770   0.00000  Uiso   1.00
C246   C     0.96980   0.82437   0.87089   0.00000  Uiso   1.00
C247   C     0.98276   0.91701   0.90889   0.00000  Uiso   1.00
C248   C     0.94309   0.57661   0.97206   0.00000  Uiso   1.00
C249   C     0.95667   0.47760   0.95254   0.00000  Uiso   1.00
C250   C     0.96363   0.41164   0.02789   0.00000  Uiso   1.00
C251   C     0.89936   0.68227   0.91674   0.00000  Uiso   1.00
C252   C     0.87617   0.67207   0.85072   0.00000  Uiso   1.00
C253   C     0.84631   0.69503   0.87949   0.00000  Uiso   1.00
H254   H     0.91681   0.74499   0.14011   0.00000  Uiso   1.00
H255   H     0.95180   0.91429   0.12816   0.00000  Uiso   1.00
H256   H     0.93867   0.56757   0.20980   0.00000  Uiso   1.00
H257   H     0.85818   0.76201   0.10799   0.00000  Uiso   1.00
H258   H     0.99342   0.08785   0.07456   0.00000  Uiso   1.00
H259   H     0.96572   0.35675   0.24670   0.00000  Uiso   1.00
H260   H     0.79600   0.76676   0.03201   0.00000  Uiso   1.00
H261   H     0.93857   0.63625   0.82908   0.00000  Uiso   1.00
H262   H     0.97475   0.79959   0.80006   0.00000  Uiso   1.00
H263   H     0.96162   0.45286   0.88171   0.00000  Uiso   1.00
H264   H     0.88113   0.64730   0.77989   0.00000  Uiso   1.00
H265   H     0.01205   0.99475   0.80827   0.00000  Uiso   1.00
H266   H     0.98435   0.26365   0.98041   0.00000  Uiso   1.00
H267   H     0.81463   0.67366   0.76572   0.00000  Uiso   1.00
O268   O     0.02616   0.15069   0.92795   0.00000  Uiso   1.00
O269   O     0.98980   0.19151   0.15379   0.00000  Uiso   1.00
O270   O     0.76714   0.72944   0.87212   0.00000  Uiso   1.00
N271   N     0.99284   0.04354   0.01586   0.00000  Uiso   1.00
N272   N     0.96694   0.36001   0.17681   0.00000  Uiso   1.00
N273   N     0.80827   0.74331   0.97610   0.00000  Uiso   1.00
N274   N     0.00286   0.99344   0.87257   0.00000  Uiso   1.00
N275   N     0.97696   0.30991   0.03352   0.00000  Uiso   1.00
N276   N     0.81829   0.69321   0.83281   0.00000  Uiso   1.00
C277   C     0.88533   0.80852   0.43188   0.00000  Uiso   1.00
C278   C     0.90608   0.72940   0.48385   0.00000  Uiso   1.00
C279   C     0.91871   0.63557   0.44712   0.00000  Uiso   1.00
C280   C     0.93710   0.57409   0.50593   0.00000  Uiso   1.00
C281   C     0.96850   0.44650   0.57258   0.00000  Uiso   1.00
C282   C     0.90106   0.91843   0.43893   0.00000  Uiso   1.00
C283   C     0.90945   0.98355   0.36443   0.00000  Uiso   1.00
C284   C     0.92360   0.08120   0.38543   0.00000  Uiso   1.00
C285   C     0.94718   0.24713   0.38233   0.00000  Uiso   1.00
C286   C     0.85583   0.81724   0.48922   0.00000  Uiso   1.00
C287   C     0.82619   0.79731   0.45700   0.00000  Uiso   1.00
C288   C     0.80226   0.80980   0.52035   0.00000  Uiso   1.00
C289   C     0.75561   0.81861   0.59534   0.00000  Uiso   1.00
C290   C     0.89553   0.86618   0.60165   0.00000  Uiso   1.00
C291   C     0.91163   0.76072   0.57606   0.00000  Uiso   1.00
C292   C     0.93000   0.69937   0.63495   0.00000  Uiso   1.00
C293   C     0.94265   0.60546   0.59831   0.00000  Uiso   1.00
C294   C     0.90660   0.94975   0.53113   0.00000  Uiso   1.00
C295   C     0.92074   0.04734   0.55225   0.00000  Uiso   1.00
C296   C     0.92915   0.11258   0.47781   0.00000  Uiso   1.00
C297   C     0.86137   0.84856   0.58143   0.00000  Uiso   1.00
C298   C     0.83748   0.86110   0.64484   0.00000  Uiso   1.00
C299   C     0.80781   0.84118   0.61273   0.00000  Uiso   1.00
H300   H     0.88101   0.78414   0.36009   0.00000  Uiso   1.00
H301   H     0.91442   0.61137   0.37575   0.00000  Uiso   1.00
H302   H     0.90516   0.95929   0.29307   0.00000  Uiso   1.00
H303   H     0.82191   0.77307   0.38564   0.00000  Uiso   1.00
H304   H     0.95391   0.43365   0.43377   0.00000  Uiso   1.00
H305   H     0.93437   0.16728   0.25944   0.00000  Uiso   1.00
H306   H     0.75883   0.77461   0.45463   0.00000  Uiso   1.00
H307   H     0.89984   0.89057   0.67345   0.00000  Uiso   1.00
H308   H     0.93428   0.72363   0.70630   0.00000  Uiso   1.00
H309   H     0.92502   0.07155   0.62362   0.00000  Uiso   1.00
H310   H     0.84177   0.88534   0.71619   0.00000  Uiso   1.00
H311   H     0.97003   0.52476   0.70205   0.00000  Uiso   1.00
H312   H     0.95049   0.25840   0.52772   0.00000  Uiso   1.00
H313   H     0.77495   0.86573   0.72292   0.00000  Uiso   1.00
O314   O     0.98429   0.36748   0.58386   0.00000  Uiso   1.00
O315   O     0.95866   0.32999   0.35515   0.00000  Uiso   1.00
O316   O     0.72835   0.81481   0.61124   0.00000  Uiso   1.00
N317   N     0.95297   0.47799   0.49240   0.00000  Uiso   1.00
N318   N     0.93471   0.16389   0.32942   0.00000  Uiso   1.00
N319   N     0.77060   0.79680   0.51190   0.00000  Uiso   1.00
N320   N     0.96165   0.52702   0.63677   0.00000  Uiso   1.00
N321   N     0.94338   0.21292   0.47378   0.00000  Uiso   1.00
N322   N     0.77927   0.84583   0.65626   0.00000  Uiso   1.00
C323   C     0.07820   0.27991   0.56885   0.00000  Uiso   1.00
C324   C     0.05618   0.20300   0.51922   0.00000  Uiso   1.00
C325   C     0.04324   0.11044   0.55732   0.00000  Uiso   1.00
C326   C     0.02365   0.05094   0.50059   0.00000  Uiso   1.00
C327   C     0.99041   0.92668   0.43747   0.00000  Uiso   1.00
C328   C     0.06331   0.39139   0.56358   0.00000  Uiso   1.00
C329   C     0.05637   0.45722   0.63898   0.00000  Uiso   1.00
C330   C     0.04279   0.55630   0.61958   0.00000  Uiso   1.00
C331   C     0.02065   0.72454   0.62533   0.00000  Uiso   1.00
C332   C     0.10704   0.28573   0.50827   0.00000  Uiso   1.00
C333   C     0.13687   0.26276   0.53715   0.00000  Uiso   1.00
C334   C     0.16011   0.27291   0.47118   0.00000  Uiso   1.00
C335   C     0.20586   0.27710   0.39105   0.00000  Uiso   1.00
C336   C     0.06642   0.33883   0.40034   0.00000  Uiso   1.00
C337   C     0.04978   0.23501   0.42770   0.00000  Uiso   1.00
C338   C     0.03020   0.17563   0.37089   0.00000  Uiso   1.00
C339   C     0.01724   0.08299   0.40889   0.00000  Uiso   1.00
C340   C     0.05691   0.42339   0.47206   0.00000  Uiso   1.00
C341   C     0.04333   0.52240   0.45254   0.00000  Uiso   1.00
C342   C     0.03637   0.58836   0.52789   0.00000  Uiso   1.00
C343   C     0.10064   0.31773   0.41674   0.00000  Uiso   1.00
C344   C     0.12383   0.32793   0.35072   0.00000  Uiso   1.00
C345   C     0.15369   0.30497   0.37949   0.00000  Uiso   1.00
H346   H     0.08319   0.25501   0.64011   0.00000  Uiso   1.00
H347   H     0.04820   0.08571   0.62816   0.00000  Uiso   1.00
H348   H     0.06133   0.43243   0.70980   0.00000  Uiso   1.00
H349   H     0.14182   0.23799   0.60799   0.00000  Uiso   1.00
H350   H     0.00658   0.91215   0.57456   0.00000  Uiso   1.00
H351   H     0.03428   0.64325   0.74670   0.00000  Uiso   1.00
H352   H     0.20400   0.23324   0.53201   0.00000  Uiso   1.00
H353   H     0.06143   0.36375   0.32908   0.00000  Uiso   1.00
H354   H     0.02525   0.20041   0.30006   0.00000  Uiso   1.00
H355   H     0.03838   0.54714   0.38171   0.00000  Uiso   1.00
H356   H     0.11887   0.35270   0.27989   0.00000  Uiso   1.00
H357   H     0.98795   0.00525   0.30827   0.00000  Uiso   1.00
H358   H     0.01565   0.73635   0.48041   0.00000  Uiso   1.00
H359   H     0.18537   0.32634   0.26572   0.00000  Uiso   1.00
O360   O     0.97384   0.84931   0.42795   0.00000  Uiso   1.00
O361   O     0.01020   0.80849   0.65379   0.00000  Uiso   1.00
O362   O     0.23286   0.27056   0.37212   0.00000  Uiso   1.00
N363   N     0.00716   0.95646   0.51586   0.00000  Uiso   1.00
N364   N     0.03306   0.63999   0.67681   0.00000  Uiso   1.00
N365   N     0.19173   0.25669   0.47610   0.00000  Uiso   1.00
N366   N     0.99714   0.00656   0.37257   0.00000  Uiso   1.00
N367   N     0.02304   0.69009   0.53352   0.00000  Uiso   1.00
N368   N     0.18171   0.30679   0.33281   0.00000  Uiso   1.00
