data_job_06118
_audit_creation_date              2018-12-19
_audit_creation_method            'Materials Studio'
_symmetry_space_group_name_H-M    'P1'
_symmetry_Int_Tables_number       1
_symmetry_cell_setting            triclinic
loop_
_symmetry_equiv_pos_as_xyz
  x,y,z
_cell_length_a                    12.5957
_cell_length_b                    18.4902
_cell_length_c                    19.4002
_cell_angle_alpha                 114.8680
_cell_angle_beta                  75.8952
_cell_angle_gamma                 82.3579
loop_
_atom_site_label
_atom_site_type_symbol
_atom_site_fract_x
_atom_site_fract_y
_atom_site_fract_z
_atom_site_U_iso_or_equiv
_atom_site_adp_type
_atom_site_occupancy
C1     C     0.22628   0.68724   0.53610   0.00000  Uiso   1.00
C2     C     0.25863   0.75726   0.59697   0.00000  Uiso   1.00
C3     C     0.33909   0.74777   0.63245   0.00000  Uiso   1.00
C4     C     0.35632   0.81952   0.68665   0.00000  Uiso   1.00
C5     C     0.41580   0.91631   0.77846   0.00000  Uiso   1.00
C6     C     0.09835   0.70273   0.57191   0.00000  Uiso   1.00
C7     C     0.04406   0.64739   0.58631   0.00000  Uiso   1.00
C8     C     0.92637   0.67325   0.61941   0.00000  Uiso   1.00
C9     C     0.73701   0.68537   0.67227   0.00000  Uiso   1.00
C10    C     0.24477   0.70064   0.46215   0.00000  Uiso   1.00
C11    C     0.31357   0.64353   0.38424   0.00000  Uiso   1.00
C12    C     0.31913   0.66762   0.32492   0.00000  Uiso   1.00
C13    C     0.35711   0.67648   0.20734   0.00000  Uiso   1.00
C14    C     0.11380   0.83156   0.56926   0.00000  Uiso   1.00
C15    C     0.19753   0.83564   0.61498   0.00000  Uiso   1.00
C16    C     0.21465   0.90743   0.66914   0.00000  Uiso   1.00
C17    C     0.29512   0.89805   0.70469   0.00000  Uiso   1.00
C18    C     0.03726   0.78112   0.58993   0.00000  Uiso   1.00
C19    C     0.91962   0.80706   0.62301   0.00000  Uiso   1.00
C20    C     0.86516   0.75178   0.63746   0.00000  Uiso   1.00
C21    C     0.18368   0.77902   0.48016   0.00000  Uiso   1.00
C22    C     0.18913   0.80320   0.42094   0.00000  Uiso   1.00
C23    C     0.25792   0.74615   0.34297   0.00000  Uiso   1.00
H24    H     0.27383   0.62622   0.52207   0.00000  Uiso   1.00
H25    H     0.38634   0.68709   0.61849   0.00000  Uiso   1.00
H26    H     0.09136   0.58673   0.57236   0.00000  Uiso   1.00
H27    H     0.36083   0.58288   0.37033   0.00000  Uiso   1.00
H28    H     0.48410   0.78915   0.73336   0.00000  Uiso   1.00
H29    H     0.86211   0.57753   0.63606   0.00000  Uiso   1.00
H30    H     0.43034   0.56939   0.21003   0.00000  Uiso   1.00
H31    H     0.06623   0.89259   0.58329   0.00000  Uiso   1.00
H32    H     0.16736   0.96808   0.68307   0.00000  Uiso   1.00
H33    H     0.87237   0.86772   0.63694   0.00000  Uiso   1.00
H34    H     0.14184   0.86387   0.43491   0.00000  Uiso   1.00
H35    H     0.30636   0.01722   0.78578   0.00000  Uiso   1.00
H36    H     0.68437   0.80559   0.68847   0.00000  Uiso   1.00
H37    H     0.25260   0.79746   0.26245   0.00000  Uiso   1.00
O38    O     0.46547   0.94805   0.82413   0.00000  Uiso   1.00
O39    O     0.64945   0.67040   0.69645   0.00000  Uiso   1.00
O40    O     0.39495   0.65972   0.13752   0.00000  Uiso   1.00
N41    N     0.42841   0.83247   0.73199   0.00000  Uiso   1.00
N42    N     0.84689   0.63462   0.64103   0.00000  Uiso   1.00
N43    N     0.37811   0.62700   0.24273   0.00000  Uiso   1.00
N44    N     0.33277   0.95519   0.76020   0.00000  Uiso   1.00
N45    N     0.75125   0.75734   0.66924   0.00000  Uiso   1.00
N46    N     0.28247   0.74972   0.27093   0.00000  Uiso   1.00
C47    C     0.76196   0.47008   0.14356   0.00000  Uiso   1.00
C48    C     0.85022   0.41051   0.15009   0.00000  Uiso   1.00
C49    C     0.96482   0.38043   0.10447   0.00000  Uiso   1.00
C50    C     0.03154   0.32652   0.11955   0.00000  Uiso   1.00
C51    C     0.17562   0.23749   0.12075   0.00000  Uiso   1.00
C52    C     0.66907   0.42697   0.12683   0.00000  Uiso   1.00
C53    C     0.63134   0.41073   0.06165   0.00000  Uiso   1.00
C54    C     0.54556   0.37068   0.05715   0.00000  Uiso   1.00
C55    C     0.40833   0.30725   0.02227   0.00000  Uiso   1.00
C56    C     0.70816   0.54380   0.22768   0.00000  Uiso   1.00
C57    C     0.70328   0.62581   0.24731   0.00000  Uiso   1.00
C58    C     0.65038   0.68413   0.32772   0.00000  Uiso   1.00
C59    C     0.57386   0.80211   0.44943   0.00000  Uiso   1.00
C60    C     0.67668   0.42784   0.25145   0.00000  Uiso   1.00
C61    C     0.80390   0.38757   0.20870   0.00000  Uiso   1.00
C62    C     0.87047   0.33370   0.22385   0.00000  Uiso   1.00
C63    C     0.98514   0.30354   0.17826   0.00000  Uiso   1.00
C64    C     0.62275   0.40403   0.18543   0.00000  Uiso   1.00
C65    C     0.53699   0.36400   0.18103   0.00000  Uiso   1.00
C66    C     0.49915   0.34770   0.11586   0.00000  Uiso   1.00
C67    C     0.66184   0.52086   0.28629   0.00000  Uiso   1.00
C68    C     0.60893   0.57907   0.36669   0.00000  Uiso   1.00
C69    C     0.60398   0.66115   0.38643   0.00000  Uiso   1.00
H70    H     0.79802   0.48794   0.09793   0.00000  Uiso   1.00
H71    H     0.00063   0.39819   0.05911   0.00000  Uiso   1.00
H72    H     0.66719   0.42850   0.01631   0.00000  Uiso   1.00
H73    H     0.73913   0.64354   0.20194   0.00000  Uiso   1.00
H74    H     0.20482   0.28855   0.04192   0.00000  Uiso   1.00
H75    H     0.50174   0.35247   0.95167   0.00000  Uiso   1.00
H76    H     0.65342   0.80593   0.34310   0.00000  Uiso   1.00
H77    H     0.64062   0.40998   0.29709   0.00000  Uiso   1.00
H78    H     0.83460   0.31596   0.26921   0.00000  Uiso   1.00
H79    H     0.50116   0.34626   0.22640   0.00000  Uiso   1.00
H80    H     0.57310   0.56130   0.41202   0.00000  Uiso   1.00
H81    H     0.07006   0.22180   0.21243   0.00000  Uiso   1.00
H82    H     0.36697   0.28573   0.12219   0.00000  Uiso   1.00
H83    H     0.51866   0.73919   0.51361   0.00000  Uiso   1.00
O84    O     0.26788   0.19471   0.10522   0.00000  Uiso   1.00
O85    O     0.34544   0.27859   0.98683   0.00000  Uiso   1.00
O86    O     0.54446   0.87351   0.50038   0.00000  Uiso   1.00
N87    N     0.14649   0.28576   0.08588   0.00000  Uiso   1.00
N88    N     0.48916   0.34551   0.00150   0.00000  Uiso   1.00
N89    N     0.63094   0.76946   0.36745   0.00000  Uiso   1.00
N90    N     0.07398   0.24984   0.17763   0.00000  Uiso   1.00
N91    N     0.41665   0.30960   0.09326   0.00000  Uiso   1.00
N92    N     0.55843   0.73354   0.45920   0.00000  Uiso   1.00
C93    C     0.89902   0.86052   0.32398   0.00000  Uiso   1.00
C94    C     0.99533   0.86045   0.25869   0.00000  Uiso   1.00
C95    C     0.06608   0.91275   0.27142   0.00000  Uiso   1.00
C96    C     0.14906   0.90289   0.20377   0.00000  Uiso   1.00
C97    C     0.29678   0.91194   0.11418   0.00000  Uiso   1.00
C98    C     0.79235   0.87246   0.30170   0.00000  Uiso   1.00
C99    C     0.69243   0.93486   0.35061   0.00000  Uiso   1.00
C100   C     0.60454   0.93510   0.31917   0.00000  Uiso   1.00
C101   C     0.43710   0.96277   0.29638   0.00000  Uiso   1.00
C102   C     0.92415   0.77291   0.31371   0.00000  Uiso   1.00
C103   C     0.93503   0.75159   0.37271   0.00000  Uiso   1.00
C104   C     0.95808   0.66802   0.35139   0.00000  Uiso   1.00
C105   C     0.99529   0.54112   0.34724   0.00000  Uiso   1.00
C106   C     0.92057   0.75001   0.18120   0.00000  Uiso   1.00
C107   C     0.00703   0.80043   0.18113   0.00000  Uiso   1.00
C108   C     0.08992   0.79048   0.11344   0.00000  Uiso   1.00
C109   C     0.16079   0.84275   0.12608   0.00000  Uiso   1.00
C110   C     0.80405   0.81244   0.22415   0.00000  Uiso   1.00
C111   C     0.71628   0.81259   0.19263   0.00000  Uiso   1.00
C112   C     0.61626   0.87497   0.24147   0.00000  Uiso   1.00
C113   C     0.93586   0.71288   0.23615   0.00000  Uiso   1.00
C114   C     0.95888   0.62933   0.21473   0.00000  Uiso   1.00
C115   C     0.96980   0.60789   0.27369   0.00000  Uiso   1.00
H116   H     0.88990   0.90725   0.38436   0.00000  Uiso   1.00
H117   H     0.05699   0.95920   0.33145   0.00000  Uiso   1.00
H118   H     0.68340   0.98130   0.41062   0.00000  Uiso   1.00
H119   H     0.92597   0.79806   0.43272   0.00000  Uiso   1.00
H120   H     0.24737   0.99034   0.23858   0.00000  Uiso   1.00
H121   H     0.45962   0.03692   0.40554   0.00000  Uiso   1.00
H122   H     0.97112   0.65053   0.45214   0.00000  Uiso   1.00
H123   H     0.92968   0.70327   0.12082   0.00000  Uiso   1.00
H124   H     0.09896   0.74402   0.05344   0.00000  Uiso   1.00
H125   H     0.72536   0.76613   0.13262   0.00000  Uiso   1.00
H126   H     0.96793   0.58289   0.15471   0.00000  Uiso   1.00
H127   H     0.28143   0.81570   0.01293   0.00000  Uiso   1.00
H128   H     0.49368   0.86228   0.17989   0.00000  Uiso   1.00
H129   H     0.00518   0.47589   0.22649   0.00000  Uiso   1.00
O130   O     0.37501   0.93353   0.08619   0.00000  Uiso   1.00
O131   O     0.34151   0.99463   0.30524   0.00000  Uiso   1.00
O132   O     0.01259   0.48770   0.36637   0.00000  Uiso   1.00
N133   N     0.23217   0.94364   0.19472   0.00000  Uiso   1.00
N134   N     0.49568   0.98719   0.35081   0.00000  Uiso   1.00
N135   N     0.97385   0.62595   0.39439   0.00000  Uiso   1.00
N136   N     0.25050   0.84966   0.07330   0.00000  Uiso   1.00
N137   N     0.51401   0.89322   0.22939   0.00000  Uiso   1.00
N138   N     0.99218   0.53198   0.27297   0.00000  Uiso   1.00
C139   C     0.77372   0.31276   0.46390   0.00000  Uiso   1.00
C140   C     0.74137   0.24274   0.40303   0.00000  Uiso   1.00
C141   C     0.66091   0.25223   0.36755   0.00000  Uiso   1.00
C142   C     0.64368   0.18048   0.31335   0.00000  Uiso   1.00
C143   C     0.58420   0.08369   0.22154   0.00000  Uiso   1.00
C144   C     0.90165   0.29727   0.42809   0.00000  Uiso   1.00
C145   C     0.95594   0.35261   0.41369   0.00000  Uiso   1.00
C146   C     0.07363   0.32675   0.38059   0.00000  Uiso   1.00
C147   C     0.26299   0.31463   0.32773   0.00000  Uiso   1.00
C148   C     0.75523   0.29936   0.53785   0.00000  Uiso   1.00
C149   C     0.68644   0.35647   0.61576   0.00000  Uiso   1.00
C150   C     0.68087   0.33238   0.67508   0.00000  Uiso   1.00
C151   C     0.64289   0.32352   0.79266   0.00000  Uiso   1.00
C152   C     0.88620   0.16844   0.43074   0.00000  Uiso   1.00
C153   C     0.80247   0.16436   0.38502   0.00000  Uiso   1.00
C154   C     0.78535   0.09257   0.33086   0.00000  Uiso   1.00
C155   C     0.70488   0.10195   0.29531   0.00000  Uiso   1.00
C156   C     0.96274   0.21888   0.41007   0.00000  Uiso   1.00
C157   C     0.08038   0.19294   0.37699   0.00000  Uiso   1.00
C158   C     0.13484   0.24822   0.36254   0.00000  Uiso   1.00
C159   C     0.81632   0.22098   0.51984   0.00000  Uiso   1.00
C160   C     0.81087   0.19680   0.57906   0.00000  Uiso   1.00
C161   C     0.74208   0.25385   0.65703   0.00000  Uiso   1.00
H162   H     0.72617   0.37378   0.47793   0.00000  Uiso   1.00
H163   H     0.61366   0.31291   0.38151   0.00000  Uiso   1.00
H164   H     0.90864   0.41327   0.42764   0.00000  Uiso   1.00
H165   H     0.63917   0.41712   0.62967   0.00000  Uiso   1.00
H166   H     0.51590   0.21085   0.26664   0.00000  Uiso   1.00
H167   H     0.13789   0.42247   0.36394   0.00000  Uiso   1.00
H168   H     0.56966   0.43061   0.78997   0.00000  Uiso   1.00
H169   H     0.93377   0.10741   0.41671   0.00000  Uiso   1.00
H170   H     0.83264   0.03192   0.31693   0.00000  Uiso   1.00
H171   H     0.12763   0.13228   0.36306   0.00000  Uiso   1.00
H172   H     0.85816   0.13614   0.56509   0.00000  Uiso   1.00
H173   H     0.69364   0.98278   0.21422   0.00000  Uiso   1.00
H174   H     0.31563   0.19441   0.31153   0.00000  Uiso   1.00
H175   H     0.74740   0.20254   0.73755   0.00000  Uiso   1.00
O176   O     0.53453   0.05195   0.17587   0.00000  Uiso   1.00
O177   O     0.35055   0.32960   0.30355   0.00000  Uiso   1.00
O178   O     0.60505   0.34028   0.86248   0.00000  Uiso   1.00
N179   N     0.57159   0.16753   0.26801   0.00000  Uiso   1.00
N180   N     0.15311   0.36538   0.35897   0.00000  Uiso   1.00
N181   N     0.62189   0.37300   0.75727   0.00000  Uiso   1.00
N182   N     0.66723   0.04481   0.23980   0.00000  Uiso   1.00
N183   N     0.24875   0.24266   0.33076   0.00000  Uiso   1.00
N184   N     0.71753   0.25028   0.72907   0.00000  Uiso   1.00
C185   C     0.23804   0.52992   0.85645   0.00000  Uiso   1.00
C186   C     0.14978   0.58949   0.84991   0.00000  Uiso   1.00
C187   C     0.03519   0.61957   0.89553   0.00000  Uiso   1.00
C188   C     0.96846   0.67348   0.88046   0.00000  Uiso   1.00
C189   C     0.82438   0.76251   0.87925   0.00000  Uiso   1.00
C190   C     0.33094   0.57303   0.87317   0.00000  Uiso   1.00
C191   C     0.36866   0.58927   0.93835   0.00000  Uiso   1.00
C192   C     0.45444   0.62932   0.94285   0.00000  Uiso   1.00
C193   C     0.59167   0.69275   0.97773   0.00000  Uiso   1.00
C194   C     0.29184   0.45620   0.77232   0.00000  Uiso   1.00
C195   C     0.29672   0.37419   0.75269   0.00000  Uiso   1.00
C196   C     0.34962   0.31587   0.67228   0.00000  Uiso   1.00
C197   C     0.42614   0.19789   0.55057   0.00000  Uiso   1.00
C198   C     0.32332   0.57216   0.74855   0.00000  Uiso   1.00
C199   C     0.19611   0.61243   0.79130   0.00000  Uiso   1.00
C200   C     0.12953   0.66630   0.77615   0.00000  Uiso   1.00
C201   C     0.01486   0.69646   0.82174   0.00000  Uiso   1.00
C202   C     0.37725   0.59597   0.81457   0.00000  Uiso   1.00
C203   C     0.46301   0.63600   0.81897   0.00000  Uiso   1.00
C204   C     0.50085   0.65230   0.88414   0.00000  Uiso   1.00
C205   C     0.33816   0.47914   0.71371   0.00000  Uiso   1.00
C206   C     0.39107   0.42093   0.63331   0.00000  Uiso   1.00
C207   C     0.39602   0.33885   0.61357   0.00000  Uiso   1.00
H208   H     0.20198   0.51206   0.90207   0.00000  Uiso   1.00
H209   H     0.99937   0.60181   0.94089   0.00000  Uiso   1.00
H210   H     0.33281   0.57150   0.98369   0.00000  Uiso   1.00
H211   H     0.26087   0.35647   0.79806   0.00000  Uiso   1.00
H212   H     0.79518   0.71145   0.95809   0.00000  Uiso   1.00
H213   H     0.49826   0.64753   0.04833   0.00000  Uiso   1.00
H214   H     0.34658   0.19407   0.65690   0.00000  Uiso   1.00
H215   H     0.35938   0.59002   0.70291   0.00000  Uiso   1.00
H216   H     0.16540   0.68404   0.73079   0.00000  Uiso   1.00
H217   H     0.49884   0.65374   0.77360   0.00000  Uiso   1.00
H218   H     0.42690   0.43870   0.58798   0.00000  Uiso   1.00
H219   H     0.92994   0.77820   0.78757   0.00000  Uiso   1.00
H220   H     0.63303   0.71427   0.87781   0.00000  Uiso   1.00
H221   H     0.48134   0.26082   0.48639   0.00000  Uiso   1.00
O222   O     0.73212   0.80529   0.89478   0.00000  Uiso   1.00
O223   O     0.65456   0.72141   0.01317   0.00000  Uiso   1.00
O224   O     0.45554   0.12649   0.49962   0.00000  Uiso   1.00
N225   N     0.85351   0.71424   0.91412   0.00000  Uiso   1.00
N226   N     0.51084   0.65449   0.99850   0.00000  Uiso   1.00
N227   N     0.36906   0.23054   0.63255   0.00000  Uiso   1.00
N228   N     0.92602   0.75016   0.82237   0.00000  Uiso   1.00
N229   N     0.58335   0.69040   0.90674   0.00000  Uiso   1.00
N230   N     0.44157   0.26646   0.54080   0.00000  Uiso   1.00
C231   C     0.10098   0.13948   0.67602   0.00000  Uiso   1.00
C232   C     0.00467   0.13955   0.74131   0.00000  Uiso   1.00
C233   C     0.93392   0.08725   0.72858   0.00000  Uiso   1.00
C234   C     0.85094   0.09711   0.79623   0.00000  Uiso   1.00
C235   C     0.70322   0.08806   0.88582   0.00000  Uiso   1.00
C236   C     0.20765   0.12754   0.69830   0.00000  Uiso   1.00
C237   C     0.30757   0.06514   0.64939   0.00000  Uiso   1.00
C238   C     0.39546   0.06490   0.68083   0.00000  Uiso   1.00
C239   C     0.56290   0.03723   0.70362   0.00000  Uiso   1.00
C240   C     0.07585   0.22709   0.68629   0.00000  Uiso   1.00
C241   C     0.06497   0.24841   0.62729   0.00000  Uiso   1.00
C242   C     0.04192   0.33198   0.64861   0.00000  Uiso   1.00
C243   C     0.00472   0.45888   0.65276   0.00000  Uiso   1.00
C244   C     0.07943   0.24999   0.81880   0.00000  Uiso   1.00
C245   C     0.99297   0.19957   0.81887   0.00000  Uiso   1.00
C246   C     0.91008   0.20952   0.88656   0.00000  Uiso   1.00
C247   C     0.83921   0.15725   0.87392   0.00000  Uiso   1.00
C248   C     0.19595   0.18756   0.77585   0.00000  Uiso   1.00
C249   C     0.28372   0.18741   0.80737   0.00000  Uiso   1.00
C250   C     0.38374   0.12503   0.75853   0.00000  Uiso   1.00
C251   C     0.06414   0.28712   0.76385   0.00000  Uiso   1.00
C252   C     0.04112   0.37068   0.78527   0.00000  Uiso   1.00
C253   C     0.03020   0.39212   0.72631   0.00000  Uiso   1.00
H254   H     0.11010   0.09275   0.61564   0.00000  Uiso   1.00
H255   H     0.94301   0.04080   0.66855   0.00000  Uiso   1.00
H256   H     0.31660   0.01870   0.58938   0.00000  Uiso   1.00
H257   H     0.07403   0.20194   0.56728   0.00000  Uiso   1.00
H258   H     0.75263   0.00966   0.76142   0.00000  Uiso   1.00
H259   H     0.54038   0.96308   0.59446   0.00000  Uiso   1.00
H260   H     0.02888   0.34947   0.54786   0.00000  Uiso   1.00
H261   H     0.07032   0.29673   0.87919   0.00000  Uiso   1.00
H262   H     0.90104   0.25598   0.94656   0.00000  Uiso   1.00
H263   H     0.27464   0.23388   0.86738   0.00000  Uiso   1.00
H264   H     0.03207   0.41711   0.84529   0.00000  Uiso   1.00
H265   H     0.71857   0.18430   0.98707   0.00000  Uiso   1.00
H266   H     0.50632   0.13772   0.82011   0.00000  Uiso   1.00
H267   H     0.99482   0.52411   0.77351   0.00000  Uiso   1.00
O268   O     0.62499   0.06647   0.91382   0.00000  Uiso   1.00
O269   O     0.65849   0.00537   0.69476   0.00000  Uiso   1.00
O270   O     0.98741   0.51230   0.63363   0.00000  Uiso   1.00
N271   N     0.76783   0.05636   0.80528   0.00000  Uiso   1.00
N272   N     0.50432   0.01281   0.64919   0.00000  Uiso   1.00
N273   N     0.02615   0.37405   0.60561   0.00000  Uiso   1.00
N274   N     0.74950   0.15034   0.92670   0.00000  Uiso   1.00
N275   N     0.48599   0.10678   0.77061   0.00000  Uiso   1.00
N276   N     0.00782   0.46802   0.72703   0.00000  Uiso   1.00
