data_job_05912
_audit_creation_date              2018-12-19
_audit_creation_method            'Materials Studio'
_symmetry_space_group_name_H-M    'P1'
_symmetry_Int_Tables_number       1
_symmetry_cell_setting            triclinic
loop_
_symmetry_equiv_pos_as_xyz
  x,y,z
_cell_length_a                    15.2724
_cell_length_b                    14.9704
_cell_length_c                    14.3802
_cell_angle_alpha                 96.3152
_cell_angle_beta                  96.4879
_cell_angle_gamma                 95.7813
loop_
_atom_site_label
_atom_site_type_symbol
_atom_site_fract_x
_atom_site_fract_y
_atom_site_fract_z
_atom_site_U_iso_or_equiv
_atom_site_adp_type
_atom_site_occupancy
C1     C     0.86242   0.52726   0.19047   0.00000  Uiso   1.00
C2     C     0.81781   0.57420   0.26889   0.00000  Uiso   1.00
C3     C     0.72834   0.56064   0.27910   0.00000  Uiso   1.00
C4     C     0.70052   0.61011   0.35556   0.00000  Uiso   1.00
C5     C     0.62218   0.67377   0.46758   0.00000  Uiso   1.00
C6     C     0.90805   0.60259   0.14364   0.00000  Uiso   1.00
C7     C     0.89445   0.61289   0.04853   0.00000  Uiso   1.00
C8     C     0.94261   0.68625   0.01956   0.00000  Uiso   1.00
C9     C     0.00441   0.79395   0.93711   0.00000  Uiso   1.00
C10    C     0.93658   0.48173   0.23949   0.00000  Uiso   1.00
C11    C     0.94699   0.39041   0.22496   0.00000  Uiso   1.00
C12    C     0.01918   0.36202   0.27667   0.00000  Uiso   1.00
C13    C     0.12529   0.28206   0.34304   0.00000  Uiso   1.00
C14    C     0.97212   0.63921   0.30812   0.00000  Uiso   1.00
C15    C     0.87740   0.63500   0.33279   0.00000  Uiso   1.00
C16    C     0.84971   0.68450   0.40926   0.00000  Uiso   1.00
C17    C     0.76021   0.67102   0.41958   0.00000  Uiso   1.00
C18    C     0.96763   0.66339   0.20754   0.00000  Uiso   1.00
C19    C     0.01582   0.73675   0.17870   0.00000  Uiso   1.00
C20    C     0.00230   0.74717   0.08357   0.00000  Uiso   1.00
C21    C     0.99617   0.54253   0.30339   0.00000  Uiso   1.00
C22    C     0.06836   0.51427   0.35513   0.00000  Uiso   1.00
C23    C     0.07888   0.42293   0.34068   0.00000  Uiso   1.00
H24    H     0.81604   0.47993   0.14072   0.00000  Uiso   1.00
H25    H     0.68224   0.51359   0.22962   0.00000  Uiso   1.00
H26    H     0.84835   0.56582   0.99910   0.00000  Uiso   1.00
H27    H     0.90087   0.34338   0.17550   0.00000  Uiso   1.00
H28    H     0.56019   0.57775   0.35636   0.00000  Uiso   1.00
H29    H     0.91044   0.68787   0.87028   0.00000  Uiso   1.00
H30    H     0.02120   0.21881   0.24225   0.00000  Uiso   1.00
H31    H     0.01851   0.68655   0.35787   0.00000  Uiso   1.00
H32    H     0.89583   0.73155   0.45870   0.00000  Uiso   1.00
H33    H     0.06193   0.78378   0.22817   0.00000  Uiso   1.00
H34    H     0.11446   0.56134   0.40457   0.00000  Uiso   1.00
H35    H     0.73354   0.75465   0.54228   0.00000  Uiso   1.00
H36    H     0.08380   0.86478   0.05619   0.00000  Uiso   1.00
H37    H     0.19456   0.39571   0.42817   0.00000  Uiso   1.00
O38    O     0.56250   0.69210   0.51171   0.00000  Uiso   1.00
O39    O     0.02203   0.83656   0.87399   0.00000  Uiso   1.00
O40    O     0.16734   0.22116   0.36201   0.00000  Uiso   1.00
N41    N     0.61783   0.61319   0.38629   0.00000  Uiso   1.00
N42    N     0.94528   0.71616   0.93183   0.00000  Uiso   1.00
N43    N     0.04885   0.27763   0.27958   0.00000  Uiso   1.00
N44    N     0.71111   0.70838   0.48633   0.00000  Uiso   1.00
N45    N     0.03856   0.81135   0.03187   0.00000  Uiso   1.00
N46    N     0.14213   0.37282   0.37962   0.00000  Uiso   1.00
C47    C     0.19613   0.86090   0.52486   0.00000  Uiso   1.00
C48    C     0.27027   0.81532   0.57387   0.00000  Uiso   1.00
C49    C     0.28062   0.72400   0.55934   0.00000  Uiso   1.00
C50    C     0.35277   0.69555   0.61106   0.00000  Uiso   1.00
C51    C     0.45879   0.61552   0.67747   0.00000  Uiso   1.00
C52    C     0.15154   0.90783   0.60330   0.00000  Uiso   1.00
C53    C     0.06207   0.89430   0.61352   0.00000  Uiso   1.00
C54    C     0.03428   0.94374   0.69001   0.00000  Uiso   1.00
C55    C     0.95596   0.00739   0.80208   0.00000  Uiso   1.00
C56    C     0.24178   0.93623   0.47806   0.00000  Uiso   1.00
C57    C     0.22816   0.94659   0.38296   0.00000  Uiso   1.00
C58    C     0.27632   0.01996   0.35401   0.00000  Uiso   1.00
C59    C     0.33811   0.12770   0.27162   0.00000  Uiso   1.00
C60    C     0.30587   0.97279   0.64253   0.00000  Uiso   1.00
C61    C     0.32987   0.87609   0.63778   0.00000  Uiso   1.00
C62    C     0.40203   0.84778   0.68953   0.00000  Uiso   1.00
C63    C     0.41248   0.75643   0.67509   0.00000  Uiso   1.00
C64    C     0.21114   0.96860   0.66722   0.00000  Uiso   1.00
C65    C     0.18348   0.01809   0.74371   0.00000  Uiso   1.00
C66    C     0.09398   0.00463   0.75405   0.00000  Uiso   1.00
C67    C     0.30138   0.99700   0.54197   0.00000  Uiso   1.00
C68    C     0.34957   0.07038   0.51316   0.00000  Uiso   1.00
C69    C     0.33603   0.08084   0.41805   0.00000  Uiso   1.00
H70    H     0.14973   0.81360   0.47510   0.00000  Uiso   1.00
H71    H     0.23447   0.67698   0.50988   0.00000  Uiso   1.00
H72    H     0.01596   0.84727   0.56404   0.00000  Uiso   1.00
H73    H     0.18203   0.89955   0.33353   0.00000  Uiso   1.00
H74    H     0.35469   0.55232   0.57665   0.00000  Uiso   1.00
H75    H     0.89394   0.91140   0.69084   0.00000  Uiso   1.00
H76    H     0.24413   0.02165   0.20474   0.00000  Uiso   1.00
H77    H     0.35227   0.02011   0.69230   0.00000  Uiso   1.00
H78    H     0.44814   0.89483   0.73899   0.00000  Uiso   1.00
H79    H     0.22962   0.06511   0.79316   0.00000  Uiso   1.00
H80    H     0.39569   0.11739   0.56264   0.00000  Uiso   1.00
H81    H     0.52811   0.72913   0.76261   0.00000  Uiso   1.00
H82    H     0.06735   0.08821   0.87679   0.00000  Uiso   1.00
H83    H     0.41754   0.19846   0.39071   0.00000  Uiso   1.00
O84    O     0.50079   0.55458   0.69645   0.00000  Uiso   1.00
O85    O     0.89630   0.02569   0.84625   0.00000  Uiso   1.00
O86    O     0.35574   0.17033   0.20851   0.00000  Uiso   1.00
N87    N     0.38236   0.61113   0.61399   0.00000  Uiso   1.00
N88    N     0.95159   0.94684   0.72076   0.00000  Uiso   1.00
N89    N     0.27896   0.04992   0.26631   0.00000  Uiso   1.00
N90    N     0.47568   0.70627   0.71405   0.00000  Uiso   1.00
N91    N     0.04490   0.04198   0.82082   0.00000  Uiso   1.00
N92    N     0.37228   0.14506   0.36637   0.00000  Uiso   1.00
C93    C     0.52798   0.19443   0.85694   0.00000  Uiso   1.00
C94    C     0.57361   0.26973   0.81008   0.00000  Uiso   1.00
C95    C     0.56000   0.28002   0.71498   0.00000  Uiso   1.00
C96    C     0.60817   0.35335   0.68597   0.00000  Uiso   1.00
C97    C     0.66999   0.46101   0.60350   0.00000  Uiso   1.00
C98    C     0.60214   0.14887   0.90594   0.00000  Uiso   1.00
C99    C     0.61249   0.05754   0.89143   0.00000  Uiso   1.00
C100   C     0.68468   0.02912   0.94313   0.00000  Uiso   1.00
C101   C     0.79074   0.94912   0.00952   0.00000  Uiso   1.00
C102   C     0.48341   0.24137   0.93538   0.00000  Uiso   1.00
C103   C     0.39395   0.22781   0.94566   0.00000  Uiso   1.00
C104   C     0.36618   0.27727   0.02216   0.00000  Uiso   1.00
C105   C     0.28792   0.34090   0.13427   0.00000  Uiso   1.00
C106   C     0.63774   0.30634   0.97455   0.00000  Uiso   1.00
C107   C     0.63323   0.33052   0.87397   0.00000  Uiso   1.00
C108   C     0.68144   0.40385   0.84510   0.00000  Uiso   1.00
C109   C     0.66789   0.41425   0.74997   0.00000  Uiso   1.00
C110   C     0.66175   0.20965   0.96982   0.00000  Uiso   1.00
C111   C     0.73393   0.18136   0.02156   0.00000  Uiso   1.00
C112   C     0.74440   0.09002   0.00713   0.00000  Uiso   1.00
C113   C     0.54303   0.30217   0.99927   0.00000  Uiso   1.00
C114   C     0.51539   0.35164   0.07577   0.00000  Uiso   1.00
C115   C     0.42591   0.33816   0.08616   0.00000  Uiso   1.00
H116   H     0.48157   0.14709   0.80720   0.00000  Uiso   1.00
H117   H     0.51386   0.23296   0.66556   0.00000  Uiso   1.00
H118   H     0.56634   0.01051   0.84200   0.00000  Uiso   1.00
H119   H     0.34784   0.18076   0.89621   0.00000  Uiso   1.00
H120   H     0.57598   0.35495   0.53669   0.00000  Uiso   1.00
H121   H     0.68663   0.88589   0.90874   0.00000  Uiso   1.00
H122   H     0.22587   0.24490   0.02306   0.00000  Uiso   1.00
H123   H     0.68416   0.35367   0.02429   0.00000  Uiso   1.00
H124   H     0.72757   0.45088   0.89455   0.00000  Uiso   1.00
H125   H     0.78005   0.22842   0.07099   0.00000  Uiso   1.00
H126   H     0.56155   0.39868   0.12520   0.00000  Uiso   1.00
H127   H     0.74944   0.53182   0.72255   0.00000  Uiso   1.00
H128   H     0.86008   0.06275   0.09460   0.00000  Uiso   1.00
H129   H     0.39932   0.42177   0.20891   0.00000  Uiso   1.00
O130   O     0.68763   0.50358   0.54036   0.00000  Uiso   1.00
O131   O     0.83278   0.88819   0.02848   0.00000  Uiso   1.00
O132   O     0.22828   0.35921   0.17846   0.00000  Uiso   1.00
N133   N     0.61083   0.38325   0.59824   0.00000  Uiso   1.00
N134   N     0.71429   0.94471   0.94607   0.00000  Uiso   1.00
N135   N     0.28352   0.28033   0.05296   0.00000  Uiso   1.00
N136   N     0.70417   0.47842   0.69825   0.00000  Uiso   1.00
N137   N     0.80762   0.03988   0.04608   0.00000  Uiso   1.00
N138   N     0.37685   0.37550   0.15297   0.00000  Uiso   1.00
C139   C     0.13758   0.47274   0.80953   0.00000  Uiso   1.00
C140   C     0.18219   0.42580   0.73111   0.00000  Uiso   1.00
C141   C     0.27166   0.43936   0.72090   0.00000  Uiso   1.00
C142   C     0.29948   0.38989   0.64444   0.00000  Uiso   1.00
C143   C     0.37782   0.32623   0.53242   0.00000  Uiso   1.00
C144   C     0.09195   0.39741   0.85636   0.00000  Uiso   1.00
C145   C     0.10555   0.38711   0.95147   0.00000  Uiso   1.00
C146   C     0.05739   0.31375   0.98044   0.00000  Uiso   1.00
C147   C     0.99559   0.20605   0.06289   0.00000  Uiso   1.00
C148   C     0.06342   0.51827   0.76051   0.00000  Uiso   1.00
C149   C     0.05301   0.60959   0.77504   0.00000  Uiso   1.00
C150   C     0.98081   0.63798   0.72333   0.00000  Uiso   1.00
C151   C     0.87471   0.71794   0.65696   0.00000  Uiso   1.00
C152   C     0.02788   0.36079   0.69188   0.00000  Uiso   1.00
C153   C     0.12260   0.36500   0.66721   0.00000  Uiso   1.00
C154   C     0.15029   0.31550   0.59074   0.00000  Uiso   1.00
C155   C     0.23979   0.32898   0.58042   0.00000  Uiso   1.00
C156   C     0.03237   0.33661   0.79246   0.00000  Uiso   1.00
C157   C     0.98417   0.26325   0.82130   0.00000  Uiso   1.00
C158   C     0.99770   0.25283   0.91643   0.00000  Uiso   1.00
C159   C     0.00383   0.45747   0.69660   0.00000  Uiso   1.00
C160   C     0.93164   0.48573   0.64487   0.00000  Uiso   1.00
C161   C     0.92112   0.57707   0.65932   0.00000  Uiso   1.00
H162   H     0.18396   0.52007   0.85928   0.00000  Uiso   1.00
H163   H     0.31776   0.48641   0.77038   0.00000  Uiso   1.00
H164   H     0.15165   0.43418   0.00090   0.00000  Uiso   1.00
H165   H     0.09913   0.65662   0.82450   0.00000  Uiso   1.00
H166   H     0.43981   0.42225   0.64364   0.00000  Uiso   1.00
H167   H     0.08956   0.31213   0.12972   0.00000  Uiso   1.00
H168   H     0.97880   0.78119   0.75775   0.00000  Uiso   1.00
H169   H     0.98148   0.31345   0.64213   0.00000  Uiso   1.00
H170   H     0.10417   0.26845   0.54130   0.00000  Uiso   1.00
H171   H     0.93807   0.21622   0.77183   0.00000  Uiso   1.00
H172   H     0.88554   0.43866   0.59543   0.00000  Uiso   1.00
H173   H     0.26646   0.24535   0.45772   0.00000  Uiso   1.00
H174   H     0.91620   0.13522   0.94381   0.00000  Uiso   1.00
H175   H     0.80544   0.60429   0.57183   0.00000  Uiso   1.00
O176   O     0.43750   0.30790   0.48829   0.00000  Uiso   1.00
O177   O     0.97797   0.16344   0.12601   0.00000  Uiso   1.00
O178   O     0.83266   0.77884   0.63799   0.00000  Uiso   1.00
N179   N     0.38217   0.38681   0.61371   0.00000  Uiso   1.00
N180   N     0.05472   0.28384   0.06817   0.00000  Uiso   1.00
N181   N     0.95115   0.72237   0.72042   0.00000  Uiso   1.00
N182   N     0.28889   0.29162   0.51367   0.00000  Uiso   1.00
N183   N     0.96144   0.18865   0.96813   0.00000  Uiso   1.00
N184   N     0.85787   0.62718   0.62038   0.00000  Uiso   1.00
C185   C     0.80387   0.13910   0.47514   0.00000  Uiso   1.00
C186   C     0.72973   0.18468   0.42613   0.00000  Uiso   1.00
C187   C     0.71938   0.27600   0.44066   0.00000  Uiso   1.00
C188   C     0.64724   0.30445   0.38894   0.00000  Uiso   1.00
C189   C     0.54121   0.38448   0.32253   0.00000  Uiso   1.00
C190   C     0.84846   0.09217   0.39670   0.00000  Uiso   1.00
C191   C     0.93793   0.10570   0.38648   0.00000  Uiso   1.00
C192   C     0.96572   0.05626   0.30999   0.00000  Uiso   1.00
C193   C     0.04404   0.99261   0.19792   0.00000  Uiso   1.00
C194   C     0.75822   0.06377   0.52194   0.00000  Uiso   1.00
C195   C     0.77184   0.05341   0.61704   0.00000  Uiso   1.00
C196   C     0.72368   0.98004   0.64599   0.00000  Uiso   1.00
C197   C     0.66189   0.87230   0.72838   0.00000  Uiso   1.00
C198   C     0.69413   0.02721   0.35747   0.00000  Uiso   1.00
C199   C     0.67013   0.12391   0.36222   0.00000  Uiso   1.00
C200   C     0.59797   0.15222   0.31047   0.00000  Uiso   1.00
C201   C     0.58752   0.24357   0.32491   0.00000  Uiso   1.00
C202   C     0.78886   0.03140   0.33278   0.00000  Uiso   1.00
C203   C     0.81652   0.98191   0.25629   0.00000  Uiso   1.00
C204   C     0.90601   0.99537   0.24595   0.00000  Uiso   1.00
C205   C     0.69862   0.00300   0.45803   0.00000  Uiso   1.00
C206   C     0.65043   0.92962   0.48684   0.00000  Uiso   1.00
C207   C     0.66397   0.91916   0.58195   0.00000  Uiso   1.00
H208   H     0.85027   0.18641   0.52490   0.00000  Uiso   1.00
H209   H     0.76553   0.32302   0.49012   0.00000  Uiso   1.00
H210   H     0.98404   0.15273   0.43596   0.00000  Uiso   1.00
H211   H     0.81797   0.10045   0.66647   0.00000  Uiso   1.00
H212   H     0.64531   0.44768   0.42335   0.00000  Uiso   1.00
H213   H     0.10606   0.08860   0.30916   0.00000  Uiso   1.00
H214   H     0.75587   0.97835   0.79525   0.00000  Uiso   1.00
H215   H     0.64773   0.97989   0.30770   0.00000  Uiso   1.00
H216   H     0.55186   0.10517   0.26101   0.00000  Uiso   1.00
H217   H     0.77038   0.93489   0.20684   0.00000  Uiso   1.00
H218   H     0.60431   0.88261   0.43736   0.00000  Uiso   1.00
H219   H     0.47189   0.27087   0.23739   0.00000  Uiso   1.00
H220   H     0.93264   0.91179   0.12321   0.00000  Uiso   1.00
H221   H     0.58246   0.80154   0.60929   0.00000  Uiso   1.00
O222   O     0.49921   0.44542   0.30355   0.00000  Uiso   1.00
O223   O     0.10370   0.97431   0.15375   0.00000  Uiso   1.00
O224   O     0.64426   0.82967   0.79149   0.00000  Uiso   1.00
N225   N     0.61764   0.38887   0.38601   0.00000  Uiso   1.00
N226   N     0.04841   0.05316   0.27924   0.00000  Uiso   1.00
N227   N     0.72104   0.95008   0.73369   0.00000  Uiso   1.00
N228   N     0.52432   0.29373   0.28595   0.00000  Uiso   1.00
N229   N     0.95510   0.95802   0.17918   0.00000  Uiso   1.00
N230   N     0.62772   0.85494   0.63363   0.00000  Uiso   1.00
C231   C     0.47202   0.80557   0.14306   0.00000  Uiso   1.00
C232   C     0.42639   0.73027   0.18992   0.00000  Uiso   1.00
C233   C     0.44000   0.71998   0.28502   0.00000  Uiso   1.00
C234   C     0.39183   0.64665   0.31403   0.00000  Uiso   1.00
C235   C     0.33001   0.53899   0.39650   0.00000  Uiso   1.00
C236   C     0.39786   0.85113   0.09406   0.00000  Uiso   1.00
C237   C     0.38751   0.94246   0.10857   0.00000  Uiso   1.00
C238   C     0.31532   0.97088   0.05687   0.00000  Uiso   1.00
C239   C     0.20926   0.05088   0.99048   0.00000  Uiso   1.00
C240   C     0.51659   0.75863   0.06462   0.00000  Uiso   1.00
C241   C     0.60605   0.77219   0.05434   0.00000  Uiso   1.00
C242   C     0.63381   0.72273   0.97784   0.00000  Uiso   1.00
C243   C     0.71208   0.65910   0.86573   0.00000  Uiso   1.00
C244   C     0.36226   0.69366   0.02545   0.00000  Uiso   1.00
C245   C     0.36677   0.66948   0.12603   0.00000  Uiso   1.00
C246   C     0.31856   0.59615   0.15490   0.00000  Uiso   1.00
C247   C     0.33211   0.58575   0.25003   0.00000  Uiso   1.00
C248   C     0.33825   0.79035   0.03018   0.00000  Uiso   1.00
C249   C     0.26607   0.81864   0.97844   0.00000  Uiso   1.00
C250   C     0.25560   0.90998   0.99287   0.00000  Uiso   1.00
C251   C     0.45697   0.69783   0.00073   0.00000  Uiso   1.00
C252   C     0.48461   0.64836   0.92423   0.00000  Uiso   1.00
C253   C     0.57409   0.66184   0.91384   0.00000  Uiso   1.00
H254   H     0.51843   0.85291   0.19280   0.00000  Uiso   1.00
H255   H     0.48614   0.76704   0.33444   0.00000  Uiso   1.00
H256   H     0.43366   0.98949   0.15800   0.00000  Uiso   1.00
H257   H     0.65216   0.81924   0.10379   0.00000  Uiso   1.00
H258   H     0.42402   0.64505   0.46331   0.00000  Uiso   1.00
H259   H     0.31337   0.11411   0.09126   0.00000  Uiso   1.00
H260   H     0.77413   0.75510   0.97694   0.00000  Uiso   1.00
H261   H     0.31584   0.64633   0.97572   0.00000  Uiso   1.00
H262   H     0.27243   0.54912   0.10545   0.00000  Uiso   1.00
H263   H     0.21995   0.77158   0.92901   0.00000  Uiso   1.00
H264   H     0.43845   0.60132   0.87480   0.00000  Uiso   1.00
H265   H     0.25056   0.46818   0.27745   0.00000  Uiso   1.00
H266   H     0.13992   0.93725   0.90540   0.00000  Uiso   1.00
H267   H     0.60068   0.57823   0.79109   0.00000  Uiso   1.00
O268   O     0.31237   0.49642   0.45964   0.00000  Uiso   1.00
O269   O     0.16722   0.11181   0.97152   0.00000  Uiso   1.00
O270   O     0.77172   0.64079   0.82154   0.00000  Uiso   1.00
N271   N     0.38917   0.61675   0.40176   0.00000  Uiso   1.00
N272   N     0.28571   0.05529   0.05393   0.00000  Uiso   1.00
N273   N     0.71648   0.71967   0.94704   0.00000  Uiso   1.00
N274   N     0.29583   0.52158   0.30175   0.00000  Uiso   1.00
N275   N     0.19238   0.96012   0.95392   0.00000  Uiso   1.00
N276   N     0.62315   0.62450   0.84703   0.00000  Uiso   1.00
