data_job_03082
_audit_creation_date              2018-12-19
_audit_creation_method            'Materials Studio'
_symmetry_space_group_name_H-M    'P1'
_symmetry_Int_Tables_number       1
_symmetry_cell_setting            triclinic
loop_
_symmetry_equiv_pos_as_xyz
  x,y,z
_cell_length_a                    16.4060
_cell_length_b                    18.3696
_cell_length_c                    28.6549
_cell_angle_alpha                 90.0000
_cell_angle_beta                  105.9840
_cell_angle_gamma                 90.0000
loop_
_atom_site_label
_atom_site_type_symbol
_atom_site_fract_x
_atom_site_fract_y
_atom_site_fract_z
_atom_site_U_iso_or_equiv
_atom_site_adp_type
_atom_site_occupancy
C1     C     0.92660   0.60288   0.33362   0.00000  Uiso   1.00
C2     C     0.97992   0.65349   0.37234   0.00000  Uiso   1.00
C3     C     0.05764   0.68332   0.37237   0.00000  Uiso   1.00
C4     C     0.09636   0.72830   0.41106   0.00000  Uiso   1.00
C5     C     0.18490   0.80463   0.46551   0.00000  Uiso   1.00
C6     C     0.91221   0.53430   0.36027   0.00000  Uiso   1.00
C7     C     0.93300   0.46393   0.35015   0.00000  Uiso   1.00
C8     C     0.91471   0.40857   0.37869   0.00000  Uiso   1.00
C9     C     0.89808   0.29986   0.41438   0.00000  Uiso   1.00
C10    C     0.84010   0.63923   0.31532   0.00000  Uiso   1.00
C11    C     0.80023   0.65707   0.26740   0.00000  Uiso   1.00
C12    C     0.72122   0.69005   0.25809   0.00000  Uiso   1.00
C13    C     0.59263   0.74426   0.22399   0.00000  Uiso   1.00
C14    C     0.85715   0.62970   0.40230   0.00000  Uiso   1.00
C15    C     0.94219   0.66805   0.40964   0.00000  Uiso   1.00
C16    C     0.98081   0.71300   0.44834   0.00000  Uiso   1.00
C17    C     0.05858   0.74289   0.44843   0.00000  Uiso   1.00
C18    C     0.87449   0.54887   0.39757   0.00000  Uiso   1.00
C19    C     0.85616   0.49360   0.42613   0.00000  Uiso   1.00
C20    C     0.87692   0.42316   0.41605   0.00000  Uiso   1.00
C21    C     0.80237   0.65380   0.35262   0.00000  Uiso   1.00
C22    C     0.72340   0.68675   0.34338   0.00000  Uiso   1.00
C23    C     0.68344   0.70464   0.29546   0.00000  Uiso   1.00
H24    H     0.95597   0.59154   0.30459   0.00000  Uiso   1.00
H25    H     0.08682   0.67203   0.34350   0.00000  Uiso   1.00
H26    H     0.96218   0.45267   0.32128   0.00000  Uiso   1.00
H27    H     0.82944   0.64579   0.23855   0.00000  Uiso   1.00
H28    H     0.21526   0.76768   0.40309   0.00000  Uiso   1.00
H29    H     0.95244   0.30514   0.35624   0.00000  Uiso   1.00
H30    H     0.67254   0.71237   0.18178   0.00000  Uiso   1.00
H31    H     0.82779   0.64104   0.43134   0.00000  Uiso   1.00
H32    H     0.95160   0.72426   0.47720   0.00000  Uiso   1.00
H33    H     0.82697   0.50489   0.45499   0.00000  Uiso   1.00
H34    H     0.69423   0.69801   0.37225   0.00000  Uiso   1.00
H35    H     0.10552   0.81006   0.51162   0.00000  Uiso   1.00
H36    H     0.84269   0.34752   0.46476   0.00000  Uiso   1.00
H37    H     0.56279   0.75475   0.29030   0.00000  Uiso   1.00
O38    O     0.24417   0.84270   0.48525   0.00000  Uiso   1.00
O39    O     0.89934   0.23587   0.42377   0.00000  Uiso   1.00
O40    O     0.53212   0.77014   0.19488   0.00000  Uiso   1.00
N41    N     0.17244   0.76624   0.42233   0.00000  Uiso   1.00
N42    N     0.92672   0.33380   0.37854   0.00000  Uiso   1.00
N43    N     0.66503   0.71451   0.21543   0.00000  Uiso   1.00
N44    N     0.11338   0.78905   0.48073   0.00000  Uiso   1.00
N45    N     0.86767   0.35661   0.43693   0.00000  Uiso   1.00
N46    N     0.60598   0.73731   0.27382   0.00000  Uiso   1.00
C47    C     0.42660   0.10288   0.33362   0.00000  Uiso   1.00
C48    C     0.47992   0.15349   0.37234   0.00000  Uiso   1.00
C49    C     0.55764   0.18332   0.37237   0.00000  Uiso   1.00
C50    C     0.59636   0.22830   0.41106   0.00000  Uiso   1.00
C51    C     0.68490   0.30463   0.46551   0.00000  Uiso   1.00
C52    C     0.41221   0.03430   0.36027   0.00000  Uiso   1.00
C53    C     0.43300   0.96393   0.35015   0.00000  Uiso   1.00
C54    C     0.41471   0.90857   0.37869   0.00000  Uiso   1.00
C55    C     0.39808   0.79986   0.41438   0.00000  Uiso   1.00
C56    C     0.34010   0.13923   0.31532   0.00000  Uiso   1.00
C57    C     0.30023   0.15707   0.26740   0.00000  Uiso   1.00
C58    C     0.22122   0.19005   0.25809   0.00000  Uiso   1.00
C59    C     0.09263   0.24426   0.22399   0.00000  Uiso   1.00
C60    C     0.35715   0.12970   0.40230   0.00000  Uiso   1.00
C61    C     0.44219   0.16805   0.40964   0.00000  Uiso   1.00
C62    C     0.48081   0.21300   0.44834   0.00000  Uiso   1.00
C63    C     0.55858   0.24289   0.44843   0.00000  Uiso   1.00
C64    C     0.37449   0.04887   0.39757   0.00000  Uiso   1.00
C65    C     0.35616   0.99360   0.42613   0.00000  Uiso   1.00
C66    C     0.37692   0.92316   0.41605   0.00000  Uiso   1.00
C67    C     0.30237   0.15380   0.35262   0.00000  Uiso   1.00
C68    C     0.22340   0.18675   0.34338   0.00000  Uiso   1.00
C69    C     0.18344   0.20464   0.29546   0.00000  Uiso   1.00
H70    H     0.45597   0.09154   0.30459   0.00000  Uiso   1.00
H71    H     0.58682   0.17203   0.34350   0.00000  Uiso   1.00
H72    H     0.46218   0.95267   0.32128   0.00000  Uiso   1.00
H73    H     0.32944   0.14579   0.23855   0.00000  Uiso   1.00
H74    H     0.71526   0.26768   0.40309   0.00000  Uiso   1.00
H75    H     0.45244   0.80514   0.35624   0.00000  Uiso   1.00
H76    H     0.17254   0.21237   0.18178   0.00000  Uiso   1.00
H77    H     0.32779   0.14104   0.43134   0.00000  Uiso   1.00
H78    H     0.45160   0.22426   0.47720   0.00000  Uiso   1.00
H79    H     0.32697   0.00489   0.45499   0.00000  Uiso   1.00
H80    H     0.19423   0.19801   0.37225   0.00000  Uiso   1.00
H81    H     0.60552   0.31006   0.51162   0.00000  Uiso   1.00
H82    H     0.34269   0.84752   0.46476   0.00000  Uiso   1.00
H83    H     0.06279   0.25475   0.29030   0.00000  Uiso   1.00
O84    O     0.74417   0.34270   0.48525   0.00000  Uiso   1.00
O85    O     0.39934   0.73587   0.42377   0.00000  Uiso   1.00
O86    O     0.03212   0.27014   0.19488   0.00000  Uiso   1.00
N87    N     0.67244   0.26624   0.42233   0.00000  Uiso   1.00
N88    N     0.42672   0.83380   0.37854   0.00000  Uiso   1.00
N89    N     0.16503   0.21451   0.21543   0.00000  Uiso   1.00
N90    N     0.61338   0.28905   0.48073   0.00000  Uiso   1.00
N91    N     0.36767   0.85661   0.43693   0.00000  Uiso   1.00
N92    N     0.10598   0.23731   0.27382   0.00000  Uiso   1.00
C93    C     0.07340   0.60288   0.16638   0.00000  Uiso   1.00
C94    C     0.02008   0.65349   0.12766   0.00000  Uiso   1.00
C95    C     0.94236   0.68332   0.12763   0.00000  Uiso   1.00
C96    C     0.90364   0.72830   0.08894   0.00000  Uiso   1.00
C97    C     0.81510   0.80463   0.03449   0.00000  Uiso   1.00
C98    C     0.08779   0.53430   0.13973   0.00000  Uiso   1.00
C99    C     0.06700   0.46393   0.14985   0.00000  Uiso   1.00
C100   C     0.08529   0.40857   0.12131   0.00000  Uiso   1.00
C101   C     0.10192   0.29986   0.08562   0.00000  Uiso   1.00
C102   C     0.15990   0.63923   0.18468   0.00000  Uiso   1.00
C103   C     0.19977   0.65707   0.23260   0.00000  Uiso   1.00
C104   C     0.27878   0.69005   0.24191   0.00000  Uiso   1.00
C105   C     0.40737   0.74426   0.27601   0.00000  Uiso   1.00
C106   C     0.14285   0.62970   0.09770   0.00000  Uiso   1.00
C107   C     0.05781   0.66805   0.09036   0.00000  Uiso   1.00
C108   C     0.01919   0.71300   0.05166   0.00000  Uiso   1.00
C109   C     0.94142   0.74289   0.05157   0.00000  Uiso   1.00
C110   C     0.12551   0.54887   0.10243   0.00000  Uiso   1.00
C111   C     0.14384   0.49360   0.07387   0.00000  Uiso   1.00
C112   C     0.12308   0.42316   0.08395   0.00000  Uiso   1.00
C113   C     0.19763   0.65380   0.14738   0.00000  Uiso   1.00
C114   C     0.27660   0.68675   0.15662   0.00000  Uiso   1.00
C115   C     0.31656   0.70464   0.20454   0.00000  Uiso   1.00
H116   H     0.04403   0.59154   0.19541   0.00000  Uiso   1.00
H117   H     0.91318   0.67203   0.15650   0.00000  Uiso   1.00
H118   H     0.03782   0.45267   0.17872   0.00000  Uiso   1.00
H119   H     0.17056   0.64579   0.26145   0.00000  Uiso   1.00
H120   H     0.78474   0.76768   0.09691   0.00000  Uiso   1.00
H121   H     0.04756   0.30514   0.14376   0.00000  Uiso   1.00
H122   H     0.32746   0.71237   0.31822   0.00000  Uiso   1.00
H123   H     0.17221   0.64104   0.06866   0.00000  Uiso   1.00
H124   H     0.04840   0.72426   0.02280   0.00000  Uiso   1.00
H125   H     0.17303   0.50489   0.04501   0.00000  Uiso   1.00
H126   H     0.30577   0.69801   0.12775   0.00000  Uiso   1.00
H127   H     0.89448   0.81006   0.98838   0.00000  Uiso   1.00
H128   H     0.15731   0.34752   0.03524   0.00000  Uiso   1.00
H129   H     0.43721   0.75475   0.20970   0.00000  Uiso   1.00
O130   O     0.75583   0.84270   0.01475   0.00000  Uiso   1.00
O131   O     0.10066   0.23587   0.07623   0.00000  Uiso   1.00
O132   O     0.46788   0.77014   0.30512   0.00000  Uiso   1.00
N133   N     0.82756   0.76624   0.07767   0.00000  Uiso   1.00
N134   N     0.07328   0.33380   0.12146   0.00000  Uiso   1.00
N135   N     0.33497   0.71451   0.28457   0.00000  Uiso   1.00
N136   N     0.88662   0.78905   0.01927   0.00000  Uiso   1.00
N137   N     0.13233   0.35661   0.06307   0.00000  Uiso   1.00
N138   N     0.39402   0.73731   0.22618   0.00000  Uiso   1.00
C139   C     0.57340   0.10288   0.16638   0.00000  Uiso   1.00
C140   C     0.52008   0.15349   0.12766   0.00000  Uiso   1.00
C141   C     0.44236   0.18332   0.12763   0.00000  Uiso   1.00
C142   C     0.40364   0.22830   0.08894   0.00000  Uiso   1.00
C143   C     0.31510   0.30463   0.03449   0.00000  Uiso   1.00
C144   C     0.58779   0.03430   0.13973   0.00000  Uiso   1.00
C145   C     0.56700   0.96393   0.14985   0.00000  Uiso   1.00
C146   C     0.58529   0.90857   0.12131   0.00000  Uiso   1.00
C147   C     0.60192   0.79986   0.08562   0.00000  Uiso   1.00
C148   C     0.65990   0.13923   0.18468   0.00000  Uiso   1.00
C149   C     0.69977   0.15707   0.23260   0.00000  Uiso   1.00
C150   C     0.77878   0.19005   0.24191   0.00000  Uiso   1.00
C151   C     0.90737   0.24426   0.27601   0.00000  Uiso   1.00
C152   C     0.64285   0.12970   0.09770   0.00000  Uiso   1.00
C153   C     0.55781   0.16805   0.09036   0.00000  Uiso   1.00
C154   C     0.51919   0.21300   0.05166   0.00000  Uiso   1.00
C155   C     0.44142   0.24289   0.05157   0.00000  Uiso   1.00
C156   C     0.62551   0.04887   0.10243   0.00000  Uiso   1.00
C157   C     0.64384   0.99360   0.07387   0.00000  Uiso   1.00
C158   C     0.62308   0.92316   0.08395   0.00000  Uiso   1.00
C159   C     0.69763   0.15380   0.14738   0.00000  Uiso   1.00
C160   C     0.77660   0.18675   0.15662   0.00000  Uiso   1.00
C161   C     0.81656   0.20464   0.20454   0.00000  Uiso   1.00
H162   H     0.54403   0.09154   0.19541   0.00000  Uiso   1.00
H163   H     0.41318   0.17203   0.15650   0.00000  Uiso   1.00
H164   H     0.53782   0.95267   0.17872   0.00000  Uiso   1.00
H165   H     0.67056   0.14579   0.26145   0.00000  Uiso   1.00
H166   H     0.28474   0.26768   0.09691   0.00000  Uiso   1.00
H167   H     0.54756   0.80514   0.14376   0.00000  Uiso   1.00
H168   H     0.82746   0.21237   0.31822   0.00000  Uiso   1.00
H169   H     0.67221   0.14104   0.06866   0.00000  Uiso   1.00
H170   H     0.54840   0.22426   0.02280   0.00000  Uiso   1.00
H171   H     0.67303   0.00489   0.04501   0.00000  Uiso   1.00
H172   H     0.80577   0.19801   0.12775   0.00000  Uiso   1.00
H173   H     0.39448   0.31006   0.98838   0.00000  Uiso   1.00
H174   H     0.65731   0.84752   0.03524   0.00000  Uiso   1.00
H175   H     0.93721   0.25475   0.20970   0.00000  Uiso   1.00
O176   O     0.25583   0.34270   0.01475   0.00000  Uiso   1.00
O177   O     0.60066   0.73587   0.07623   0.00000  Uiso   1.00
O178   O     0.96788   0.27014   0.30512   0.00000  Uiso   1.00
N179   N     0.32756   0.26624   0.07767   0.00000  Uiso   1.00
N180   N     0.57328   0.83380   0.12146   0.00000  Uiso   1.00
N181   N     0.83497   0.21451   0.28457   0.00000  Uiso   1.00
N182   N     0.38662   0.28905   0.01927   0.00000  Uiso   1.00
N183   N     0.63233   0.85661   0.06307   0.00000  Uiso   1.00
N184   N     0.89402   0.23731   0.22618   0.00000  Uiso   1.00
C185   C     0.07340   0.39712   0.66638   0.00000  Uiso   1.00
C186   C     0.02008   0.34651   0.62766   0.00000  Uiso   1.00
C187   C     0.94236   0.31668   0.62763   0.00000  Uiso   1.00
C188   C     0.90364   0.27170   0.58894   0.00000  Uiso   1.00
C189   C     0.81510   0.19537   0.53449   0.00000  Uiso   1.00
C190   C     0.08779   0.46570   0.63973   0.00000  Uiso   1.00
C191   C     0.06700   0.53607   0.64985   0.00000  Uiso   1.00
C192   C     0.08529   0.59143   0.62131   0.00000  Uiso   1.00
C193   C     0.10192   0.70014   0.58562   0.00000  Uiso   1.00
C194   C     0.15990   0.36077   0.68468   0.00000  Uiso   1.00
C195   C     0.19977   0.34293   0.73260   0.00000  Uiso   1.00
C196   C     0.27878   0.30995   0.74191   0.00000  Uiso   1.00
C197   C     0.40737   0.25574   0.77601   0.00000  Uiso   1.00
C198   C     0.14285   0.37030   0.59770   0.00000  Uiso   1.00
C199   C     0.05781   0.33195   0.59036   0.00000  Uiso   1.00
C200   C     0.01919   0.28700   0.55166   0.00000  Uiso   1.00
C201   C     0.94142   0.25711   0.55157   0.00000  Uiso   1.00
C202   C     0.12551   0.45113   0.60243   0.00000  Uiso   1.00
C203   C     0.14384   0.50640   0.57387   0.00000  Uiso   1.00
C204   C     0.12308   0.57684   0.58395   0.00000  Uiso   1.00
C205   C     0.19763   0.34620   0.64738   0.00000  Uiso   1.00
C206   C     0.27660   0.31325   0.65662   0.00000  Uiso   1.00
C207   C     0.31656   0.29536   0.70454   0.00000  Uiso   1.00
H208   H     0.04403   0.40846   0.69541   0.00000  Uiso   1.00
H209   H     0.91318   0.32797   0.65650   0.00000  Uiso   1.00
H210   H     0.03782   0.54733   0.67872   0.00000  Uiso   1.00
H211   H     0.17056   0.35421   0.76145   0.00000  Uiso   1.00
H212   H     0.78474   0.23232   0.59691   0.00000  Uiso   1.00
H213   H     0.04756   0.69486   0.64376   0.00000  Uiso   1.00
H214   H     0.32746   0.28763   0.81822   0.00000  Uiso   1.00
H215   H     0.17221   0.35896   0.56866   0.00000  Uiso   1.00
H216   H     0.04840   0.27574   0.52280   0.00000  Uiso   1.00
H217   H     0.17303   0.49511   0.54501   0.00000  Uiso   1.00
H218   H     0.30577   0.30199   0.62775   0.00000  Uiso   1.00
H219   H     0.89448   0.18994   0.48838   0.00000  Uiso   1.00
H220   H     0.15731   0.65248   0.53524   0.00000  Uiso   1.00
H221   H     0.43721   0.24525   0.70970   0.00000  Uiso   1.00
O222   O     0.75583   0.15730   0.51475   0.00000  Uiso   1.00
O223   O     0.10066   0.76413   0.57623   0.00000  Uiso   1.00
O224   O     0.46788   0.22986   0.80512   0.00000  Uiso   1.00
N225   N     0.82756   0.23376   0.57767   0.00000  Uiso   1.00
N226   N     0.07328   0.66620   0.62146   0.00000  Uiso   1.00
N227   N     0.33497   0.28549   0.78457   0.00000  Uiso   1.00
N228   N     0.88662   0.21095   0.51927   0.00000  Uiso   1.00
N229   N     0.13233   0.64339   0.56307   0.00000  Uiso   1.00
N230   N     0.39402   0.26269   0.72618   0.00000  Uiso   1.00
C231   C     0.57340   0.89712   0.66638   0.00000  Uiso   1.00
C232   C     0.52008   0.84651   0.62766   0.00000  Uiso   1.00
C233   C     0.44236   0.81668   0.62763   0.00000  Uiso   1.00
C234   C     0.40364   0.77170   0.58894   0.00000  Uiso   1.00
C235   C     0.31510   0.69537   0.53449   0.00000  Uiso   1.00
C236   C     0.58779   0.96570   0.63973   0.00000  Uiso   1.00
C237   C     0.56700   0.03607   0.64985   0.00000  Uiso   1.00
C238   C     0.58529   0.09143   0.62131   0.00000  Uiso   1.00
C239   C     0.60192   0.20014   0.58562   0.00000  Uiso   1.00
C240   C     0.65990   0.86077   0.68468   0.00000  Uiso   1.00
C241   C     0.69977   0.84293   0.73260   0.00000  Uiso   1.00
C242   C     0.77878   0.80995   0.74191   0.00000  Uiso   1.00
C243   C     0.90737   0.75574   0.77601   0.00000  Uiso   1.00
C244   C     0.64285   0.87030   0.59770   0.00000  Uiso   1.00
C245   C     0.55781   0.83195   0.59036   0.00000  Uiso   1.00
C246   C     0.51919   0.78700   0.55166   0.00000  Uiso   1.00
C247   C     0.44142   0.75711   0.55157   0.00000  Uiso   1.00
C248   C     0.62551   0.95113   0.60243   0.00000  Uiso   1.00
C249   C     0.64384   0.00640   0.57387   0.00000  Uiso   1.00
C250   C     0.62308   0.07684   0.58395   0.00000  Uiso   1.00
C251   C     0.69763   0.84620   0.64738   0.00000  Uiso   1.00
C252   C     0.77660   0.81325   0.65662   0.00000  Uiso   1.00
C253   C     0.81656   0.79536   0.70454   0.00000  Uiso   1.00
H254   H     0.54403   0.90846   0.69541   0.00000  Uiso   1.00
H255   H     0.41318   0.82797   0.65650   0.00000  Uiso   1.00
H256   H     0.53782   0.04733   0.67872   0.00000  Uiso   1.00
H257   H     0.67056   0.85421   0.76145   0.00000  Uiso   1.00
H258   H     0.28474   0.73232   0.59691   0.00000  Uiso   1.00
H259   H     0.54756   0.19486   0.64376   0.00000  Uiso   1.00
H260   H     0.82746   0.78763   0.81822   0.00000  Uiso   1.00
H261   H     0.67221   0.85896   0.56866   0.00000  Uiso   1.00
H262   H     0.54840   0.77574   0.52280   0.00000  Uiso   1.00
H263   H     0.67303   0.99511   0.54501   0.00000  Uiso   1.00
H264   H     0.80577   0.80199   0.62775   0.00000  Uiso   1.00
H265   H     0.39448   0.68994   0.48838   0.00000  Uiso   1.00
H266   H     0.65731   0.15248   0.53524   0.00000  Uiso   1.00
H267   H     0.93721   0.74525   0.70970   0.00000  Uiso   1.00
O268   O     0.25583   0.65730   0.51475   0.00000  Uiso   1.00
O269   O     0.60066   0.26413   0.57623   0.00000  Uiso   1.00
O270   O     0.96788   0.72986   0.80512   0.00000  Uiso   1.00
N271   N     0.32756   0.73376   0.57767   0.00000  Uiso   1.00
N272   N     0.57328   0.16620   0.62146   0.00000  Uiso   1.00
N273   N     0.83497   0.78549   0.78457   0.00000  Uiso   1.00
N274   N     0.38662   0.71095   0.51927   0.00000  Uiso   1.00
N275   N     0.63233   0.14339   0.56307   0.00000  Uiso   1.00
N276   N     0.89402   0.76269   0.72618   0.00000  Uiso   1.00
C277   C     0.92660   0.39712   0.83362   0.00000  Uiso   1.00
C278   C     0.97992   0.34651   0.87234   0.00000  Uiso   1.00
C279   C     0.05764   0.31668   0.87237   0.00000  Uiso   1.00
C280   C     0.09636   0.27170   0.91106   0.00000  Uiso   1.00
C281   C     0.18490   0.19537   0.96551   0.00000  Uiso   1.00
C282   C     0.91221   0.46570   0.86027   0.00000  Uiso   1.00
C283   C     0.93300   0.53607   0.85015   0.00000  Uiso   1.00
C284   C     0.91471   0.59143   0.87869   0.00000  Uiso   1.00
C285   C     0.89808   0.70014   0.91438   0.00000  Uiso   1.00
C286   C     0.84010   0.36077   0.81532   0.00000  Uiso   1.00
C287   C     0.80023   0.34293   0.76740   0.00000  Uiso   1.00
C288   C     0.72122   0.30995   0.75809   0.00000  Uiso   1.00
C289   C     0.59263   0.25574   0.72399   0.00000  Uiso   1.00
C290   C     0.85715   0.37030   0.90230   0.00000  Uiso   1.00
C291   C     0.94219   0.33195   0.90964   0.00000  Uiso   1.00
C292   C     0.98081   0.28700   0.94834   0.00000  Uiso   1.00
C293   C     0.05858   0.25711   0.94843   0.00000  Uiso   1.00
C294   C     0.87449   0.45113   0.89757   0.00000  Uiso   1.00
C295   C     0.85616   0.50640   0.92613   0.00000  Uiso   1.00
C296   C     0.87692   0.57684   0.91605   0.00000  Uiso   1.00
C297   C     0.80237   0.34620   0.85262   0.00000  Uiso   1.00
C298   C     0.72340   0.31325   0.84338   0.00000  Uiso   1.00
C299   C     0.68344   0.29536   0.79546   0.00000  Uiso   1.00
H300   H     0.95597   0.40846   0.80459   0.00000  Uiso   1.00
H301   H     0.08682   0.32797   0.84350   0.00000  Uiso   1.00
H302   H     0.96218   0.54733   0.82128   0.00000  Uiso   1.00
H303   H     0.82944   0.35421   0.73855   0.00000  Uiso   1.00
H304   H     0.21526   0.23232   0.90309   0.00000  Uiso   1.00
H305   H     0.95244   0.69486   0.85624   0.00000  Uiso   1.00
H306   H     0.67254   0.28763   0.68178   0.00000  Uiso   1.00
H307   H     0.82779   0.35896   0.93134   0.00000  Uiso   1.00
H308   H     0.95160   0.27574   0.97720   0.00000  Uiso   1.00
H309   H     0.82697   0.49511   0.95499   0.00000  Uiso   1.00
H310   H     0.69423   0.30199   0.87225   0.00000  Uiso   1.00
H311   H     0.10552   0.18994   0.01162   0.00000  Uiso   1.00
H312   H     0.84269   0.65248   0.96476   0.00000  Uiso   1.00
H313   H     0.56279   0.24525   0.79030   0.00000  Uiso   1.00
O314   O     0.24417   0.15730   0.98525   0.00000  Uiso   1.00
O315   O     0.89934   0.76413   0.92377   0.00000  Uiso   1.00
O316   O     0.53212   0.22986   0.69488   0.00000  Uiso   1.00
N317   N     0.17244   0.23376   0.92233   0.00000  Uiso   1.00
N318   N     0.92672   0.66620   0.87854   0.00000  Uiso   1.00
N319   N     0.66503   0.28549   0.71543   0.00000  Uiso   1.00
N320   N     0.11338   0.21095   0.98073   0.00000  Uiso   1.00
N321   N     0.86767   0.64339   0.93693   0.00000  Uiso   1.00
N322   N     0.60598   0.26269   0.77382   0.00000  Uiso   1.00
C323   C     0.42660   0.89712   0.83362   0.00000  Uiso   1.00
C324   C     0.47992   0.84651   0.87234   0.00000  Uiso   1.00
C325   C     0.55764   0.81668   0.87237   0.00000  Uiso   1.00
C326   C     0.59636   0.77170   0.91106   0.00000  Uiso   1.00
C327   C     0.68490   0.69537   0.96551   0.00000  Uiso   1.00
C328   C     0.41221   0.96570   0.86027   0.00000  Uiso   1.00
C329   C     0.43300   0.03607   0.85015   0.00000  Uiso   1.00
C330   C     0.41471   0.09143   0.87869   0.00000  Uiso   1.00
C331   C     0.39808   0.20014   0.91438   0.00000  Uiso   1.00
C332   C     0.34010   0.86077   0.81532   0.00000  Uiso   1.00
C333   C     0.30023   0.84293   0.76740   0.00000  Uiso   1.00
C334   C     0.22122   0.80995   0.75809   0.00000  Uiso   1.00
C335   C     0.09263   0.75574   0.72399   0.00000  Uiso   1.00
C336   C     0.35715   0.87030   0.90230   0.00000  Uiso   1.00
C337   C     0.44219   0.83195   0.90964   0.00000  Uiso   1.00
C338   C     0.48081   0.78700   0.94834   0.00000  Uiso   1.00
C339   C     0.55858   0.75711   0.94843   0.00000  Uiso   1.00
C340   C     0.37449   0.95113   0.89757   0.00000  Uiso   1.00
C341   C     0.35616   0.00640   0.92613   0.00000  Uiso   1.00
C342   C     0.37692   0.07684   0.91605   0.00000  Uiso   1.00
C343   C     0.30237   0.84620   0.85262   0.00000  Uiso   1.00
C344   C     0.22340   0.81325   0.84338   0.00000  Uiso   1.00
C345   C     0.18344   0.79536   0.79546   0.00000  Uiso   1.00
H346   H     0.45597   0.90846   0.80459   0.00000  Uiso   1.00
H347   H     0.58682   0.82797   0.84350   0.00000  Uiso   1.00
H348   H     0.46218   0.04733   0.82128   0.00000  Uiso   1.00
H349   H     0.32944   0.85421   0.73855   0.00000  Uiso   1.00
H350   H     0.71526   0.73232   0.90309   0.00000  Uiso   1.00
H351   H     0.45244   0.19486   0.85624   0.00000  Uiso   1.00
H352   H     0.17254   0.78763   0.68178   0.00000  Uiso   1.00
H353   H     0.32779   0.85896   0.93134   0.00000  Uiso   1.00
H354   H     0.45160   0.77574   0.97720   0.00000  Uiso   1.00
H355   H     0.32697   0.99511   0.95499   0.00000  Uiso   1.00
H356   H     0.19423   0.80199   0.87225   0.00000  Uiso   1.00
H357   H     0.60552   0.68994   0.01162   0.00000  Uiso   1.00
H358   H     0.34269   0.15248   0.96476   0.00000  Uiso   1.00
H359   H     0.06279   0.74525   0.79030   0.00000  Uiso   1.00
O360   O     0.74417   0.65730   0.98525   0.00000  Uiso   1.00
O361   O     0.39934   0.26413   0.92377   0.00000  Uiso   1.00
O362   O     0.03212   0.72986   0.69488   0.00000  Uiso   1.00
N363   N     0.67244   0.73376   0.92233   0.00000  Uiso   1.00
N364   N     0.42672   0.16620   0.87854   0.00000  Uiso   1.00
N365   N     0.16503   0.78549   0.71543   0.00000  Uiso   1.00
N366   N     0.61338   0.71095   0.98073   0.00000  Uiso   1.00
N367   N     0.36767   0.14339   0.93693   0.00000  Uiso   1.00
N368   N     0.10598   0.76269   0.77382   0.00000  Uiso   1.00
