data_job_00537
_audit_creation_date              2018-12-19
_audit_creation_method            'Materials Studio'
_symmetry_space_group_name_H-M    'P1'
_symmetry_Int_Tables_number       1
_symmetry_cell_setting            triclinic
loop_
_symmetry_equiv_pos_as_xyz
  x,y,z
_cell_length_a                    9.9981
_cell_length_b                    12.4428
_cell_length_c                    22.4324
_cell_angle_alpha                 90.0000
_cell_angle_beta                  125.1679
_cell_angle_gamma                 90.0000
loop_
_atom_site_label
_atom_site_type_symbol
_atom_site_fract_x
_atom_site_fract_y
_atom_site_fract_z
_atom_site_U_iso_or_equiv
_atom_site_adp_type
_atom_site_occupancy
C1     C     0.01015   0.66546   0.43034   0.00000  Uiso   1.00
C2     C     0.16619   0.66926   0.43318   0.00000  Uiso   1.00
C3     C     0.32246   0.64536   0.49353   0.00000  Uiso   1.00
C4     C     0.44912   0.65366   0.48506   0.00000  Uiso   1.00
C5     C     0.69579   0.65488   0.49959   0.00000  Uiso   1.00
C6     C     0.93369   0.77692   0.40595   0.00000  Uiso   1.00
C7     C     0.89447   0.84354   0.44340   0.00000  Uiso   1.00
C8     C     0.82539   0.94246   0.41200   0.00000  Uiso   1.00
C9     C     0.71099   0.11080   0.38422   0.00000  Uiso   1.00
C10    C     0.89429   0.58943   0.36804   0.00000  Uiso   1.00
C11    C     0.82191   0.49841   0.37361   0.00000  Uiso   1.00
C12    C     0.71963   0.43948   0.31028   0.00000  Uiso   1.00
C13    C     0.54406   0.31671   0.22365   0.00000  Uiso   1.00
C14    C     0.95718   0.72268   0.30797   0.00000  Uiso   1.00
C15    C     0.13741   0.70034   0.36671   0.00000  Uiso   1.00
C16    C     0.26386   0.70867   0.35815   0.00000  Uiso   1.00
C17    C     0.42030   0.68479   0.41847   0.00000  Uiso   1.00
C18    C     0.90492   0.80800   0.33948   0.00000  Uiso   1.00
C19    C     0.83587   0.90684   0.30801   0.00000  Uiso   1.00
C20    C     0.79657   0.97360   0.34541   0.00000  Uiso   1.00
C21    C     0.86552   0.62050   0.30157   0.00000  Uiso   1.00
C22    C     0.76332   0.56171   0.23822   0.00000  Uiso   1.00
C23    C     0.69080   0.47062   0.24370   0.00000  Uiso   1.00
H24    H     0.03255   0.64127   0.48208   0.00000  Uiso   1.00
H25    H     0.34468   0.62132   0.54496   0.00000  Uiso   1.00
H26    H     0.91674   0.81946   0.49483   0.00000  Uiso   1.00
H27    H     0.84420   0.47438   0.42505   0.00000  Uiso   1.00
H28    H     0.67806   0.61295   0.58537   0.00000  Uiso   1.00
H29    H     0.77566   0.03072   0.47965   0.00000  Uiso   1.00
H30    H     0.62270   0.30306   0.33251   0.00000  Uiso   1.00
H31    H     0.93478   0.74688   0.25622   0.00000  Uiso   1.00
H32    H     0.24156   0.73272   0.30671   0.00000  Uiso   1.00
H33    H     0.81361   0.93086   0.25658   0.00000  Uiso   1.00
H34    H     0.74108   0.58579   0.18680   0.00000  Uiso   1.00
H35    H     0.59437   0.70337   0.39199   0.00000  Uiso   1.00
H36    H     0.69196   0.12114   0.28628   0.00000  Uiso   1.00
H37    H     0.53901   0.39348   0.13913   0.00000  Uiso   1.00
O38    O     0.83979   0.64698   0.52597   0.00000  Uiso   1.00
O39    O     0.65585   0.19507   0.38727   0.00000  Uiso   1.00
O40    O     0.45519   0.24039   0.19422   0.00000  Uiso   1.00
N41    N     0.61626   0.63615   0.53292   0.00000  Uiso   1.00
N42    N     0.77259   0.02675   0.43409   0.00000  Uiso   1.00
N43    N     0.62955   0.34646   0.29652   0.00000  Uiso   1.00
N44    N     0.57122   0.68481   0.42887   0.00000  Uiso   1.00
N45    N     0.72756   0.07540   0.33004   0.00000  Uiso   1.00
N46    N     0.58452   0.39512   0.19247   0.00000  Uiso   1.00
C47    C     0.98985   0.16546   0.06966   0.00000  Uiso   1.00
C48    C     0.83381   0.16926   0.06682   0.00000  Uiso   1.00
C49    C     0.67754   0.14536   0.00647   0.00000  Uiso   1.00
C50    C     0.55088   0.15366   0.01494   0.00000  Uiso   1.00
C51    C     0.30421   0.15488   0.00041   0.00000  Uiso   1.00
C52    C     0.06631   0.27692   0.09405   0.00000  Uiso   1.00
C53    C     0.10553   0.34354   0.05660   0.00000  Uiso   1.00
C54    C     0.17461   0.44246   0.08800   0.00000  Uiso   1.00
C55    C     0.28901   0.61080   0.11578   0.00000  Uiso   1.00
C56    C     0.10571   0.08943   0.13196   0.00000  Uiso   1.00
C57    C     0.17809   0.99841   0.12639   0.00000  Uiso   1.00
C58    C     0.28037   0.93948   0.18972   0.00000  Uiso   1.00
C59    C     0.45594   0.81671   0.27635   0.00000  Uiso   1.00
C60    C     0.04282   0.22268   0.19203   0.00000  Uiso   1.00
C61    C     0.86259   0.20034   0.13329   0.00000  Uiso   1.00
C62    C     0.73614   0.20867   0.14185   0.00000  Uiso   1.00
C63    C     0.57970   0.18479   0.08153   0.00000  Uiso   1.00
C64    C     0.09508   0.30800   0.16052   0.00000  Uiso   1.00
C65    C     0.16413   0.40684   0.19199   0.00000  Uiso   1.00
C66    C     0.20343   0.47360   0.15459   0.00000  Uiso   1.00
C67    C     0.13448   0.12050   0.19843   0.00000  Uiso   1.00
C68    C     0.23668   0.06171   0.26178   0.00000  Uiso   1.00
C69    C     0.30920   0.97062   0.25630   0.00000  Uiso   1.00
H70    H     0.96745   0.14127   0.01792   0.00000  Uiso   1.00
H71    H     0.65532   0.12132   0.95504   0.00000  Uiso   1.00
H72    H     0.08326   0.31946   0.00517   0.00000  Uiso   1.00
H73    H     0.15580   0.97438   0.07495   0.00000  Uiso   1.00
H74    H     0.32194   0.11295   0.91463   0.00000  Uiso   1.00
H75    H     0.22434   0.53072   0.02035   0.00000  Uiso   1.00
H76    H     0.37730   0.80306   0.16749   0.00000  Uiso   1.00
H77    H     0.06522   0.24688   0.24378   0.00000  Uiso   1.00
H78    H     0.75844   0.23272   0.19329   0.00000  Uiso   1.00
H79    H     0.18639   0.43086   0.24342   0.00000  Uiso   1.00
H80    H     0.25892   0.08579   0.31320   0.00000  Uiso   1.00
H81    H     0.40563   0.20337   0.10801   0.00000  Uiso   1.00
H82    H     0.30804   0.62114   0.21372   0.00000  Uiso   1.00
H83    H     0.46099   0.89348   0.36087   0.00000  Uiso   1.00
O84    O     0.16021   0.14698   0.97403   0.00000  Uiso   1.00
O85    O     0.34415   0.69507   0.11273   0.00000  Uiso   1.00
O86    O     0.54481   0.74039   0.30578   0.00000  Uiso   1.00
N87    N     0.38374   0.13615   0.96708   0.00000  Uiso   1.00
N88    N     0.22741   0.52675   0.06591   0.00000  Uiso   1.00
N89    N     0.37045   0.84646   0.20348   0.00000  Uiso   1.00
N90    N     0.42878   0.18481   0.07113   0.00000  Uiso   1.00
N91    N     0.27244   0.57540   0.16996   0.00000  Uiso   1.00
N92    N     0.41548   0.89512   0.30753   0.00000  Uiso   1.00
C93    C     0.98985   0.33454   0.56966   0.00000  Uiso   1.00
C94    C     0.83381   0.33074   0.56682   0.00000  Uiso   1.00
C95    C     0.67754   0.35464   0.50647   0.00000  Uiso   1.00
C96    C     0.55088   0.34634   0.51494   0.00000  Uiso   1.00
C97    C     0.30421   0.34512   0.50041   0.00000  Uiso   1.00
C98    C     0.06631   0.22308   0.59405   0.00000  Uiso   1.00
C99    C     0.10553   0.15646   0.55660   0.00000  Uiso   1.00
C100   C     0.17461   0.05754   0.58800   0.00000  Uiso   1.00
C101   C     0.28901   0.88920   0.61578   0.00000  Uiso   1.00
C102   C     0.10571   0.41057   0.63196   0.00000  Uiso   1.00
C103   C     0.17809   0.50159   0.62639   0.00000  Uiso   1.00
C104   C     0.28037   0.56052   0.68972   0.00000  Uiso   1.00
C105   C     0.45594   0.68329   0.77635   0.00000  Uiso   1.00
C106   C     0.04282   0.27732   0.69203   0.00000  Uiso   1.00
C107   C     0.86259   0.29966   0.63329   0.00000  Uiso   1.00
C108   C     0.73614   0.29133   0.64185   0.00000  Uiso   1.00
C109   C     0.57970   0.31521   0.58153   0.00000  Uiso   1.00
C110   C     0.09508   0.19200   0.66052   0.00000  Uiso   1.00
C111   C     0.16413   0.09316   0.69199   0.00000  Uiso   1.00
C112   C     0.20343   0.02640   0.65459   0.00000  Uiso   1.00
C113   C     0.13448   0.37950   0.69843   0.00000  Uiso   1.00
C114   C     0.23668   0.43829   0.76178   0.00000  Uiso   1.00
C115   C     0.30920   0.52938   0.75630   0.00000  Uiso   1.00
H116   H     0.96745   0.35873   0.51792   0.00000  Uiso   1.00
H117   H     0.65532   0.37868   0.45504   0.00000  Uiso   1.00
H118   H     0.08326   0.18054   0.50517   0.00000  Uiso   1.00
H119   H     0.15580   0.52562   0.57495   0.00000  Uiso   1.00
H120   H     0.32194   0.38705   0.41463   0.00000  Uiso   1.00
H121   H     0.22434   0.96928   0.52035   0.00000  Uiso   1.00
H122   H     0.37730   0.69694   0.66749   0.00000  Uiso   1.00
H123   H     0.06522   0.25312   0.74378   0.00000  Uiso   1.00
H124   H     0.75844   0.26728   0.69329   0.00000  Uiso   1.00
H125   H     0.18639   0.06914   0.74342   0.00000  Uiso   1.00
H126   H     0.25892   0.41421   0.81320   0.00000  Uiso   1.00
H127   H     0.40563   0.29663   0.60801   0.00000  Uiso   1.00
H128   H     0.30804   0.87886   0.71372   0.00000  Uiso   1.00
H129   H     0.46099   0.60652   0.86087   0.00000  Uiso   1.00
O130   O     0.16021   0.35302   0.47403   0.00000  Uiso   1.00
O131   O     0.34415   0.80493   0.61273   0.00000  Uiso   1.00
O132   O     0.54481   0.75961   0.80578   0.00000  Uiso   1.00
N133   N     0.38374   0.36385   0.46708   0.00000  Uiso   1.00
N134   N     0.22741   0.97325   0.56591   0.00000  Uiso   1.00
N135   N     0.37045   0.65354   0.70348   0.00000  Uiso   1.00
N136   N     0.42878   0.31519   0.57113   0.00000  Uiso   1.00
N137   N     0.27244   0.92460   0.66996   0.00000  Uiso   1.00
N138   N     0.41548   0.60488   0.80753   0.00000  Uiso   1.00
C139   C     0.01015   0.83454   0.93034   0.00000  Uiso   1.00
C140   C     0.16619   0.83074   0.93318   0.00000  Uiso   1.00
C141   C     0.32246   0.85464   0.99353   0.00000  Uiso   1.00
C142   C     0.44912   0.84634   0.98506   0.00000  Uiso   1.00
C143   C     0.69579   0.84512   0.99959   0.00000  Uiso   1.00
C144   C     0.93369   0.72308   0.90595   0.00000  Uiso   1.00
C145   C     0.89447   0.65646   0.94340   0.00000  Uiso   1.00
C146   C     0.82539   0.55754   0.91200   0.00000  Uiso   1.00
C147   C     0.71099   0.38920   0.88422   0.00000  Uiso   1.00
C148   C     0.89429   0.91057   0.86804   0.00000  Uiso   1.00
C149   C     0.82191   0.00159   0.87361   0.00000  Uiso   1.00
C150   C     0.71963   0.06052   0.81028   0.00000  Uiso   1.00
C151   C     0.54406   0.18329   0.72365   0.00000  Uiso   1.00
C152   C     0.95718   0.77732   0.80797   0.00000  Uiso   1.00
C153   C     0.13741   0.79966   0.86671   0.00000  Uiso   1.00
C154   C     0.26386   0.79133   0.85815   0.00000  Uiso   1.00
C155   C     0.42030   0.81521   0.91847   0.00000  Uiso   1.00
C156   C     0.90492   0.69200   0.83948   0.00000  Uiso   1.00
C157   C     0.83587   0.59316   0.80801   0.00000  Uiso   1.00
C158   C     0.79657   0.52640   0.84541   0.00000  Uiso   1.00
C159   C     0.86552   0.87950   0.80157   0.00000  Uiso   1.00
C160   C     0.76332   0.93829   0.73822   0.00000  Uiso   1.00
C161   C     0.69080   0.02938   0.74370   0.00000  Uiso   1.00
H162   H     0.03255   0.85873   0.98208   0.00000  Uiso   1.00
H163   H     0.34468   0.87868   0.04496   0.00000  Uiso   1.00
H164   H     0.91674   0.68054   0.99483   0.00000  Uiso   1.00
H165   H     0.84420   0.02562   0.92505   0.00000  Uiso   1.00
H166   H     0.67806   0.88705   0.08537   0.00000  Uiso   1.00
H167   H     0.77566   0.46928   0.97965   0.00000  Uiso   1.00
H168   H     0.62270   0.19694   0.83251   0.00000  Uiso   1.00
H169   H     0.93478   0.75312   0.75622   0.00000  Uiso   1.00
H170   H     0.24156   0.76728   0.80671   0.00000  Uiso   1.00
H171   H     0.81361   0.56914   0.75658   0.00000  Uiso   1.00
H172   H     0.74108   0.91421   0.68680   0.00000  Uiso   1.00
H173   H     0.59437   0.79663   0.89199   0.00000  Uiso   1.00
H174   H     0.69196   0.37886   0.78628   0.00000  Uiso   1.00
H175   H     0.53901   0.10652   0.63913   0.00000  Uiso   1.00
O176   O     0.83979   0.85302   0.02597   0.00000  Uiso   1.00
O177   O     0.65585   0.30493   0.88727   0.00000  Uiso   1.00
O178   O     0.45519   0.25961   0.69422   0.00000  Uiso   1.00
N179   N     0.61626   0.86385   0.03292   0.00000  Uiso   1.00
N180   N     0.77259   0.47325   0.93409   0.00000  Uiso   1.00
N181   N     0.62955   0.15354   0.79652   0.00000  Uiso   1.00
N182   N     0.57122   0.81519   0.92887   0.00000  Uiso   1.00
N183   N     0.72756   0.42460   0.83004   0.00000  Uiso   1.00
N184   N     0.58452   0.10488   0.69247   0.00000  Uiso   1.00
