data_job_01452
_audit_creation_date              2018-12-19
_audit_creation_method            'Materials Studio'
_symmetry_space_group_name_H-M    'P1'
_symmetry_Int_Tables_number       1
_symmetry_cell_setting            triclinic
loop_
_symmetry_equiv_pos_as_xyz
  x,y,z
_cell_length_a                    62.5118
_cell_length_b                    62.5118
_cell_length_c                    7.0331
_cell_angle_alpha                 90.0000
_cell_angle_beta                  90.0000
_cell_angle_gamma                 120.0000
loop_
_atom_site_label
_atom_site_type_symbol
_atom_site_fract_x
_atom_site_fract_y
_atom_site_fract_z
_atom_site_U_iso_or_equiv
_atom_site_adp_type
_atom_site_occupancy
C1     C     0.33411   0.88531   0.89828   0.00000  Uiso   1.00
C2     C     0.33734   0.90724   0.01565   0.00000  Uiso   1.00
C3     C     0.34056   0.92932   0.94336   0.00000  Uiso   1.00
C4     C     0.34319   0.94711   0.07422   0.00000  Uiso   1.00
C5     C     0.34830   0.98180   0.22664   0.00000  Uiso   1.00
C6     C     0.35442   0.88022   0.96308   0.00000  Uiso   1.00
C7     C     0.37201   0.87958   0.84657   0.00000  Uiso   1.00
C8     C     0.38902   0.87461   0.93318   0.00000  Uiso   1.00
C9     C     0.42065   0.86734   0.00395   0.00000  Uiso   1.00
C10    C     0.30984   0.86321   0.96349   0.00000  Uiso   1.00
C11    C     0.28994   0.84825   0.84732   0.00000  Uiso   1.00
C12    C     0.26941   0.82895   0.93427   0.00000  Uiso   1.00
C13    C     0.23181   0.79526   0.00568   0.00000  Uiso   1.00
C14    C     0.33304   0.87763   0.25925   0.00000  Uiso   1.00
C15    C     0.33676   0.90307   0.21171   0.00000  Uiso   1.00
C16    C     0.33938   0.92083   0.34272   0.00000  Uiso   1.00
C17    C     0.34260   0.94293   0.27063   0.00000  Uiso   1.00
C18    C     0.35384   0.87605   0.15913   0.00000  Uiso   1.00
C19    C     0.37083   0.87108   0.24593   0.00000  Uiso   1.00
C20    C     0.38844   0.87043   0.12959   0.00000  Uiso   1.00
C21    C     0.30926   0.85904   0.15955   0.00000  Uiso   1.00
C22    C     0.28875   0.83976   0.24669   0.00000  Uiso   1.00
C23    C     0.26883   0.82478   0.13068   0.00000  Uiso   1.00
H24    H     0.33456   0.88855   0.74564   0.00000  Uiso   1.00
H25    H     0.34101   0.93254   0.79162   0.00000  Uiso   1.00
H26    H     0.37245   0.88280   0.69485   0.00000  Uiso   1.00
H27    H     0.29039   0.85148   0.69561   0.00000  Uiso   1.00
H28    H     0.34791   0.97947   0.92906   0.00000  Uiso   1.00
H29    H     0.41421   0.87459   0.72499   0.00000  Uiso   1.00
H30    H     0.24117   0.80854   0.72659   0.00000  Uiso   1.00
H31    H     0.33259   0.87439   0.41190   0.00000  Uiso   1.00
H32    H     0.33893   0.91760   0.49444   0.00000  Uiso   1.00
H33    H     0.37037   0.86786   0.39766   0.00000  Uiso   1.00
H34    H     0.28831   0.83654   0.39842   0.00000  Uiso   1.00
H35    H     0.34622   0.96735   0.49949   0.00000  Uiso   1.00
H36    H     0.41252   0.86246   0.29542   0.00000  Uiso   1.00
H37    H     0.23948   0.79641   0.29702   0.00000  Uiso   1.00
O38    O     0.35128   0.00209   0.25655   0.00000  Uiso   1.00
O39    O     0.43826   0.86448   0.98881   0.00000  Uiso   1.00
O40    O     0.21123   0.77783   0.99091   0.00000  Uiso   1.00
N41    N     0.34664   0.97069   0.05198   0.00000  Uiso   1.00
N42    N     0.40863   0.87263   0.86120   0.00000  Uiso   1.00
N43    N     0.24685   0.81087   0.86268   0.00000  Uiso   1.00
N44    N     0.34573   0.96416   0.35893   0.00000  Uiso   1.00
N45    N     0.40772   0.86610   0.16814   0.00000  Uiso   1.00
N46    N     0.24594   0.80435   0.16962   0.00000  Uiso   1.00
C47    C     0.11469   0.44880   0.89828   0.00000  Uiso   1.00
C48    C     0.09276   0.43009   0.01565   0.00000  Uiso   1.00
C49    C     0.07068   0.41124   0.94336   0.00000  Uiso   1.00
C50    C     0.05289   0.39608   0.07422   0.00000  Uiso   1.00
C51    C     0.01820   0.36650   0.22664   0.00000  Uiso   1.00
C52    C     0.11978   0.47420   0.96308   0.00000  Uiso   1.00
C53    C     0.12042   0.49244   0.84657   0.00000  Uiso   1.00
C54    C     0.12539   0.51441   0.93318   0.00000  Uiso   1.00
C55    C     0.13266   0.55331   0.00395   0.00000  Uiso   1.00
C56    C     0.13679   0.44663   0.96349   0.00000  Uiso   1.00
C57    C     0.15175   0.44169   0.84732   0.00000  Uiso   1.00
C58    C     0.17105   0.44046   0.93427   0.00000  Uiso   1.00
C59    C     0.20474   0.43655   0.00568   0.00000  Uiso   1.00
C60    C     0.12237   0.45541   0.25925   0.00000  Uiso   1.00
C61    C     0.09693   0.43368   0.21171   0.00000  Uiso   1.00
C62    C     0.07917   0.41855   0.34272   0.00000  Uiso   1.00
C63    C     0.05707   0.39967   0.27063   0.00000  Uiso   1.00
C64    C     0.12395   0.47779   0.15913   0.00000  Uiso   1.00
C65    C     0.12892   0.49974   0.24593   0.00000  Uiso   1.00
C66    C     0.12957   0.51800   0.12959   0.00000  Uiso   1.00
C67    C     0.14096   0.45022   0.15955   0.00000  Uiso   1.00
C68    C     0.16024   0.44900   0.24669   0.00000  Uiso   1.00
C69    C     0.17522   0.44405   0.13068   0.00000  Uiso   1.00
H70    H     0.11145   0.44601   0.74564   0.00000  Uiso   1.00
H71    H     0.06746   0.40847   0.79162   0.00000  Uiso   1.00
H72    H     0.11720   0.48965   0.69485   0.00000  Uiso   1.00
H73    H     0.14852   0.43891   0.69561   0.00000  Uiso   1.00
H74    H     0.02053   0.36844   0.92906   0.00000  Uiso   1.00
H75    H     0.12541   0.53962   0.72499   0.00000  Uiso   1.00
H76    H     0.19146   0.43263   0.72659   0.00000  Uiso   1.00
H77    H     0.12561   0.45820   0.41190   0.00000  Uiso   1.00
H78    H     0.08240   0.42133   0.49444   0.00000  Uiso   1.00
H79    H     0.13214   0.50251   0.39766   0.00000  Uiso   1.00
H80    H     0.16346   0.45177   0.39842   0.00000  Uiso   1.00
H81    H     0.03265   0.37888   0.49949   0.00000  Uiso   1.00
H82    H     0.13754   0.55006   0.29542   0.00000  Uiso   1.00
H83    H     0.20359   0.44307   0.29702   0.00000  Uiso   1.00
O84    O     0.99791   0.34919   0.25655   0.00000  Uiso   1.00
O85    O     0.13552   0.57378   0.98881   0.00000  Uiso   1.00
O86    O     0.22217   0.43340   0.99091   0.00000  Uiso   1.00
N87    N     0.02931   0.37595   0.05198   0.00000  Uiso   1.00
N88    N     0.12737   0.53600   0.86120   0.00000  Uiso   1.00
N89    N     0.18913   0.43597   0.86268   0.00000  Uiso   1.00
N90    N     0.03584   0.38157   0.35893   0.00000  Uiso   1.00
N91    N     0.13390   0.54162   0.16814   0.00000  Uiso   1.00
N92    N     0.19565   0.44159   0.16962   0.00000  Uiso   1.00
C93    C     0.55120   0.66589   0.89828   0.00000  Uiso   1.00
C94    C     0.56991   0.66266   0.01565   0.00000  Uiso   1.00
C95    C     0.58876   0.65944   0.94336   0.00000  Uiso   1.00
C96    C     0.60392   0.65681   0.07422   0.00000  Uiso   1.00
C97    C     0.63350   0.65170   0.22664   0.00000  Uiso   1.00
C98    C     0.52580   0.64558   0.96308   0.00000  Uiso   1.00
C99    C     0.50756   0.62799   0.84657   0.00000  Uiso   1.00
C100   C     0.48559   0.61098   0.93318   0.00000  Uiso   1.00
C101   C     0.44669   0.57935   0.00395   0.00000  Uiso   1.00
C102   C     0.55337   0.69016   0.96349   0.00000  Uiso   1.00
C103   C     0.55831   0.71006   0.84732   0.00000  Uiso   1.00
C104   C     0.55954   0.73059   0.93427   0.00000  Uiso   1.00
C105   C     0.56345   0.76819   0.00568   0.00000  Uiso   1.00
C106   C     0.54459   0.66696   0.25925   0.00000  Uiso   1.00
C107   C     0.56632   0.66324   0.21171   0.00000  Uiso   1.00
C108   C     0.58145   0.66062   0.34272   0.00000  Uiso   1.00
C109   C     0.60033   0.65740   0.27063   0.00000  Uiso   1.00
C110   C     0.52221   0.64616   0.15913   0.00000  Uiso   1.00
C111   C     0.50026   0.62917   0.24593   0.00000  Uiso   1.00
C112   C     0.48200   0.61156   0.12959   0.00000  Uiso   1.00
C113   C     0.54978   0.69074   0.15955   0.00000  Uiso   1.00
C114   C     0.55100   0.71125   0.24669   0.00000  Uiso   1.00
C115   C     0.55595   0.73117   0.13068   0.00000  Uiso   1.00
H116   H     0.55399   0.66544   0.74564   0.00000  Uiso   1.00
H117   H     0.59153   0.65899   0.79162   0.00000  Uiso   1.00
H118   H     0.51035   0.62755   0.69485   0.00000  Uiso   1.00
H119   H     0.56109   0.70961   0.69561   0.00000  Uiso   1.00
H120   H     0.63156   0.65209   0.92906   0.00000  Uiso   1.00
H121   H     0.46038   0.58579   0.72499   0.00000  Uiso   1.00
H122   H     0.56737   0.75883   0.72659   0.00000  Uiso   1.00
H123   H     0.54180   0.66741   0.41190   0.00000  Uiso   1.00
H124   H     0.57867   0.66107   0.49444   0.00000  Uiso   1.00
H125   H     0.49749   0.62963   0.39766   0.00000  Uiso   1.00
H126   H     0.54823   0.71169   0.39842   0.00000  Uiso   1.00
H127   H     0.62112   0.65378   0.49949   0.00000  Uiso   1.00
H128   H     0.44994   0.58748   0.29542   0.00000  Uiso   1.00
H129   H     0.55693   0.76052   0.29702   0.00000  Uiso   1.00
O130   O     0.65081   0.64872   0.25655   0.00000  Uiso   1.00
O131   O     0.42622   0.56174   0.98881   0.00000  Uiso   1.00
O132   O     0.56660   0.78877   0.99091   0.00000  Uiso   1.00
N133   N     0.62405   0.65336   0.05198   0.00000  Uiso   1.00
N134   N     0.46400   0.59137   0.86120   0.00000  Uiso   1.00
N135   N     0.56403   0.75315   0.86268   0.00000  Uiso   1.00
N136   N     0.61843   0.65427   0.35893   0.00000  Uiso   1.00
N137   N     0.45838   0.59228   0.16814   0.00000  Uiso   1.00
N138   N     0.55841   0.75406   0.16962   0.00000  Uiso   1.00
C139   C     0.66589   0.11469   0.39828   0.00000  Uiso   1.00
C140   C     0.66266   0.09276   0.51565   0.00000  Uiso   1.00
C141   C     0.65944   0.07068   0.44336   0.00000  Uiso   1.00
C142   C     0.65681   0.05289   0.57422   0.00000  Uiso   1.00
C143   C     0.65170   0.01820   0.72664   0.00000  Uiso   1.00
C144   C     0.64558   0.11978   0.46308   0.00000  Uiso   1.00
C145   C     0.62799   0.12042   0.34657   0.00000  Uiso   1.00
C146   C     0.61098   0.12539   0.43318   0.00000  Uiso   1.00
C147   C     0.57935   0.13266   0.50395   0.00000  Uiso   1.00
C148   C     0.69016   0.13679   0.46349   0.00000  Uiso   1.00
C149   C     0.71006   0.15175   0.34732   0.00000  Uiso   1.00
C150   C     0.73059   0.17105   0.43427   0.00000  Uiso   1.00
C151   C     0.76819   0.20474   0.50568   0.00000  Uiso   1.00
C152   C     0.66696   0.12237   0.75925   0.00000  Uiso   1.00
C153   C     0.66324   0.09693   0.71171   0.00000  Uiso   1.00
C154   C     0.66062   0.07917   0.84272   0.00000  Uiso   1.00
C155   C     0.65740   0.05707   0.77063   0.00000  Uiso   1.00
C156   C     0.64616   0.12395   0.65913   0.00000  Uiso   1.00
C157   C     0.62917   0.12892   0.74593   0.00000  Uiso   1.00
C158   C     0.61156   0.12957   0.62959   0.00000  Uiso   1.00
C159   C     0.69074   0.14096   0.65955   0.00000  Uiso   1.00
C160   C     0.71125   0.16024   0.74669   0.00000  Uiso   1.00
C161   C     0.73117   0.17522   0.63068   0.00000  Uiso   1.00
H162   H     0.66544   0.11145   0.24564   0.00000  Uiso   1.00
H163   H     0.65899   0.06746   0.29162   0.00000  Uiso   1.00
H164   H     0.62755   0.11720   0.19485   0.00000  Uiso   1.00
H165   H     0.70961   0.14852   0.19561   0.00000  Uiso   1.00
H166   H     0.65209   0.02053   0.42906   0.00000  Uiso   1.00
H167   H     0.58579   0.12541   0.22499   0.00000  Uiso   1.00
H168   H     0.75883   0.19146   0.22659   0.00000  Uiso   1.00
H169   H     0.66741   0.12561   0.91190   0.00000  Uiso   1.00
H170   H     0.66107   0.08240   0.99444   0.00000  Uiso   1.00
H171   H     0.62963   0.13214   0.89766   0.00000  Uiso   1.00
H172   H     0.71169   0.16346   0.89842   0.00000  Uiso   1.00
H173   H     0.65378   0.03265   0.99949   0.00000  Uiso   1.00
H174   H     0.58748   0.13754   0.79542   0.00000  Uiso   1.00
H175   H     0.76052   0.20359   0.79702   0.00000  Uiso   1.00
O176   O     0.64872   0.99791   0.75655   0.00000  Uiso   1.00
O177   O     0.56174   0.13552   0.48881   0.00000  Uiso   1.00
O178   O     0.78877   0.22217   0.49091   0.00000  Uiso   1.00
N179   N     0.65336   0.02931   0.55198   0.00000  Uiso   1.00
N180   N     0.59137   0.12737   0.36120   0.00000  Uiso   1.00
N181   N     0.75315   0.18913   0.36268   0.00000  Uiso   1.00
N182   N     0.65427   0.03584   0.85893   0.00000  Uiso   1.00
N183   N     0.59228   0.13390   0.66814   0.00000  Uiso   1.00
N184   N     0.75406   0.19565   0.66962   0.00000  Uiso   1.00
C185   C     0.88531   0.55120   0.39828   0.00000  Uiso   1.00
C186   C     0.90724   0.56991   0.51565   0.00000  Uiso   1.00
C187   C     0.92932   0.58876   0.44336   0.00000  Uiso   1.00
C188   C     0.94711   0.60392   0.57422   0.00000  Uiso   1.00
C189   C     0.98180   0.63350   0.72664   0.00000  Uiso   1.00
C190   C     0.88022   0.52580   0.46308   0.00000  Uiso   1.00
C191   C     0.87958   0.50756   0.34657   0.00000  Uiso   1.00
C192   C     0.87461   0.48559   0.43318   0.00000  Uiso   1.00
C193   C     0.86734   0.44669   0.50395   0.00000  Uiso   1.00
C194   C     0.86321   0.55337   0.46349   0.00000  Uiso   1.00
C195   C     0.84825   0.55831   0.34732   0.00000  Uiso   1.00
C196   C     0.82895   0.55954   0.43427   0.00000  Uiso   1.00
C197   C     0.79526   0.56345   0.50568   0.00000  Uiso   1.00
C198   C     0.87763   0.54459   0.75925   0.00000  Uiso   1.00
C199   C     0.90307   0.56632   0.71171   0.00000  Uiso   1.00
C200   C     0.92083   0.58145   0.84272   0.00000  Uiso   1.00
C201   C     0.94293   0.60033   0.77063   0.00000  Uiso   1.00
C202   C     0.87605   0.52221   0.65913   0.00000  Uiso   1.00
C203   C     0.87108   0.50026   0.74593   0.00000  Uiso   1.00
C204   C     0.87043   0.48200   0.62959   0.00000  Uiso   1.00
C205   C     0.85904   0.54978   0.65955   0.00000  Uiso   1.00
C206   C     0.83976   0.55100   0.74669   0.00000  Uiso   1.00
C207   C     0.82478   0.55595   0.63068   0.00000  Uiso   1.00
H208   H     0.88855   0.55399   0.24564   0.00000  Uiso   1.00
H209   H     0.93254   0.59153   0.29162   0.00000  Uiso   1.00
H210   H     0.88280   0.51035   0.19485   0.00000  Uiso   1.00
H211   H     0.85148   0.56109   0.19561   0.00000  Uiso   1.00
H212   H     0.97947   0.63156   0.42906   0.00000  Uiso   1.00
H213   H     0.87459   0.46038   0.22499   0.00000  Uiso   1.00
H214   H     0.80854   0.56737   0.22659   0.00000  Uiso   1.00
H215   H     0.87439   0.54180   0.91190   0.00000  Uiso   1.00
H216   H     0.91760   0.57867   0.99444   0.00000  Uiso   1.00
H217   H     0.86786   0.49749   0.89766   0.00000  Uiso   1.00
H218   H     0.83654   0.54823   0.89842   0.00000  Uiso   1.00
H219   H     0.96735   0.62112   0.99949   0.00000  Uiso   1.00
H220   H     0.86246   0.44994   0.79542   0.00000  Uiso   1.00
H221   H     0.79641   0.55693   0.79702   0.00000  Uiso   1.00
O222   O     0.00209   0.65081   0.75655   0.00000  Uiso   1.00
O223   O     0.86448   0.42622   0.48881   0.00000  Uiso   1.00
O224   O     0.77783   0.56660   0.49091   0.00000  Uiso   1.00
N225   N     0.97069   0.62405   0.55198   0.00000  Uiso   1.00
N226   N     0.87263   0.46400   0.36120   0.00000  Uiso   1.00
N227   N     0.81087   0.56403   0.36268   0.00000  Uiso   1.00
N228   N     0.96416   0.61843   0.85893   0.00000  Uiso   1.00
N229   N     0.86610   0.45838   0.66814   0.00000  Uiso   1.00
N230   N     0.80435   0.55841   0.66962   0.00000  Uiso   1.00
C231   C     0.44880   0.33411   0.39828   0.00000  Uiso   1.00
C232   C     0.43009   0.33734   0.51565   0.00000  Uiso   1.00
C233   C     0.41124   0.34056   0.44336   0.00000  Uiso   1.00
C234   C     0.39608   0.34319   0.57422   0.00000  Uiso   1.00
C235   C     0.36650   0.34830   0.72664   0.00000  Uiso   1.00
C236   C     0.47420   0.35442   0.46308   0.00000  Uiso   1.00
C237   C     0.49244   0.37201   0.34657   0.00000  Uiso   1.00
C238   C     0.51441   0.38902   0.43318   0.00000  Uiso   1.00
C239   C     0.55331   0.42065   0.50395   0.00000  Uiso   1.00
C240   C     0.44663   0.30984   0.46349   0.00000  Uiso   1.00
C241   C     0.44169   0.28994   0.34732   0.00000  Uiso   1.00
C242   C     0.44046   0.26941   0.43427   0.00000  Uiso   1.00
C243   C     0.43655   0.23181   0.50568   0.00000  Uiso   1.00
C244   C     0.45541   0.33304   0.75925   0.00000  Uiso   1.00
C245   C     0.43368   0.33676   0.71171   0.00000  Uiso   1.00
C246   C     0.41855   0.33938   0.84272   0.00000  Uiso   1.00
C247   C     0.39967   0.34260   0.77063   0.00000  Uiso   1.00
C248   C     0.47779   0.35384   0.65913   0.00000  Uiso   1.00
C249   C     0.49974   0.37083   0.74593   0.00000  Uiso   1.00
C250   C     0.51800   0.38844   0.62959   0.00000  Uiso   1.00
C251   C     0.45022   0.30926   0.65955   0.00000  Uiso   1.00
C252   C     0.44900   0.28875   0.74669   0.00000  Uiso   1.00
C253   C     0.44405   0.26883   0.63068   0.00000  Uiso   1.00
H254   H     0.44601   0.33456   0.24564   0.00000  Uiso   1.00
H255   H     0.40847   0.34101   0.29162   0.00000  Uiso   1.00
H256   H     0.48965   0.37245   0.19485   0.00000  Uiso   1.00
H257   H     0.43891   0.29039   0.19561   0.00000  Uiso   1.00
H258   H     0.36844   0.34791   0.42906   0.00000  Uiso   1.00
H259   H     0.53962   0.41421   0.22499   0.00000  Uiso   1.00
H260   H     0.43263   0.24117   0.22659   0.00000  Uiso   1.00
H261   H     0.45820   0.33259   0.91190   0.00000  Uiso   1.00
H262   H     0.42133   0.33893   0.99444   0.00000  Uiso   1.00
H263   H     0.50251   0.37037   0.89766   0.00000  Uiso   1.00
H264   H     0.45177   0.28831   0.89842   0.00000  Uiso   1.00
H265   H     0.37888   0.34622   0.99949   0.00000  Uiso   1.00
H266   H     0.55006   0.41252   0.79542   0.00000  Uiso   1.00
H267   H     0.44307   0.23948   0.79702   0.00000  Uiso   1.00
O268   O     0.34919   0.35128   0.75655   0.00000  Uiso   1.00
O269   O     0.57378   0.43826   0.48881   0.00000  Uiso   1.00
O270   O     0.43340   0.21123   0.49091   0.00000  Uiso   1.00
N271   N     0.37595   0.34664   0.55198   0.00000  Uiso   1.00
N272   N     0.53600   0.40863   0.36120   0.00000  Uiso   1.00
N273   N     0.43597   0.24685   0.36268   0.00000  Uiso   1.00
N274   N     0.38157   0.34573   0.85893   0.00000  Uiso   1.00
N275   N     0.54162   0.40772   0.66814   0.00000  Uiso   1.00
N276   N     0.44159   0.24594   0.66962   0.00000  Uiso   1.00
C277   C     0.88531   0.33411   0.10172   0.00000  Uiso   1.00
C278   C     0.90724   0.33734   0.98435   0.00000  Uiso   1.00
C279   C     0.92932   0.34056   0.05664   0.00000  Uiso   1.00
C280   C     0.94711   0.34319   0.92578   0.00000  Uiso   1.00
C281   C     0.98180   0.34830   0.77336   0.00000  Uiso   1.00
C282   C     0.88022   0.35442   0.03692   0.00000  Uiso   1.00
C283   C     0.87958   0.37201   0.15343   0.00000  Uiso   1.00
C284   C     0.87461   0.38902   0.06682   0.00000  Uiso   1.00
C285   C     0.86734   0.42065   0.99605   0.00000  Uiso   1.00
C286   C     0.86321   0.30984   0.03651   0.00000  Uiso   1.00
C287   C     0.84825   0.28994   0.15268   0.00000  Uiso   1.00
C288   C     0.82895   0.26941   0.06573   0.00000  Uiso   1.00
C289   C     0.79526   0.23181   0.99432   0.00000  Uiso   1.00
C290   C     0.87763   0.33304   0.74075   0.00000  Uiso   1.00
C291   C     0.90307   0.33676   0.78829   0.00000  Uiso   1.00
C292   C     0.92083   0.33938   0.65728   0.00000  Uiso   1.00
C293   C     0.94293   0.34260   0.72937   0.00000  Uiso   1.00
C294   C     0.87605   0.35384   0.84087   0.00000  Uiso   1.00
C295   C     0.87108   0.37083   0.75407   0.00000  Uiso   1.00
C296   C     0.87043   0.38844   0.87041   0.00000  Uiso   1.00
C297   C     0.85904   0.30926   0.84045   0.00000  Uiso   1.00
C298   C     0.83976   0.28875   0.75331   0.00000  Uiso   1.00
C299   C     0.82478   0.26883   0.86932   0.00000  Uiso   1.00
H300   H     0.88855   0.33456   0.25436   0.00000  Uiso   1.00
H301   H     0.93254   0.34101   0.20838   0.00000  Uiso   1.00
H302   H     0.88280   0.37245   0.30515   0.00000  Uiso   1.00
H303   H     0.85148   0.29039   0.30439   0.00000  Uiso   1.00
H304   H     0.97947   0.34791   0.07094   0.00000  Uiso   1.00
H305   H     0.87459   0.41421   0.27501   0.00000  Uiso   1.00
H306   H     0.80854   0.24117   0.27341   0.00000  Uiso   1.00
H307   H     0.87439   0.33259   0.58810   0.00000  Uiso   1.00
H308   H     0.91760   0.33893   0.50556   0.00000  Uiso   1.00
H309   H     0.86786   0.37037   0.60234   0.00000  Uiso   1.00
H310   H     0.83654   0.28831   0.60158   0.00000  Uiso   1.00
H311   H     0.96735   0.34622   0.50051   0.00000  Uiso   1.00
H312   H     0.86246   0.41252   0.70458   0.00000  Uiso   1.00
H313   H     0.79641   0.23948   0.70298   0.00000  Uiso   1.00
O314   O     0.00209   0.35128   0.74345   0.00000  Uiso   1.00
O315   O     0.86448   0.43826   0.01119   0.00000  Uiso   1.00
O316   O     0.77783   0.21123   0.00909   0.00000  Uiso   1.00
N317   N     0.97069   0.34664   0.94802   0.00000  Uiso   1.00
N318   N     0.87263   0.40863   0.13880   0.00000  Uiso   1.00
N319   N     0.81087   0.24685   0.13732   0.00000  Uiso   1.00
N320   N     0.96416   0.34573   0.64107   0.00000  Uiso   1.00
N321   N     0.86610   0.40772   0.83186   0.00000  Uiso   1.00
N322   N     0.80435   0.24594   0.83038   0.00000  Uiso   1.00
C323   C     0.44880   0.11469   0.10172   0.00000  Uiso   1.00
C324   C     0.43009   0.09276   0.98435   0.00000  Uiso   1.00
C325   C     0.41124   0.07068   0.05664   0.00000  Uiso   1.00
C326   C     0.39608   0.05289   0.92578   0.00000  Uiso   1.00
C327   C     0.36650   0.01820   0.77336   0.00000  Uiso   1.00
C328   C     0.47420   0.11978   0.03692   0.00000  Uiso   1.00
C329   C     0.49244   0.12042   0.15343   0.00000  Uiso   1.00
C330   C     0.51441   0.12539   0.06682   0.00000  Uiso   1.00
C331   C     0.55331   0.13266   0.99605   0.00000  Uiso   1.00
C332   C     0.44663   0.13679   0.03651   0.00000  Uiso   1.00
C333   C     0.44169   0.15175   0.15268   0.00000  Uiso   1.00
C334   C     0.44046   0.17105   0.06573   0.00000  Uiso   1.00
C335   C     0.43655   0.20474   0.99432   0.00000  Uiso   1.00
C336   C     0.45541   0.12237   0.74075   0.00000  Uiso   1.00
C337   C     0.43368   0.09693   0.78829   0.00000  Uiso   1.00
C338   C     0.41855   0.07917   0.65728   0.00000  Uiso   1.00
C339   C     0.39967   0.05707   0.72937   0.00000  Uiso   1.00
C340   C     0.47779   0.12395   0.84087   0.00000  Uiso   1.00
C341   C     0.49974   0.12892   0.75407   0.00000  Uiso   1.00
C342   C     0.51800   0.12957   0.87041   0.00000  Uiso   1.00
C343   C     0.45022   0.14096   0.84045   0.00000  Uiso   1.00
C344   C     0.44900   0.16024   0.75331   0.00000  Uiso   1.00
C345   C     0.44405   0.17522   0.86932   0.00000  Uiso   1.00
H346   H     0.44601   0.11145   0.25436   0.00000  Uiso   1.00
H347   H     0.40847   0.06746   0.20838   0.00000  Uiso   1.00
H348   H     0.48965   0.11720   0.30515   0.00000  Uiso   1.00
H349   H     0.43891   0.14852   0.30439   0.00000  Uiso   1.00
H350   H     0.36844   0.02053   0.07094   0.00000  Uiso   1.00
H351   H     0.53962   0.12541   0.27501   0.00000  Uiso   1.00
H352   H     0.43263   0.19146   0.27341   0.00000  Uiso   1.00
H353   H     0.45820   0.12561   0.58810   0.00000  Uiso   1.00
H354   H     0.42133   0.08240   0.50556   0.00000  Uiso   1.00
H355   H     0.50251   0.13214   0.60234   0.00000  Uiso   1.00
H356   H     0.45177   0.16346   0.60158   0.00000  Uiso   1.00
H357   H     0.37888   0.03265   0.50051   0.00000  Uiso   1.00
H358   H     0.55006   0.13754   0.70458   0.00000  Uiso   1.00
H359   H     0.44307   0.20359   0.70298   0.00000  Uiso   1.00
O360   O     0.34919   0.99791   0.74345   0.00000  Uiso   1.00
O361   O     0.57378   0.13552   0.01119   0.00000  Uiso   1.00
O362   O     0.43340   0.22217   0.00909   0.00000  Uiso   1.00
N363   N     0.37595   0.02931   0.94802   0.00000  Uiso   1.00
N364   N     0.53600   0.12737   0.13880   0.00000  Uiso   1.00
N365   N     0.43597   0.18913   0.13732   0.00000  Uiso   1.00
N366   N     0.38157   0.03584   0.64107   0.00000  Uiso   1.00
N367   N     0.54162   0.13390   0.83186   0.00000  Uiso   1.00
N368   N     0.44159   0.19565   0.83038   0.00000  Uiso   1.00
C369   C     0.66589   0.55120   0.10172   0.00000  Uiso   1.00
C370   C     0.66266   0.56991   0.98435   0.00000  Uiso   1.00
C371   C     0.65944   0.58876   0.05664   0.00000  Uiso   1.00
C372   C     0.65681   0.60392   0.92578   0.00000  Uiso   1.00
C373   C     0.65170   0.63350   0.77336   0.00000  Uiso   1.00
C374   C     0.64558   0.52580   0.03692   0.00000  Uiso   1.00
C375   C     0.62799   0.50756   0.15343   0.00000  Uiso   1.00
C376   C     0.61098   0.48559   0.06682   0.00000  Uiso   1.00
C377   C     0.57935   0.44669   0.99605   0.00000  Uiso   1.00
C378   C     0.69016   0.55337   0.03651   0.00000  Uiso   1.00
C379   C     0.71006   0.55831   0.15268   0.00000  Uiso   1.00
C380   C     0.73059   0.55954   0.06573   0.00000  Uiso   1.00
C381   C     0.76819   0.56345   0.99432   0.00000  Uiso   1.00
C382   C     0.66696   0.54459   0.74075   0.00000  Uiso   1.00
C383   C     0.66324   0.56632   0.78829   0.00000  Uiso   1.00
C384   C     0.66062   0.58145   0.65728   0.00000  Uiso   1.00
C385   C     0.65740   0.60033   0.72937   0.00000  Uiso   1.00
C386   C     0.64616   0.52221   0.84087   0.00000  Uiso   1.00
C387   C     0.62917   0.50026   0.75407   0.00000  Uiso   1.00
C388   C     0.61156   0.48200   0.87041   0.00000  Uiso   1.00
C389   C     0.69074   0.54978   0.84045   0.00000  Uiso   1.00
C390   C     0.71125   0.55100   0.75331   0.00000  Uiso   1.00
C391   C     0.73117   0.55595   0.86932   0.00000  Uiso   1.00
H392   H     0.66544   0.55399   0.25436   0.00000  Uiso   1.00
H393   H     0.65899   0.59153   0.20838   0.00000  Uiso   1.00
H394   H     0.62755   0.51035   0.30515   0.00000  Uiso   1.00
H395   H     0.70961   0.56109   0.30439   0.00000  Uiso   1.00
H396   H     0.65209   0.63156   0.07094   0.00000  Uiso   1.00
H397   H     0.58579   0.46038   0.27501   0.00000  Uiso   1.00
H398   H     0.75883   0.56737   0.27341   0.00000  Uiso   1.00
H399   H     0.66741   0.54180   0.58810   0.00000  Uiso   1.00
H400   H     0.66107   0.57867   0.50556   0.00000  Uiso   1.00
H401   H     0.62963   0.49749   0.60234   0.00000  Uiso   1.00
H402   H     0.71169   0.54823   0.60158   0.00000  Uiso   1.00
H403   H     0.65378   0.62112   0.50051   0.00000  Uiso   1.00
H404   H     0.58748   0.44994   0.70458   0.00000  Uiso   1.00
H405   H     0.76052   0.55693   0.70298   0.00000  Uiso   1.00
O406   O     0.64872   0.65081   0.74345   0.00000  Uiso   1.00
O407   O     0.56174   0.42622   0.01119   0.00000  Uiso   1.00
O408   O     0.78877   0.56660   0.00909   0.00000  Uiso   1.00
N409   N     0.65336   0.62405   0.94802   0.00000  Uiso   1.00
N410   N     0.59137   0.46400   0.13880   0.00000  Uiso   1.00
N411   N     0.75315   0.56403   0.13732   0.00000  Uiso   1.00
N412   N     0.65427   0.61843   0.64107   0.00000  Uiso   1.00
N413   N     0.59228   0.45838   0.83186   0.00000  Uiso   1.00
N414   N     0.75406   0.55841   0.83038   0.00000  Uiso   1.00
C415   C     0.11469   0.66589   0.60172   0.00000  Uiso   1.00
C416   C     0.09276   0.66266   0.48435   0.00000  Uiso   1.00
C417   C     0.07068   0.65944   0.55664   0.00000  Uiso   1.00
C418   C     0.05289   0.65681   0.42578   0.00000  Uiso   1.00
C419   C     0.01820   0.65170   0.27336   0.00000  Uiso   1.00
C420   C     0.11978   0.64558   0.53692   0.00000  Uiso   1.00
C421   C     0.12042   0.62799   0.65343   0.00000  Uiso   1.00
C422   C     0.12539   0.61098   0.56682   0.00000  Uiso   1.00
C423   C     0.13266   0.57935   0.49605   0.00000  Uiso   1.00
C424   C     0.13679   0.69016   0.53651   0.00000  Uiso   1.00
C425   C     0.15175   0.71006   0.65268   0.00000  Uiso   1.00
C426   C     0.17105   0.73059   0.56573   0.00000  Uiso   1.00
C427   C     0.20474   0.76819   0.49432   0.00000  Uiso   1.00
C428   C     0.12237   0.66696   0.24075   0.00000  Uiso   1.00
C429   C     0.09693   0.66324   0.28829   0.00000  Uiso   1.00
C430   C     0.07917   0.66062   0.15728   0.00000  Uiso   1.00
C431   C     0.05707   0.65740   0.22937   0.00000  Uiso   1.00
C432   C     0.12395   0.64616   0.34087   0.00000  Uiso   1.00
C433   C     0.12892   0.62917   0.25407   0.00000  Uiso   1.00
C434   C     0.12957   0.61156   0.37041   0.00000  Uiso   1.00
C435   C     0.14096   0.69074   0.34045   0.00000  Uiso   1.00
C436   C     0.16024   0.71125   0.25331   0.00000  Uiso   1.00
C437   C     0.17522   0.73117   0.36932   0.00000  Uiso   1.00
H438   H     0.11145   0.66544   0.75436   0.00000  Uiso   1.00
H439   H     0.06746   0.65899   0.70838   0.00000  Uiso   1.00
H440   H     0.11720   0.62755   0.80515   0.00000  Uiso   1.00
H441   H     0.14852   0.70961   0.80439   0.00000  Uiso   1.00
H442   H     0.02053   0.65209   0.57094   0.00000  Uiso   1.00
H443   H     0.12541   0.58579   0.77501   0.00000  Uiso   1.00
H444   H     0.19146   0.75883   0.77341   0.00000  Uiso   1.00
H445   H     0.12561   0.66741   0.08810   0.00000  Uiso   1.00
H446   H     0.08240   0.66107   0.00556   0.00000  Uiso   1.00
H447   H     0.13214   0.62963   0.10234   0.00000  Uiso   1.00
H448   H     0.16346   0.71169   0.10158   0.00000  Uiso   1.00
H449   H     0.03265   0.65378   0.00051   0.00000  Uiso   1.00
H450   H     0.13754   0.58748   0.20458   0.00000  Uiso   1.00
H451   H     0.20359   0.76052   0.20298   0.00000  Uiso   1.00
O452   O     0.99791   0.64872   0.24345   0.00000  Uiso   1.00
O453   O     0.13552   0.56174   0.51119   0.00000  Uiso   1.00
O454   O     0.22217   0.78877   0.50909   0.00000  Uiso   1.00
N455   N     0.02931   0.65336   0.44802   0.00000  Uiso   1.00
N456   N     0.12737   0.59137   0.63880   0.00000  Uiso   1.00
N457   N     0.18913   0.75315   0.63732   0.00000  Uiso   1.00
N458   N     0.03584   0.65427   0.14107   0.00000  Uiso   1.00
N459   N     0.13390   0.59228   0.33186   0.00000  Uiso   1.00
N460   N     0.19565   0.75406   0.33038   0.00000  Uiso   1.00
C461   C     0.55120   0.88531   0.60172   0.00000  Uiso   1.00
C462   C     0.56991   0.90724   0.48435   0.00000  Uiso   1.00
C463   C     0.58876   0.92932   0.55664   0.00000  Uiso   1.00
C464   C     0.60392   0.94711   0.42578   0.00000  Uiso   1.00
C465   C     0.63350   0.98180   0.27336   0.00000  Uiso   1.00
C466   C     0.52580   0.88022   0.53692   0.00000  Uiso   1.00
C467   C     0.50756   0.87958   0.65343   0.00000  Uiso   1.00
C468   C     0.48559   0.87461   0.56682   0.00000  Uiso   1.00
C469   C     0.44669   0.86734   0.49605   0.00000  Uiso   1.00
C470   C     0.55337   0.86321   0.53651   0.00000  Uiso   1.00
C471   C     0.55831   0.84825   0.65268   0.00000  Uiso   1.00
C472   C     0.55954   0.82895   0.56573   0.00000  Uiso   1.00
C473   C     0.56345   0.79526   0.49432   0.00000  Uiso   1.00
C474   C     0.54459   0.87763   0.24075   0.00000  Uiso   1.00
C475   C     0.56632   0.90307   0.28829   0.00000  Uiso   1.00
C476   C     0.58145   0.92083   0.15728   0.00000  Uiso   1.00
C477   C     0.60033   0.94293   0.22937   0.00000  Uiso   1.00
C478   C     0.52221   0.87605   0.34087   0.00000  Uiso   1.00
C479   C     0.50026   0.87108   0.25407   0.00000  Uiso   1.00
C480   C     0.48200   0.87043   0.37041   0.00000  Uiso   1.00
C481   C     0.54978   0.85904   0.34045   0.00000  Uiso   1.00
C482   C     0.55100   0.83976   0.25331   0.00000  Uiso   1.00
C483   C     0.55595   0.82478   0.36932   0.00000  Uiso   1.00
H484   H     0.55399   0.88855   0.75436   0.00000  Uiso   1.00
H485   H     0.59153   0.93254   0.70838   0.00000  Uiso   1.00
H486   H     0.51035   0.88280   0.80515   0.00000  Uiso   1.00
H487   H     0.56109   0.85148   0.80439   0.00000  Uiso   1.00
H488   H     0.63156   0.97947   0.57094   0.00000  Uiso   1.00
H489   H     0.46038   0.87459   0.77501   0.00000  Uiso   1.00
H490   H     0.56737   0.80854   0.77341   0.00000  Uiso   1.00
H491   H     0.54180   0.87439   0.08810   0.00000  Uiso   1.00
H492   H     0.57867   0.91760   0.00556   0.00000  Uiso   1.00
H493   H     0.49749   0.86786   0.10234   0.00000  Uiso   1.00
H494   H     0.54823   0.83654   0.10158   0.00000  Uiso   1.00
H495   H     0.62112   0.96735   0.00051   0.00000  Uiso   1.00
H496   H     0.44994   0.86246   0.20458   0.00000  Uiso   1.00
H497   H     0.55693   0.79641   0.20298   0.00000  Uiso   1.00
O498   O     0.65081   0.00209   0.24345   0.00000  Uiso   1.00
O499   O     0.42622   0.86448   0.51119   0.00000  Uiso   1.00
O500   O     0.56660   0.77783   0.50909   0.00000  Uiso   1.00
N501   N     0.62405   0.97069   0.44802   0.00000  Uiso   1.00
N502   N     0.46400   0.87263   0.63880   0.00000  Uiso   1.00
N503   N     0.56403   0.81087   0.63732   0.00000  Uiso   1.00
N504   N     0.61843   0.96416   0.14107   0.00000  Uiso   1.00
N505   N     0.45838   0.86610   0.33186   0.00000  Uiso   1.00
N506   N     0.55841   0.80435   0.33038   0.00000  Uiso   1.00
C507   C     0.33411   0.44880   0.60172   0.00000  Uiso   1.00
C508   C     0.33734   0.43009   0.48435   0.00000  Uiso   1.00
C509   C     0.34056   0.41124   0.55664   0.00000  Uiso   1.00
C510   C     0.34319   0.39608   0.42578   0.00000  Uiso   1.00
C511   C     0.34830   0.36650   0.27336   0.00000  Uiso   1.00
C512   C     0.35442   0.47420   0.53692   0.00000  Uiso   1.00
C513   C     0.37201   0.49244   0.65343   0.00000  Uiso   1.00
C514   C     0.38902   0.51441   0.56682   0.00000  Uiso   1.00
C515   C     0.42065   0.55331   0.49605   0.00000  Uiso   1.00
C516   C     0.30984   0.44663   0.53651   0.00000  Uiso   1.00
C517   C     0.28994   0.44169   0.65268   0.00000  Uiso   1.00
C518   C     0.26941   0.44046   0.56573   0.00000  Uiso   1.00
C519   C     0.23181   0.43655   0.49432   0.00000  Uiso   1.00
C520   C     0.33304   0.45541   0.24075   0.00000  Uiso   1.00
C521   C     0.33676   0.43368   0.28829   0.00000  Uiso   1.00
C522   C     0.33938   0.41855   0.15728   0.00000  Uiso   1.00
C523   C     0.34260   0.39967   0.22937   0.00000  Uiso   1.00
C524   C     0.35384   0.47779   0.34087   0.00000  Uiso   1.00
C525   C     0.37083   0.49974   0.25407   0.00000  Uiso   1.00
C526   C     0.38844   0.51800   0.37041   0.00000  Uiso   1.00
C527   C     0.30926   0.45022   0.34045   0.00000  Uiso   1.00
C528   C     0.28875   0.44900   0.25331   0.00000  Uiso   1.00
C529   C     0.26883   0.44405   0.36932   0.00000  Uiso   1.00
H530   H     0.33456   0.44601   0.75436   0.00000  Uiso   1.00
H531   H     0.34101   0.40847   0.70838   0.00000  Uiso   1.00
H532   H     0.37245   0.48965   0.80515   0.00000  Uiso   1.00
H533   H     0.29039   0.43891   0.80439   0.00000  Uiso   1.00
H534   H     0.34791   0.36844   0.57094   0.00000  Uiso   1.00
H535   H     0.41421   0.53962   0.77501   0.00000  Uiso   1.00
H536   H     0.24117   0.43263   0.77341   0.00000  Uiso   1.00
H537   H     0.33259   0.45820   0.08810   0.00000  Uiso   1.00
H538   H     0.33893   0.42133   0.00556   0.00000  Uiso   1.00
H539   H     0.37037   0.50251   0.10234   0.00000  Uiso   1.00
H540   H     0.28831   0.45177   0.10158   0.00000  Uiso   1.00
H541   H     0.34622   0.37888   0.00051   0.00000  Uiso   1.00
H542   H     0.41252   0.55006   0.20458   0.00000  Uiso   1.00
H543   H     0.23948   0.44307   0.20298   0.00000  Uiso   1.00
O544   O     0.35128   0.34919   0.24345   0.00000  Uiso   1.00
O545   O     0.43826   0.57378   0.51119   0.00000  Uiso   1.00
O546   O     0.21123   0.43340   0.50909   0.00000  Uiso   1.00
N547   N     0.34664   0.37595   0.44802   0.00000  Uiso   1.00
N548   N     0.40863   0.53600   0.63880   0.00000  Uiso   1.00
N549   N     0.24685   0.43597   0.63732   0.00000  Uiso   1.00
N550   N     0.34573   0.38157   0.14107   0.00000  Uiso   1.00
N551   N     0.40772   0.54162   0.33186   0.00000  Uiso   1.00
N552   N     0.24594   0.44159   0.33038   0.00000  Uiso   1.00
