data_job_03326
_audit_creation_date              2018-12-19
_audit_creation_method            'Materials Studio'
_symmetry_space_group_name_H-M    'P1'
_symmetry_Int_Tables_number       1
_symmetry_cell_setting            triclinic
loop_
_symmetry_equiv_pos_as_xyz
  x,y,z
_cell_length_a                    16.8471
_cell_length_b                    16.8471
_cell_length_c                    21.9174
_cell_angle_alpha                 90.0000
_cell_angle_beta                  90.0000
_cell_angle_gamma                 90.0000
loop_
_atom_site_label
_atom_site_type_symbol
_atom_site_fract_x
_atom_site_fract_y
_atom_site_fract_z
_atom_site_U_iso_or_equiv
_atom_site_adp_type
_atom_site_occupancy
C1     C     0.10412   0.76676   0.62389   0.00000  Uiso   1.00
C2     C     0.13807   0.82967   0.58121   0.00000  Uiso   1.00
C3     C     0.21810   0.84413   0.57113   0.00000  Uiso   1.00
C4     C     0.23703   0.90430   0.53037   0.00000  Uiso   1.00
C5     C     0.29873   0.99530   0.46861   0.00000  Uiso   1.00
C6     C     0.05018   0.81089   0.66829   0.00000  Uiso   1.00
C7     C     0.05630   0.80955   0.73143   0.00000  Uiso   1.00
C8     C     0.00124   0.85391   0.76397   0.00000  Uiso   1.00
C9     C     0.92645   0.91570   0.83742   0.00000  Uiso   1.00
C10    C     0.04962   0.71535   0.58485   0.00000  Uiso   1.00
C11    C     0.05527   0.63367   0.57784   0.00000  Uiso   1.00
C12    C     0.99972   0.59759   0.54015   0.00000  Uiso   1.00
C13    C     0.92407   0.51105   0.48404   0.00000  Uiso   1.00
C14    C     0.99543   0.84792   0.56942   0.00000  Uiso   1.00
C15    C     0.07903   0.87375   0.55162   0.00000  Uiso   1.00
C16    C     0.09784   0.93392   0.51086   0.00000  Uiso   1.00
C17    C     0.17789   0.94846   0.50072   0.00000  Uiso   1.00
C18    C     0.99114   0.85497   0.63871   0.00000  Uiso   1.00
C19    C     0.93605   0.89933   0.67116   0.00000  Uiso   1.00
C20    C     0.94209   0.89806   0.73433   0.00000  Uiso   1.00
C21    C     0.99059   0.75943   0.55526   0.00000  Uiso   1.00
C22    C     0.93502   0.72347   0.51757   0.00000  Uiso   1.00
C23    C     0.94058   0.64175   0.51051   0.00000  Uiso   1.00
H24    H     0.15008   0.73245   0.64693   0.00000  Uiso   1.00
H25    H     0.26377   0.81001   0.59404   0.00000  Uiso   1.00
H26    H     0.10199   0.77543   0.75431   0.00000  Uiso   1.00
H27    H     0.10096   0.59958   0.60075   0.00000  Uiso   1.00
H28    H     0.36378   0.91545   0.52237   0.00000  Uiso   1.00
H29    H     0.02265   0.84251   0.86031   0.00000  Uiso   1.00
H30    H     0.02047   0.47172   0.53650   0.00000  Uiso   1.00
H31    H     0.94946   0.88224   0.54638   0.00000  Uiso   1.00
H32    H     0.05214   0.96802   0.48797   0.00000  Uiso   1.00
H33    H     0.89037   0.93344   0.64825   0.00000  Uiso   1.00
H34    H     0.88934   0.75759   0.49469   0.00000  Uiso   1.00
H35    H     0.19202   0.04370   0.43629   0.00000  Uiso   1.00
H36    H     0.85089   0.97076   0.77423   0.00000  Uiso   1.00
H37    H     0.84871   0.59997   0.45041   0.00000  Uiso   1.00
O38    O     0.34907   0.03332   0.44273   0.00000  Uiso   1.00
O39    O     0.90151   0.93761   0.88610   0.00000  Uiso   1.00
O40    O     0.89866   0.45114   0.46126   0.00000  Uiso   1.00
N41    N     0.30926   0.93386   0.51012   0.00000  Uiso   1.00
N42    N     0.99034   0.86567   0.82607   0.00000  Uiso   1.00
N43    N     0.98829   0.51900   0.52334   0.00000  Uiso   1.00
N44    N     0.21684   0.00286   0.46379   0.00000  Uiso   1.00
N45    N     0.89791   0.93468   0.77975   0.00000  Uiso   1.00
N46    N     0.89586   0.58801   0.47702   0.00000  Uiso   1.00
C47    C     0.89588   0.23324   0.12389   0.00000  Uiso   1.00
C48    C     0.86193   0.17033   0.08121   0.00000  Uiso   1.00
C49    C     0.78190   0.15587   0.07113   0.00000  Uiso   1.00
C50    C     0.76297   0.09570   0.03037   0.00000  Uiso   1.00
C51    C     0.70127   0.00470   0.96861   0.00000  Uiso   1.00
C52    C     0.94982   0.18911   0.16829   0.00000  Uiso   1.00
C53    C     0.94370   0.19045   0.23143   0.00000  Uiso   1.00
C54    C     0.99876   0.14609   0.26397   0.00000  Uiso   1.00
C55    C     0.07355   0.08430   0.33742   0.00000  Uiso   1.00
C56    C     0.95038   0.28465   0.08485   0.00000  Uiso   1.00
C57    C     0.94473   0.36633   0.07784   0.00000  Uiso   1.00
C58    C     0.00028   0.40241   0.04015   0.00000  Uiso   1.00
C59    C     0.07593   0.48895   0.98404   0.00000  Uiso   1.00
C60    C     0.00457   0.15208   0.06942   0.00000  Uiso   1.00
C61    C     0.92097   0.12625   0.05162   0.00000  Uiso   1.00
C62    C     0.90216   0.06608   0.01086   0.00000  Uiso   1.00
C63    C     0.82211   0.05154   0.00072   0.00000  Uiso   1.00
C64    C     0.00886   0.14503   0.13871   0.00000  Uiso   1.00
C65    C     0.06395   0.10067   0.17116   0.00000  Uiso   1.00
C66    C     0.05791   0.10194   0.23433   0.00000  Uiso   1.00
C67    C     0.00941   0.24057   0.05526   0.00000  Uiso   1.00
C68    C     0.06498   0.27653   0.01757   0.00000  Uiso   1.00
C69    C     0.05942   0.35825   0.01051   0.00000  Uiso   1.00
H70    H     0.84992   0.26755   0.14693   0.00000  Uiso   1.00
H71    H     0.73623   0.18999   0.09404   0.00000  Uiso   1.00
H72    H     0.89801   0.22457   0.25431   0.00000  Uiso   1.00
H73    H     0.89904   0.40042   0.10075   0.00000  Uiso   1.00
H74    H     0.63622   0.08455   0.02237   0.00000  Uiso   1.00
H75    H     0.97735   0.15749   0.36031   0.00000  Uiso   1.00
H76    H     0.97953   0.52828   0.03650   0.00000  Uiso   1.00
H77    H     0.05054   0.11776   0.04638   0.00000  Uiso   1.00
H78    H     0.94786   0.03198   0.98797   0.00000  Uiso   1.00
H79    H     0.10963   0.06656   0.14825   0.00000  Uiso   1.00
H80    H     0.11066   0.24241   0.99469   0.00000  Uiso   1.00
H81    H     0.80798   0.95630   0.93629   0.00000  Uiso   1.00
H82    H     0.14911   0.02924   0.27423   0.00000  Uiso   1.00
H83    H     0.15129   0.40003   0.95041   0.00000  Uiso   1.00
O84    O     0.65093   0.96668   0.94273   0.00000  Uiso   1.00
O85    O     0.09849   0.06239   0.38610   0.00000  Uiso   1.00
O86    O     0.10134   0.54886   0.96126   0.00000  Uiso   1.00
N87    N     0.69074   0.06614   0.01012   0.00000  Uiso   1.00
N88    N     0.00966   0.13433   0.32607   0.00000  Uiso   1.00
N89    N     0.01171   0.48100   0.02334   0.00000  Uiso   1.00
N90    N     0.78316   0.99714   0.96379   0.00000  Uiso   1.00
N91    N     0.10209   0.06532   0.27975   0.00000  Uiso   1.00
N92    N     0.10414   0.41199   0.97702   0.00000  Uiso   1.00
C93    C     0.73324   0.60412   0.37389   0.00000  Uiso   1.00
C94    C     0.67033   0.63807   0.33121   0.00000  Uiso   1.00
C95    C     0.65587   0.71810   0.32113   0.00000  Uiso   1.00
C96    C     0.59570   0.73703   0.28037   0.00000  Uiso   1.00
C97    C     0.50470   0.79873   0.21861   0.00000  Uiso   1.00
C98    C     0.68911   0.55018   0.41829   0.00000  Uiso   1.00
C99    C     0.69045   0.55630   0.48143   0.00000  Uiso   1.00
C100   C     0.64609   0.50124   0.51397   0.00000  Uiso   1.00
C101   C     0.58430   0.42645   0.58742   0.00000  Uiso   1.00
C102   C     0.78465   0.54962   0.33485   0.00000  Uiso   1.00
C103   C     0.86633   0.55527   0.32784   0.00000  Uiso   1.00
C104   C     0.90241   0.49972   0.29015   0.00000  Uiso   1.00
C105   C     0.98895   0.42407   0.23404   0.00000  Uiso   1.00
C106   C     0.65208   0.49543   0.31942   0.00000  Uiso   1.00
C107   C     0.62625   0.57903   0.30162   0.00000  Uiso   1.00
C108   C     0.56608   0.59784   0.26086   0.00000  Uiso   1.00
C109   C     0.55154   0.67789   0.25072   0.00000  Uiso   1.00
C110   C     0.64503   0.49114   0.38871   0.00000  Uiso   1.00
C111   C     0.60067   0.43605   0.42116   0.00000  Uiso   1.00
C112   C     0.60194   0.44209   0.48433   0.00000  Uiso   1.00
C113   C     0.74057   0.49059   0.30526   0.00000  Uiso   1.00
C114   C     0.77653   0.43502   0.26757   0.00000  Uiso   1.00
C115   C     0.85825   0.44058   0.26051   0.00000  Uiso   1.00
H116   H     0.76755   0.65008   0.39693   0.00000  Uiso   1.00
H117   H     0.68999   0.76377   0.34404   0.00000  Uiso   1.00
H118   H     0.72457   0.60199   0.50431   0.00000  Uiso   1.00
H119   H     0.90042   0.60096   0.35075   0.00000  Uiso   1.00
H120   H     0.58455   0.86378   0.27237   0.00000  Uiso   1.00
H121   H     0.65749   0.52265   0.61031   0.00000  Uiso   1.00
H122   H     0.02828   0.52047   0.28650   0.00000  Uiso   1.00
H123   H     0.61776   0.44946   0.29638   0.00000  Uiso   1.00
H124   H     0.53198   0.55214   0.23797   0.00000  Uiso   1.00
H125   H     0.56656   0.39037   0.39825   0.00000  Uiso   1.00
H126   H     0.74241   0.38934   0.24469   0.00000  Uiso   1.00
H127   H     0.45630   0.69202   0.18629   0.00000  Uiso   1.00
H128   H     0.52924   0.35089   0.52423   0.00000  Uiso   1.00
H129   H     0.90003   0.34871   0.20041   0.00000  Uiso   1.00
O130   O     0.46668   0.84907   0.19273   0.00000  Uiso   1.00
O131   O     0.56239   0.40151   0.63610   0.00000  Uiso   1.00
O132   O     0.04886   0.39866   0.21126   0.00000  Uiso   1.00
N133   N     0.56614   0.80926   0.26012   0.00000  Uiso   1.00
N134   N     0.63433   0.49034   0.57607   0.00000  Uiso   1.00
N135   N     0.98100   0.48829   0.27334   0.00000  Uiso   1.00
N136   N     0.49714   0.71684   0.21379   0.00000  Uiso   1.00
N137   N     0.56532   0.39791   0.52975   0.00000  Uiso   1.00
N138   N     0.91199   0.39586   0.22702   0.00000  Uiso   1.00
C139   C     0.26676   0.39588   0.87389   0.00000  Uiso   1.00
C140   C     0.32967   0.36193   0.83121   0.00000  Uiso   1.00
C141   C     0.34413   0.28190   0.82113   0.00000  Uiso   1.00
C142   C     0.40430   0.26297   0.78037   0.00000  Uiso   1.00
C143   C     0.49530   0.20127   0.71861   0.00000  Uiso   1.00
C144   C     0.31089   0.44982   0.91829   0.00000  Uiso   1.00
C145   C     0.30955   0.44370   0.98143   0.00000  Uiso   1.00
C146   C     0.35391   0.49876   0.01397   0.00000  Uiso   1.00
C147   C     0.41570   0.57355   0.08742   0.00000  Uiso   1.00
C148   C     0.21535   0.45038   0.83485   0.00000  Uiso   1.00
C149   C     0.13367   0.44473   0.82784   0.00000  Uiso   1.00
C150   C     0.09759   0.50028   0.79015   0.00000  Uiso   1.00
C151   C     0.01105   0.57593   0.73404   0.00000  Uiso   1.00
C152   C     0.34792   0.50457   0.81942   0.00000  Uiso   1.00
C153   C     0.37375   0.42097   0.80162   0.00000  Uiso   1.00
C154   C     0.43392   0.40216   0.76086   0.00000  Uiso   1.00
C155   C     0.44846   0.32211   0.75072   0.00000  Uiso   1.00
C156   C     0.35497   0.50886   0.88871   0.00000  Uiso   1.00
C157   C     0.39933   0.56395   0.92116   0.00000  Uiso   1.00
C158   C     0.39806   0.55791   0.98433   0.00000  Uiso   1.00
C159   C     0.25943   0.50941   0.80526   0.00000  Uiso   1.00
C160   C     0.22347   0.56498   0.76757   0.00000  Uiso   1.00
C161   C     0.14175   0.55942   0.76051   0.00000  Uiso   1.00
H162   H     0.23245   0.34992   0.89693   0.00000  Uiso   1.00
H163   H     0.31001   0.23623   0.84404   0.00000  Uiso   1.00
H164   H     0.27543   0.39801   0.00431   0.00000  Uiso   1.00
H165   H     0.09958   0.39904   0.85075   0.00000  Uiso   1.00
H166   H     0.41545   0.13622   0.77237   0.00000  Uiso   1.00
H167   H     0.34251   0.47735   0.11031   0.00000  Uiso   1.00
H168   H     0.97172   0.47953   0.78650   0.00000  Uiso   1.00
H169   H     0.38224   0.55054   0.79638   0.00000  Uiso   1.00
H170   H     0.46802   0.44786   0.73797   0.00000  Uiso   1.00
H171   H     0.43344   0.60963   0.89825   0.00000  Uiso   1.00
H172   H     0.25759   0.61066   0.74469   0.00000  Uiso   1.00
H173   H     0.54370   0.30798   0.68629   0.00000  Uiso   1.00
H174   H     0.47076   0.64911   0.02423   0.00000  Uiso   1.00
H175   H     0.09997   0.65129   0.70041   0.00000  Uiso   1.00
O176   O     0.53332   0.15093   0.69273   0.00000  Uiso   1.00
O177   O     0.43761   0.59849   0.13610   0.00000  Uiso   1.00
O178   O     0.95114   0.60134   0.71126   0.00000  Uiso   1.00
N179   N     0.43386   0.19074   0.76012   0.00000  Uiso   1.00
N180   N     0.36567   0.50966   0.07607   0.00000  Uiso   1.00
N181   N     0.01900   0.51171   0.77334   0.00000  Uiso   1.00
N182   N     0.50286   0.28316   0.71379   0.00000  Uiso   1.00
N183   N     0.43468   0.60209   0.02975   0.00000  Uiso   1.00
N184   N     0.08801   0.60414   0.72702   0.00000  Uiso   1.00
C185   C     0.39588   0.26676   0.12611   0.00000  Uiso   1.00
C186   C     0.36193   0.32967   0.16879   0.00000  Uiso   1.00
C187   C     0.28190   0.34413   0.17887   0.00000  Uiso   1.00
C188   C     0.26297   0.40430   0.21963   0.00000  Uiso   1.00
C189   C     0.20127   0.49530   0.28139   0.00000  Uiso   1.00
C190   C     0.44982   0.31089   0.08171   0.00000  Uiso   1.00
C191   C     0.44370   0.30955   0.01857   0.00000  Uiso   1.00
C192   C     0.49876   0.35391   0.98603   0.00000  Uiso   1.00
C193   C     0.57355   0.41570   0.91258   0.00000  Uiso   1.00
C194   C     0.45038   0.21535   0.16515   0.00000  Uiso   1.00
C195   C     0.44473   0.13367   0.17216   0.00000  Uiso   1.00
C196   C     0.50028   0.09759   0.20985   0.00000  Uiso   1.00
C197   C     0.57593   0.01105   0.26596   0.00000  Uiso   1.00
C198   C     0.50457   0.34792   0.18058   0.00000  Uiso   1.00
C199   C     0.42097   0.37375   0.19838   0.00000  Uiso   1.00
C200   C     0.40216   0.43392   0.23914   0.00000  Uiso   1.00
C201   C     0.32211   0.44846   0.24928   0.00000  Uiso   1.00
C202   C     0.50886   0.35497   0.11129   0.00000  Uiso   1.00
C203   C     0.56395   0.39933   0.07884   0.00000  Uiso   1.00
C204   C     0.55791   0.39806   0.01567   0.00000  Uiso   1.00
C205   C     0.50941   0.25943   0.19474   0.00000  Uiso   1.00
C206   C     0.56498   0.22347   0.23243   0.00000  Uiso   1.00
C207   C     0.55942   0.14175   0.23949   0.00000  Uiso   1.00
H208   H     0.34992   0.23245   0.10307   0.00000  Uiso   1.00
H209   H     0.23623   0.31001   0.15596   0.00000  Uiso   1.00
H210   H     0.39801   0.27543   0.99569   0.00000  Uiso   1.00
H211   H     0.39904   0.09958   0.14925   0.00000  Uiso   1.00
H212   H     0.13622   0.41545   0.22763   0.00000  Uiso   1.00
H213   H     0.47735   0.34251   0.88969   0.00000  Uiso   1.00
H214   H     0.47953   0.97172   0.21350   0.00000  Uiso   1.00
H215   H     0.55054   0.38224   0.20362   0.00000  Uiso   1.00
H216   H     0.44786   0.46802   0.26203   0.00000  Uiso   1.00
H217   H     0.60963   0.43344   0.10175   0.00000  Uiso   1.00
H218   H     0.61066   0.25759   0.25531   0.00000  Uiso   1.00
H219   H     0.30798   0.54370   0.31371   0.00000  Uiso   1.00
H220   H     0.64911   0.47076   0.97577   0.00000  Uiso   1.00
H221   H     0.65129   0.09997   0.29959   0.00000  Uiso   1.00
O222   O     0.15093   0.53332   0.30727   0.00000  Uiso   1.00
O223   O     0.59849   0.43761   0.86390   0.00000  Uiso   1.00
O224   O     0.60134   0.95114   0.28874   0.00000  Uiso   1.00
N225   N     0.19074   0.43386   0.23988   0.00000  Uiso   1.00
N226   N     0.50966   0.36567   0.92393   0.00000  Uiso   1.00
N227   N     0.51171   0.01900   0.22666   0.00000  Uiso   1.00
N228   N     0.28316   0.50286   0.28621   0.00000  Uiso   1.00
N229   N     0.60209   0.43468   0.97025   0.00000  Uiso   1.00
N230   N     0.60414   0.08801   0.27298   0.00000  Uiso   1.00
C231   C     0.60412   0.73324   0.62611   0.00000  Uiso   1.00
C232   C     0.63807   0.67033   0.66879   0.00000  Uiso   1.00
C233   C     0.71810   0.65587   0.67887   0.00000  Uiso   1.00
C234   C     0.73703   0.59570   0.71963   0.00000  Uiso   1.00
C235   C     0.79873   0.50470   0.78139   0.00000  Uiso   1.00
C236   C     0.55018   0.68911   0.58171   0.00000  Uiso   1.00
C237   C     0.55630   0.69045   0.51857   0.00000  Uiso   1.00
C238   C     0.50124   0.64609   0.48603   0.00000  Uiso   1.00
C239   C     0.42645   0.58430   0.41258   0.00000  Uiso   1.00
C240   C     0.54962   0.78465   0.66515   0.00000  Uiso   1.00
C241   C     0.55527   0.86633   0.67216   0.00000  Uiso   1.00
C242   C     0.49972   0.90241   0.70985   0.00000  Uiso   1.00
C243   C     0.42407   0.98895   0.76596   0.00000  Uiso   1.00
C244   C     0.49543   0.65208   0.68058   0.00000  Uiso   1.00
C245   C     0.57903   0.62625   0.69838   0.00000  Uiso   1.00
C246   C     0.59784   0.56608   0.73914   0.00000  Uiso   1.00
C247   C     0.67789   0.55154   0.74928   0.00000  Uiso   1.00
C248   C     0.49114   0.64503   0.61129   0.00000  Uiso   1.00
C249   C     0.43605   0.60067   0.57884   0.00000  Uiso   1.00
C250   C     0.44209   0.60194   0.51567   0.00000  Uiso   1.00
C251   C     0.49059   0.74057   0.69474   0.00000  Uiso   1.00
C252   C     0.43502   0.77653   0.73243   0.00000  Uiso   1.00
C253   C     0.44058   0.85825   0.73949   0.00000  Uiso   1.00
H254   H     0.65008   0.76755   0.60307   0.00000  Uiso   1.00
H255   H     0.76377   0.68999   0.65596   0.00000  Uiso   1.00
H256   H     0.60199   0.72457   0.49569   0.00000  Uiso   1.00
H257   H     0.60096   0.90042   0.64925   0.00000  Uiso   1.00
H258   H     0.86378   0.58455   0.72763   0.00000  Uiso   1.00
H259   H     0.52265   0.65749   0.38969   0.00000  Uiso   1.00
H260   H     0.52047   0.02828   0.71350   0.00000  Uiso   1.00
H261   H     0.44946   0.61776   0.70362   0.00000  Uiso   1.00
H262   H     0.55214   0.53198   0.76203   0.00000  Uiso   1.00
H263   H     0.39037   0.56656   0.60175   0.00000  Uiso   1.00
H264   H     0.38934   0.74241   0.75531   0.00000  Uiso   1.00
H265   H     0.69202   0.45630   0.81371   0.00000  Uiso   1.00
H266   H     0.35089   0.52924   0.47577   0.00000  Uiso   1.00
H267   H     0.34871   0.90003   0.79959   0.00000  Uiso   1.00
O268   O     0.84907   0.46668   0.80727   0.00000  Uiso   1.00
O269   O     0.40151   0.56239   0.36390   0.00000  Uiso   1.00
O270   O     0.39866   0.04886   0.78874   0.00000  Uiso   1.00
N271   N     0.80926   0.56614   0.73988   0.00000  Uiso   1.00
N272   N     0.49034   0.63433   0.42393   0.00000  Uiso   1.00
N273   N     0.48829   0.98100   0.72666   0.00000  Uiso   1.00
N274   N     0.71684   0.49714   0.78621   0.00000  Uiso   1.00
N275   N     0.39791   0.56532   0.47025   0.00000  Uiso   1.00
N276   N     0.39586   0.91199   0.77298   0.00000  Uiso   1.00
C277   C     0.76676   0.10412   0.37611   0.00000  Uiso   1.00
C278   C     0.82967   0.13807   0.41879   0.00000  Uiso   1.00
C279   C     0.84413   0.21810   0.42887   0.00000  Uiso   1.00
C280   C     0.90430   0.23703   0.46963   0.00000  Uiso   1.00
C281   C     0.99530   0.29873   0.53139   0.00000  Uiso   1.00
C282   C     0.81089   0.05018   0.33171   0.00000  Uiso   1.00
C283   C     0.80955   0.05630   0.26857   0.00000  Uiso   1.00
C284   C     0.85391   0.00124   0.23603   0.00000  Uiso   1.00
C285   C     0.91570   0.92645   0.16258   0.00000  Uiso   1.00
C286   C     0.71535   0.04962   0.41515   0.00000  Uiso   1.00
C287   C     0.63367   0.05527   0.42216   0.00000  Uiso   1.00
C288   C     0.59759   0.99972   0.45985   0.00000  Uiso   1.00
C289   C     0.51105   0.92407   0.51596   0.00000  Uiso   1.00
C290   C     0.84792   0.99543   0.43058   0.00000  Uiso   1.00
C291   C     0.87375   0.07903   0.44838   0.00000  Uiso   1.00
C292   C     0.93392   0.09784   0.48914   0.00000  Uiso   1.00
C293   C     0.94846   0.17789   0.49928   0.00000  Uiso   1.00
C294   C     0.85497   0.99114   0.36129   0.00000  Uiso   1.00
C295   C     0.89933   0.93605   0.32884   0.00000  Uiso   1.00
C296   C     0.89806   0.94209   0.26567   0.00000  Uiso   1.00
C297   C     0.75943   0.99059   0.44474   0.00000  Uiso   1.00
C298   C     0.72347   0.93502   0.48243   0.00000  Uiso   1.00
C299   C     0.64175   0.94058   0.48949   0.00000  Uiso   1.00
H300   H     0.73245   0.15008   0.35307   0.00000  Uiso   1.00
H301   H     0.81001   0.26377   0.40596   0.00000  Uiso   1.00
H302   H     0.77543   0.10199   0.24569   0.00000  Uiso   1.00
H303   H     0.59958   0.10096   0.39925   0.00000  Uiso   1.00
H304   H     0.91545   0.36378   0.47763   0.00000  Uiso   1.00
H305   H     0.84251   0.02265   0.13969   0.00000  Uiso   1.00
H306   H     0.47172   0.02047   0.46350   0.00000  Uiso   1.00
H307   H     0.88224   0.94946   0.45362   0.00000  Uiso   1.00
H308   H     0.96802   0.05214   0.51203   0.00000  Uiso   1.00
H309   H     0.93344   0.89037   0.35175   0.00000  Uiso   1.00
H310   H     0.75759   0.88934   0.50531   0.00000  Uiso   1.00
H311   H     0.04370   0.19202   0.56371   0.00000  Uiso   1.00
H312   H     0.97076   0.85089   0.22577   0.00000  Uiso   1.00
H313   H     0.59997   0.84871   0.54959   0.00000  Uiso   1.00
O314   O     0.03332   0.34907   0.55727   0.00000  Uiso   1.00
O315   O     0.93761   0.90151   0.11390   0.00000  Uiso   1.00
O316   O     0.45114   0.89866   0.53874   0.00000  Uiso   1.00
N317   N     0.93386   0.30926   0.48988   0.00000  Uiso   1.00
N318   N     0.86567   0.99034   0.17393   0.00000  Uiso   1.00
N319   N     0.51900   0.98829   0.47666   0.00000  Uiso   1.00
N320   N     0.00286   0.21684   0.53621   0.00000  Uiso   1.00
N321   N     0.93468   0.89791   0.22025   0.00000  Uiso   1.00
N322   N     0.58801   0.89586   0.52298   0.00000  Uiso   1.00
C323   C     0.23324   0.89588   0.87611   0.00000  Uiso   1.00
C324   C     0.17033   0.86193   0.91879   0.00000  Uiso   1.00
C325   C     0.15587   0.78190   0.92887   0.00000  Uiso   1.00
C326   C     0.09570   0.76297   0.96963   0.00000  Uiso   1.00
C327   C     0.00470   0.70127   0.03139   0.00000  Uiso   1.00
C328   C     0.18911   0.94982   0.83171   0.00000  Uiso   1.00
C329   C     0.19045   0.94370   0.76857   0.00000  Uiso   1.00
C330   C     0.14609   0.99876   0.73603   0.00000  Uiso   1.00
C331   C     0.08430   0.07355   0.66258   0.00000  Uiso   1.00
C332   C     0.28465   0.95038   0.91515   0.00000  Uiso   1.00
C333   C     0.36633   0.94473   0.92216   0.00000  Uiso   1.00
C334   C     0.40241   0.00028   0.95985   0.00000  Uiso   1.00
C335   C     0.48895   0.07593   0.01596   0.00000  Uiso   1.00
C336   C     0.15208   0.00457   0.93058   0.00000  Uiso   1.00
C337   C     0.12625   0.92097   0.94838   0.00000  Uiso   1.00
C338   C     0.06608   0.90216   0.98914   0.00000  Uiso   1.00
C339   C     0.05154   0.82211   0.99928   0.00000  Uiso   1.00
C340   C     0.14503   0.00886   0.86129   0.00000  Uiso   1.00
C341   C     0.10067   0.06395   0.82884   0.00000  Uiso   1.00
C342   C     0.10194   0.05791   0.76567   0.00000  Uiso   1.00
C343   C     0.24057   0.00941   0.94474   0.00000  Uiso   1.00
C344   C     0.27653   0.06498   0.98243   0.00000  Uiso   1.00
C345   C     0.35825   0.05942   0.98949   0.00000  Uiso   1.00
H346   H     0.26755   0.84992   0.85307   0.00000  Uiso   1.00
H347   H     0.18999   0.73623   0.90596   0.00000  Uiso   1.00
H348   H     0.22457   0.89801   0.74569   0.00000  Uiso   1.00
H349   H     0.40042   0.89904   0.89925   0.00000  Uiso   1.00
H350   H     0.08455   0.63622   0.97763   0.00000  Uiso   1.00
H351   H     0.15749   0.97735   0.63969   0.00000  Uiso   1.00
H352   H     0.52828   0.97953   0.96350   0.00000  Uiso   1.00
H353   H     0.11776   0.05054   0.95362   0.00000  Uiso   1.00
H354   H     0.03198   0.94786   0.01203   0.00000  Uiso   1.00
H355   H     0.06656   0.10963   0.85175   0.00000  Uiso   1.00
H356   H     0.24241   0.11066   0.00531   0.00000  Uiso   1.00
H357   H     0.95630   0.80798   0.06371   0.00000  Uiso   1.00
H358   H     0.02924   0.14911   0.72577   0.00000  Uiso   1.00
H359   H     0.40003   0.15129   0.04959   0.00000  Uiso   1.00
O360   O     0.96668   0.65093   0.05727   0.00000  Uiso   1.00
O361   O     0.06239   0.09849   0.61390   0.00000  Uiso   1.00
O362   O     0.54886   0.10134   0.03874   0.00000  Uiso   1.00
N363   N     0.06614   0.69074   0.98988   0.00000  Uiso   1.00
N364   N     0.13433   0.00966   0.67393   0.00000  Uiso   1.00
N365   N     0.48100   0.01171   0.97666   0.00000  Uiso   1.00
N366   N     0.99714   0.78316   0.03621   0.00000  Uiso   1.00
N367   N     0.06532   0.10209   0.72025   0.00000  Uiso   1.00
N368   N     0.41199   0.10414   0.02298   0.00000  Uiso   1.00
