data_job_02829
_audit_creation_date              2018-12-19
_audit_creation_method            'Materials Studio'
_symmetry_space_group_name_H-M    'P1'
_symmetry_Int_Tables_number       1
_symmetry_cell_setting            triclinic
loop_
_symmetry_equiv_pos_as_xyz
  x,y,z
_cell_length_a                    23.6179
_cell_length_b                    9.9118
_cell_length_c                    20.3041
_cell_angle_alpha                 90.0000
_cell_angle_beta                  139.1830
_cell_angle_gamma                 90.0000
loop_
_atom_site_label
_atom_site_type_symbol
_atom_site_fract_x
_atom_site_fract_y
_atom_site_fract_z
_atom_site_U_iso_or_equiv
_atom_site_adp_type
_atom_site_occupancy
C1     C     0.80142   0.77891   0.86566   0.00000  Uiso   1.00
C2     C     0.83748   0.92176   0.90252   0.00000  Uiso   1.00
C3     C     0.91243   0.95896   0.00159   0.00000  Uiso   1.00
C4     C     0.93441   0.09476   0.01986   0.00000  Uiso   1.00
C5     C     0.99816   0.30212   0.08898   0.00000  Uiso   1.00
C6     C     0.70918   0.78562   0.81113   0.00000  Uiso   1.00
C7     C     0.67625   0.70834   0.83335   0.00000  Uiso   1.00
C8     C     0.59023   0.72954   0.77468   0.00000  Uiso   1.00
C9     C     0.45478   0.72546   0.70187   0.00000  Uiso   1.00
C10    C     0.79303   0.74930   0.78485   0.00000  Uiso   1.00
C11    C     0.83057   0.64146   0.78495   0.00000  Uiso   1.00
C12    C     0.81512   0.63206   0.70414   0.00000  Uiso   1.00
C13    C     0.80985   0.57159   0.59052   0.00000  Uiso   1.00
C14    C     0.70720   0.95394   0.72195   0.00000  Uiso   1.00
C15    C     0.78630   0.01682   0.82446   0.00000  Uiso   1.00
C16    C     0.80818   0.15261   0.84259   0.00000  Uiso   1.00
C17    C     0.88314   0.19001   0.94167   0.00000  Uiso   1.00
C18    C     0.65800   0.88068   0.73308   0.00000  Uiso   1.00
C19    C     0.57201   0.90199   0.67436   0.00000  Uiso   1.00
C20    C     0.53895   0.82478   0.69648   0.00000  Uiso   1.00
C21    C     0.74185   0.84437   0.70679   0.00000  Uiso   1.00
C22    C     0.72633   0.83512   0.62596   0.00000  Uiso   1.00
C23    C     0.76385   0.72730   0.62594   0.00000  Uiso   1.00
H24    H     0.84126   0.70489   0.92643   0.00000  Uiso   1.00
H25    H     0.95201   0.88536   0.06198   0.00000  Uiso   1.00
H26    H     0.71587   0.63477   0.89376   0.00000  Uiso   1.00
H27    H     0.87017   0.56791   0.84537   0.00000  Uiso   1.00
H28    H     0.05221   0.12737   0.17783   0.00000  Uiso   1.00
H29    H     0.55429   0.59896   0.82311   0.00000  Uiso   1.00
H30    H     0.87966   0.45797   0.72108   0.00000  Uiso   1.00
H31    H     0.66735   0.02795   0.66118   0.00000  Uiso   1.00
H32    H     0.76856   0.22616   0.78217   0.00000  Uiso   1.00
H33    H     0.53242   0.97556   0.61396   0.00000  Uiso   1.00
H34    H     0.68672   0.90871   0.56557   0.00000  Uiso   1.00
H35    H     0.90331   0.40398   0.95074   0.00000  Uiso   1.00
H36    H     0.40539   0.87556   0.59601   0.00000  Uiso   1.00
H37    H     0.73076   0.73457   0.49398   0.00000  Uiso   1.00
O38    O     0.04746   0.39023   0.14867   0.00000  Uiso   1.00
O39    O     0.39421   0.69696   0.68328   0.00000  Uiso   1.00
O40    O     0.82109   0.51199   0.54941   0.00000  Uiso   1.00
N41    N     0.00329   0.16527   0.10778   0.00000  Uiso   1.00
N42    N     0.53776   0.67125   0.77615   0.00000  Uiso   1.00
N43    N     0.84194   0.53941   0.68074   0.00000  Uiso   1.00
N44    N     0.92317   0.31410   0.98558   0.00000  Uiso   1.00
N45    N     0.45764   0.82009   0.65395   0.00000  Uiso   1.00
N46    N     0.76182   0.68825   0.55854   0.00000  Uiso   1.00
C47    C     0.30142   0.27891   0.86566   0.00000  Uiso   1.00
C48    C     0.33748   0.42176   0.90252   0.00000  Uiso   1.00
C49    C     0.41243   0.45896   0.00159   0.00000  Uiso   1.00
C50    C     0.43441   0.59476   0.01986   0.00000  Uiso   1.00
C51    C     0.49816   0.80212   0.08898   0.00000  Uiso   1.00
C52    C     0.20918   0.28562   0.81113   0.00000  Uiso   1.00
C53    C     0.17625   0.20834   0.83335   0.00000  Uiso   1.00
C54    C     0.09023   0.22954   0.77468   0.00000  Uiso   1.00
C55    C     0.95478   0.22546   0.70187   0.00000  Uiso   1.00
C56    C     0.29303   0.24930   0.78485   0.00000  Uiso   1.00
C57    C     0.33057   0.14146   0.78495   0.00000  Uiso   1.00
C58    C     0.31512   0.13206   0.70414   0.00000  Uiso   1.00
C59    C     0.30985   0.07159   0.59052   0.00000  Uiso   1.00
C60    C     0.20720   0.45394   0.72195   0.00000  Uiso   1.00
C61    C     0.28630   0.51682   0.82446   0.00000  Uiso   1.00
C62    C     0.30818   0.65261   0.84259   0.00000  Uiso   1.00
C63    C     0.38314   0.69001   0.94167   0.00000  Uiso   1.00
C64    C     0.15800   0.38068   0.73308   0.00000  Uiso   1.00
C65    C     0.07201   0.40199   0.67436   0.00000  Uiso   1.00
C66    C     0.03895   0.32478   0.69648   0.00000  Uiso   1.00
C67    C     0.24185   0.34437   0.70679   0.00000  Uiso   1.00
C68    C     0.22633   0.33512   0.62596   0.00000  Uiso   1.00
C69    C     0.26385   0.22730   0.62594   0.00000  Uiso   1.00
H70    H     0.34126   0.20489   0.92643   0.00000  Uiso   1.00
H71    H     0.45201   0.38536   0.06198   0.00000  Uiso   1.00
H72    H     0.21587   0.13477   0.89376   0.00000  Uiso   1.00
H73    H     0.37017   0.06791   0.84537   0.00000  Uiso   1.00
H74    H     0.55221   0.62737   0.17783   0.00000  Uiso   1.00
H75    H     0.05429   0.09896   0.82311   0.00000  Uiso   1.00
H76    H     0.37966   0.95797   0.72108   0.00000  Uiso   1.00
H77    H     0.16735   0.52795   0.66118   0.00000  Uiso   1.00
H78    H     0.26856   0.72616   0.78217   0.00000  Uiso   1.00
H79    H     0.03242   0.47556   0.61396   0.00000  Uiso   1.00
H80    H     0.18672   0.40871   0.56557   0.00000  Uiso   1.00
H81    H     0.40331   0.90398   0.95074   0.00000  Uiso   1.00
H82    H     0.90539   0.37556   0.59601   0.00000  Uiso   1.00
H83    H     0.23076   0.23457   0.49398   0.00000  Uiso   1.00
O84    O     0.54746   0.89023   0.14867   0.00000  Uiso   1.00
O85    O     0.89421   0.19696   0.68328   0.00000  Uiso   1.00
O86    O     0.32109   0.01199   0.54941   0.00000  Uiso   1.00
N87    N     0.50329   0.66527   0.10778   0.00000  Uiso   1.00
N88    N     0.03776   0.17125   0.77615   0.00000  Uiso   1.00
N89    N     0.34194   0.03941   0.68074   0.00000  Uiso   1.00
N90    N     0.42317   0.81410   0.98558   0.00000  Uiso   1.00
N91    N     0.95764   0.32009   0.65395   0.00000  Uiso   1.00
N92    N     0.26182   0.18825   0.55854   0.00000  Uiso   1.00
C93    C     0.19858   0.77891   0.13434   0.00000  Uiso   1.00
C94    C     0.16252   0.92176   0.09748   0.00000  Uiso   1.00
C95    C     0.08757   0.95896   0.99841   0.00000  Uiso   1.00
C96    C     0.06559   0.09476   0.98014   0.00000  Uiso   1.00
C97    C     0.00184   0.30212   0.91102   0.00000  Uiso   1.00
C98    C     0.29082   0.78562   0.18887   0.00000  Uiso   1.00
C99    C     0.32375   0.70834   0.16665   0.00000  Uiso   1.00
C100   C     0.40977   0.72954   0.22532   0.00000  Uiso   1.00
C101   C     0.54522   0.72546   0.29813   0.00000  Uiso   1.00
C102   C     0.20697   0.74930   0.21515   0.00000  Uiso   1.00
C103   C     0.16943   0.64146   0.21505   0.00000  Uiso   1.00
C104   C     0.18488   0.63206   0.29586   0.00000  Uiso   1.00
C105   C     0.19015   0.57159   0.40948   0.00000  Uiso   1.00
C106   C     0.29280   0.95394   0.27805   0.00000  Uiso   1.00
C107   C     0.21370   0.01682   0.17554   0.00000  Uiso   1.00
C108   C     0.19182   0.15261   0.15741   0.00000  Uiso   1.00
C109   C     0.11686   0.19001   0.05833   0.00000  Uiso   1.00
C110   C     0.34200   0.88068   0.26692   0.00000  Uiso   1.00
C111   C     0.42799   0.90199   0.32564   0.00000  Uiso   1.00
C112   C     0.46105   0.82478   0.30352   0.00000  Uiso   1.00
C113   C     0.25815   0.84437   0.29321   0.00000  Uiso   1.00
C114   C     0.27367   0.83512   0.37404   0.00000  Uiso   1.00
C115   C     0.23615   0.72730   0.37406   0.00000  Uiso   1.00
H116   H     0.15874   0.70489   0.07357   0.00000  Uiso   1.00
H117   H     0.04799   0.88536   0.93802   0.00000  Uiso   1.00
H118   H     0.28413   0.63477   0.10624   0.00000  Uiso   1.00
H119   H     0.12983   0.56791   0.15463   0.00000  Uiso   1.00
H120   H     0.94779   0.12737   0.82217   0.00000  Uiso   1.00
H121   H     0.44571   0.59896   0.17689   0.00000  Uiso   1.00
H122   H     0.12034   0.45797   0.27892   0.00000  Uiso   1.00
H123   H     0.33265   0.02795   0.33882   0.00000  Uiso   1.00
H124   H     0.23144   0.22616   0.21783   0.00000  Uiso   1.00
H125   H     0.46758   0.97556   0.38604   0.00000  Uiso   1.00
H126   H     0.31328   0.90871   0.43443   0.00000  Uiso   1.00
H127   H     0.09669   0.40398   0.04926   0.00000  Uiso   1.00
H128   H     0.59461   0.87556   0.40399   0.00000  Uiso   1.00
H129   H     0.26924   0.73457   0.50602   0.00000  Uiso   1.00
O130   O     0.95254   0.39023   0.85133   0.00000  Uiso   1.00
O131   O     0.60579   0.69696   0.31672   0.00000  Uiso   1.00
O132   O     0.17891   0.51199   0.45059   0.00000  Uiso   1.00
N133   N     0.99671   0.16527   0.89222   0.00000  Uiso   1.00
N134   N     0.46224   0.67125   0.22385   0.00000  Uiso   1.00
N135   N     0.15806   0.53941   0.31926   0.00000  Uiso   1.00
N136   N     0.07683   0.31410   0.01442   0.00000  Uiso   1.00
N137   N     0.54236   0.82009   0.34605   0.00000  Uiso   1.00
N138   N     0.23818   0.68825   0.44146   0.00000  Uiso   1.00
C139   C     0.69858   0.27891   0.13434   0.00000  Uiso   1.00
C140   C     0.66252   0.42176   0.09748   0.00000  Uiso   1.00
C141   C     0.58757   0.45896   0.99841   0.00000  Uiso   1.00
C142   C     0.56559   0.59476   0.98014   0.00000  Uiso   1.00
C143   C     0.50184   0.80212   0.91102   0.00000  Uiso   1.00
C144   C     0.79082   0.28562   0.18887   0.00000  Uiso   1.00
C145   C     0.82375   0.20834   0.16665   0.00000  Uiso   1.00
C146   C     0.90977   0.22954   0.22532   0.00000  Uiso   1.00
C147   C     0.04522   0.22546   0.29813   0.00000  Uiso   1.00
C148   C     0.70697   0.24930   0.21515   0.00000  Uiso   1.00
C149   C     0.66943   0.14146   0.21505   0.00000  Uiso   1.00
C150   C     0.68488   0.13206   0.29586   0.00000  Uiso   1.00
C151   C     0.69015   0.07159   0.40948   0.00000  Uiso   1.00
C152   C     0.79280   0.45394   0.27805   0.00000  Uiso   1.00
C153   C     0.71370   0.51682   0.17554   0.00000  Uiso   1.00
C154   C     0.69182   0.65261   0.15741   0.00000  Uiso   1.00
C155   C     0.61686   0.69001   0.05833   0.00000  Uiso   1.00
C156   C     0.84200   0.38068   0.26692   0.00000  Uiso   1.00
C157   C     0.92799   0.40199   0.32564   0.00000  Uiso   1.00
C158   C     0.96105   0.32478   0.30352   0.00000  Uiso   1.00
C159   C     0.75815   0.34437   0.29321   0.00000  Uiso   1.00
C160   C     0.77367   0.33512   0.37404   0.00000  Uiso   1.00
C161   C     0.73615   0.22730   0.37406   0.00000  Uiso   1.00
H162   H     0.65874   0.20489   0.07357   0.00000  Uiso   1.00
H163   H     0.54799   0.38536   0.93802   0.00000  Uiso   1.00
H164   H     0.78413   0.13477   0.10624   0.00000  Uiso   1.00
H165   H     0.62983   0.06791   0.15463   0.00000  Uiso   1.00
H166   H     0.44779   0.62737   0.82217   0.00000  Uiso   1.00
H167   H     0.94571   0.09896   0.17689   0.00000  Uiso   1.00
H168   H     0.62034   0.95797   0.27892   0.00000  Uiso   1.00
H169   H     0.83265   0.52795   0.33882   0.00000  Uiso   1.00
H170   H     0.73144   0.72616   0.21783   0.00000  Uiso   1.00
H171   H     0.96758   0.47556   0.38604   0.00000  Uiso   1.00
H172   H     0.81328   0.40871   0.43443   0.00000  Uiso   1.00
H173   H     0.59669   0.90398   0.04926   0.00000  Uiso   1.00
H174   H     0.09461   0.37556   0.40399   0.00000  Uiso   1.00
H175   H     0.76924   0.23457   0.50602   0.00000  Uiso   1.00
O176   O     0.45254   0.89023   0.85133   0.00000  Uiso   1.00
O177   O     0.10579   0.19696   0.31672   0.00000  Uiso   1.00
O178   O     0.67891   0.01199   0.45059   0.00000  Uiso   1.00
N179   N     0.49671   0.66527   0.89222   0.00000  Uiso   1.00
N180   N     0.96224   0.17125   0.22385   0.00000  Uiso   1.00
N181   N     0.65806   0.03941   0.31926   0.00000  Uiso   1.00
N182   N     0.57683   0.81410   0.01442   0.00000  Uiso   1.00
N183   N     0.04236   0.32009   0.34605   0.00000  Uiso   1.00
N184   N     0.73818   0.18825   0.44146   0.00000  Uiso   1.00
