data_job_03816
_audit_creation_date              2018-12-19
_audit_creation_method            'Materials Studio'
_symmetry_space_group_name_H-M    'P1'
_symmetry_Int_Tables_number       1
_symmetry_cell_setting            triclinic
loop_
_symmetry_equiv_pos_as_xyz
  x,y,z
_cell_length_a                    28.4381
_cell_length_b                    12.4883
_cell_length_c                    22.8785
_cell_angle_alpha                 90.0000
_cell_angle_beta                  141.3973
_cell_angle_gamma                 90.0000
loop_
_atom_site_label
_atom_site_type_symbol
_atom_site_fract_x
_atom_site_fract_y
_atom_site_fract_z
_atom_site_U_iso_or_equiv
_atom_site_adp_type
_atom_site_occupancy
C1     C     0.67115   0.14756   0.71411   0.00000  Uiso   1.00
C2     C     0.63429   0.14243   0.61816   0.00000  Uiso   1.00
C3     C     0.55939   0.16531   0.53317   0.00000  Uiso   1.00
C4     C     0.53659   0.15587   0.45320   0.00000  Uiso   1.00
C5     C     0.47170   0.15260   0.30346   0.00000  Uiso   1.00
C6     C     0.70489   0.03700   0.75767   0.00000  Uiso   1.00
C7     C     0.68936   0.97125   0.78998   0.00000  Uiso   1.00
C8     C     0.72599   0.87307   0.82745   0.00000  Uiso   1.00
C9     C     0.77074   0.70616   0.89435   0.00000  Uiso   1.00
C10    C     0.73778   0.22387   0.77275   0.00000  Uiso   1.00
C11    C     0.74992   0.31522   0.81778   0.00000  Uiso   1.00
C12    C     0.81426   0.37436   0.86798   0.00000  Uiso   1.00
C13    C     0.91008   0.49758   0.95830   0.00000  Uiso   1.00
C14    C     0.76383   0.09011   0.72322   0.00000  Uiso   1.00
C15    C     0.68464   0.11122   0.62311   0.00000  Uiso   1.00
C16    C     0.66194   0.10175   0.54325   0.00000  Uiso   1.00
C17    C     0.58703   0.12462   0.45816   0.00000  Uiso   1.00
C18    C     0.75523   0.00580   0.76261   0.00000  Uiso   1.00
C19    C     0.79191   0.90769   0.80006   0.00000  Uiso   1.00
C20    C     0.77643   0.84181   0.83241   0.00000  Uiso   1.00
C21    C     0.78812   0.19267   0.77770   0.00000  Uiso   1.00
C22    C     0.85246   0.25166   0.82785   0.00000  Uiso   1.00
C23    C     0.86469   0.34309   0.87293   0.00000  Uiso   1.00
H24    H     0.63195   0.17184   0.71027   0.00000  Uiso   1.00
H25    H     0.52045   0.18945   0.52937   0.00000  Uiso   1.00
H26    H     0.65040   0.99542   0.78615   0.00000  Uiso   1.00
H27    H     0.71094   0.33934   0.81394   0.00000  Uiso   1.00
H28    H     0.41902   0.19516   0.33100   0.00000  Uiso   1.00
H29    H     0.69305   0.78607   0.87245   0.00000  Uiso   1.00
H30    H     0.82072   0.51129   0.93105   0.00000  Uiso   1.00
H31    H     0.80303   0.06582   0.72708   0.00000  Uiso   1.00
H32    H     0.70092   0.07760   0.54710   0.00000  Uiso   1.00
H33    H     0.83086   0.88358   0.80388   0.00000  Uiso   1.00
H34    H     0.89141   0.22749   0.83166   0.00000  Uiso   1.00
H35    H     0.56549   0.10438   0.34539   0.00000  Uiso   1.00
H36    H     0.83952   0.69529   0.88685   0.00000  Uiso   1.00
H37    H     0.96720   0.42051   0.94544   0.00000  Uiso   1.00
O38    O     0.42199   0.15940   0.21949   0.00000  Uiso   1.00
O39    O     0.78151   0.62271   0.92988   0.00000  Uiso   1.00
O40    O     0.94901   0.57417   0.00675   0.00000  Uiso   1.00
N41    N     0.46751   0.17220   0.35909   0.00000  Uiso   1.00
N42    N     0.72370   0.78972   0.86530   0.00000  Uiso   1.00
N43    N     0.84308   0.46772   0.92010   0.00000  Uiso   1.00
N44    N     0.54633   0.12335   0.36683   0.00000  Uiso   1.00
N45    N     0.80252   0.74087   0.87304   0.00000  Uiso   1.00
N46    N     0.92189   0.41887   0.92785   0.00000  Uiso   1.00
C47    C     0.32885   0.14756   0.78589   0.00000  Uiso   1.00
C48    C     0.36571   0.14243   0.88184   0.00000  Uiso   1.00
C49    C     0.44061   0.16531   0.96683   0.00000  Uiso   1.00
C50    C     0.46341   0.15587   0.04680   0.00000  Uiso   1.00
C51    C     0.52830   0.15260   0.19654   0.00000  Uiso   1.00
C52    C     0.29511   0.03700   0.74233   0.00000  Uiso   1.00
C53    C     0.31064   0.97125   0.71002   0.00000  Uiso   1.00
C54    C     0.27401   0.87307   0.67255   0.00000  Uiso   1.00
C55    C     0.22926   0.70616   0.60565   0.00000  Uiso   1.00
C56    C     0.26222   0.22387   0.72725   0.00000  Uiso   1.00
C57    C     0.25008   0.31522   0.68222   0.00000  Uiso   1.00
C58    C     0.18574   0.37436   0.63202   0.00000  Uiso   1.00
C59    C     0.08992   0.49758   0.54170   0.00000  Uiso   1.00
C60    C     0.23617   0.09011   0.77678   0.00000  Uiso   1.00
C61    C     0.31536   0.11122   0.87689   0.00000  Uiso   1.00
C62    C     0.33806   0.10175   0.95675   0.00000  Uiso   1.00
C63    C     0.41297   0.12462   0.04184   0.00000  Uiso   1.00
C64    C     0.24477   0.00580   0.73739   0.00000  Uiso   1.00
C65    C     0.20809   0.90769   0.69994   0.00000  Uiso   1.00
C66    C     0.22357   0.84181   0.66759   0.00000  Uiso   1.00
C67    C     0.21188   0.19267   0.72230   0.00000  Uiso   1.00
C68    C     0.14754   0.25166   0.67215   0.00000  Uiso   1.00
C69    C     0.13531   0.34309   0.62707   0.00000  Uiso   1.00
H70    H     0.36805   0.17184   0.78973   0.00000  Uiso   1.00
H71    H     0.47955   0.18945   0.97063   0.00000  Uiso   1.00
H72    H     0.34960   0.99542   0.71385   0.00000  Uiso   1.00
H73    H     0.28906   0.33934   0.68606   0.00000  Uiso   1.00
H74    H     0.58098   0.19516   0.16900   0.00000  Uiso   1.00
H75    H     0.30695   0.78607   0.62755   0.00000  Uiso   1.00
H76    H     0.17928   0.51129   0.56895   0.00000  Uiso   1.00
H77    H     0.19697   0.06582   0.77292   0.00000  Uiso   1.00
H78    H     0.29908   0.07760   0.95290   0.00000  Uiso   1.00
H79    H     0.16914   0.88358   0.69612   0.00000  Uiso   1.00
H80    H     0.10859   0.22749   0.66834   0.00000  Uiso   1.00
H81    H     0.43451   0.10438   0.15461   0.00000  Uiso   1.00
H82    H     0.16048   0.69529   0.61315   0.00000  Uiso   1.00
H83    H     0.03280   0.42051   0.55456   0.00000  Uiso   1.00
O84    O     0.57801   0.15940   0.28051   0.00000  Uiso   1.00
O85    O     0.21849   0.62271   0.57012   0.00000  Uiso   1.00
O86    O     0.05099   0.57417   0.49325   0.00000  Uiso   1.00
N87    N     0.53249   0.17220   0.14091   0.00000  Uiso   1.00
N88    N     0.27630   0.78972   0.63470   0.00000  Uiso   1.00
N89    N     0.15692   0.46772   0.57990   0.00000  Uiso   1.00
N90    N     0.45367   0.12335   0.13317   0.00000  Uiso   1.00
N91    N     0.19748   0.74087   0.62696   0.00000  Uiso   1.00
N92    N     0.07811   0.41887   0.57215   0.00000  Uiso   1.00
C93    C     0.32885   0.85244   0.28589   0.00000  Uiso   1.00
C94    C     0.36571   0.85757   0.38184   0.00000  Uiso   1.00
C95    C     0.44061   0.83469   0.46683   0.00000  Uiso   1.00
C96    C     0.46341   0.84413   0.54680   0.00000  Uiso   1.00
C97    C     0.52830   0.84740   0.69654   0.00000  Uiso   1.00
C98    C     0.29511   0.96300   0.24233   0.00000  Uiso   1.00
C99    C     0.31064   0.02875   0.21002   0.00000  Uiso   1.00
C100   C     0.27401   0.12693   0.17255   0.00000  Uiso   1.00
C101   C     0.22926   0.29384   0.10565   0.00000  Uiso   1.00
C102   C     0.26222   0.77613   0.22725   0.00000  Uiso   1.00
C103   C     0.25008   0.68478   0.18222   0.00000  Uiso   1.00
C104   C     0.18574   0.62564   0.13202   0.00000  Uiso   1.00
C105   C     0.08992   0.50242   0.04170   0.00000  Uiso   1.00
C106   C     0.23617   0.90989   0.27678   0.00000  Uiso   1.00
C107   C     0.31536   0.88878   0.37689   0.00000  Uiso   1.00
C108   C     0.33806   0.89825   0.45675   0.00000  Uiso   1.00
C109   C     0.41297   0.87538   0.54184   0.00000  Uiso   1.00
C110   C     0.24477   0.99420   0.23739   0.00000  Uiso   1.00
C111   C     0.20809   0.09231   0.19994   0.00000  Uiso   1.00
C112   C     0.22357   0.15819   0.16759   0.00000  Uiso   1.00
C113   C     0.21188   0.80733   0.22230   0.00000  Uiso   1.00
C114   C     0.14754   0.74834   0.17215   0.00000  Uiso   1.00
C115   C     0.13531   0.65691   0.12707   0.00000  Uiso   1.00
H116   H     0.36805   0.82816   0.28973   0.00000  Uiso   1.00
H117   H     0.47955   0.81055   0.47063   0.00000  Uiso   1.00
H118   H     0.34960   0.00458   0.21385   0.00000  Uiso   1.00
H119   H     0.28906   0.66066   0.18606   0.00000  Uiso   1.00
H120   H     0.58098   0.80484   0.66900   0.00000  Uiso   1.00
H121   H     0.30695   0.21393   0.12755   0.00000  Uiso   1.00
H122   H     0.17928   0.48871   0.06895   0.00000  Uiso   1.00
H123   H     0.19697   0.93418   0.27292   0.00000  Uiso   1.00
H124   H     0.29908   0.92240   0.45290   0.00000  Uiso   1.00
H125   H     0.16914   0.11642   0.19612   0.00000  Uiso   1.00
H126   H     0.10859   0.77251   0.16834   0.00000  Uiso   1.00
H127   H     0.43451   0.89562   0.65461   0.00000  Uiso   1.00
H128   H     0.16048   0.30471   0.11315   0.00000  Uiso   1.00
H129   H     0.03280   0.57949   0.05456   0.00000  Uiso   1.00
O130   O     0.57801   0.84060   0.78051   0.00000  Uiso   1.00
O131   O     0.21849   0.37729   0.07012   0.00000  Uiso   1.00
O132   O     0.05099   0.42583   0.99325   0.00000  Uiso   1.00
N133   N     0.53249   0.82780   0.64091   0.00000  Uiso   1.00
N134   N     0.27630   0.21028   0.13470   0.00000  Uiso   1.00
N135   N     0.15692   0.53228   0.07990   0.00000  Uiso   1.00
N136   N     0.45367   0.87665   0.63317   0.00000  Uiso   1.00
N137   N     0.19748   0.25913   0.12696   0.00000  Uiso   1.00
N138   N     0.07811   0.58113   0.07215   0.00000  Uiso   1.00
C139   C     0.67115   0.85244   0.21411   0.00000  Uiso   1.00
C140   C     0.63429   0.85757   0.11816   0.00000  Uiso   1.00
C141   C     0.55939   0.83469   0.03317   0.00000  Uiso   1.00
C142   C     0.53659   0.84413   0.95320   0.00000  Uiso   1.00
C143   C     0.47170   0.84740   0.80346   0.00000  Uiso   1.00
C144   C     0.70489   0.96300   0.25767   0.00000  Uiso   1.00
C145   C     0.68936   0.02875   0.28998   0.00000  Uiso   1.00
C146   C     0.72599   0.12693   0.32745   0.00000  Uiso   1.00
C147   C     0.77074   0.29384   0.39435   0.00000  Uiso   1.00
C148   C     0.73778   0.77613   0.27275   0.00000  Uiso   1.00
C149   C     0.74992   0.68478   0.31778   0.00000  Uiso   1.00
C150   C     0.81426   0.62564   0.36798   0.00000  Uiso   1.00
C151   C     0.91008   0.50242   0.45830   0.00000  Uiso   1.00
C152   C     0.76383   0.90989   0.22322   0.00000  Uiso   1.00
C153   C     0.68464   0.88878   0.12311   0.00000  Uiso   1.00
C154   C     0.66194   0.89825   0.04325   0.00000  Uiso   1.00
C155   C     0.58703   0.87538   0.95816   0.00000  Uiso   1.00
C156   C     0.75523   0.99420   0.26261   0.00000  Uiso   1.00
C157   C     0.79191   0.09231   0.30006   0.00000  Uiso   1.00
C158   C     0.77643   0.15819   0.33241   0.00000  Uiso   1.00
C159   C     0.78812   0.80733   0.27770   0.00000  Uiso   1.00
C160   C     0.85246   0.74834   0.32785   0.00000  Uiso   1.00
C161   C     0.86469   0.65691   0.37293   0.00000  Uiso   1.00
H162   H     0.63195   0.82816   0.21027   0.00000  Uiso   1.00
H163   H     0.52045   0.81055   0.02937   0.00000  Uiso   1.00
H164   H     0.65040   0.00458   0.28615   0.00000  Uiso   1.00
H165   H     0.71094   0.66066   0.31394   0.00000  Uiso   1.00
H166   H     0.41902   0.80484   0.83100   0.00000  Uiso   1.00
H167   H     0.69305   0.21393   0.37245   0.00000  Uiso   1.00
H168   H     0.82072   0.48871   0.43105   0.00000  Uiso   1.00
H169   H     0.80303   0.93418   0.22708   0.00000  Uiso   1.00
H170   H     0.70092   0.92240   0.04710   0.00000  Uiso   1.00
H171   H     0.83086   0.11642   0.30388   0.00000  Uiso   1.00
H172   H     0.89141   0.77251   0.33166   0.00000  Uiso   1.00
H173   H     0.56549   0.89562   0.84539   0.00000  Uiso   1.00
H174   H     0.83952   0.30471   0.38685   0.00000  Uiso   1.00
H175   H     0.96720   0.57949   0.44544   0.00000  Uiso   1.00
O176   O     0.42199   0.84060   0.71949   0.00000  Uiso   1.00
O177   O     0.78151   0.37729   0.42988   0.00000  Uiso   1.00
O178   O     0.94901   0.42583   0.50675   0.00000  Uiso   1.00
N179   N     0.46751   0.82780   0.85909   0.00000  Uiso   1.00
N180   N     0.72370   0.21028   0.36530   0.00000  Uiso   1.00
N181   N     0.84308   0.53228   0.42010   0.00000  Uiso   1.00
N182   N     0.54633   0.87665   0.86683   0.00000  Uiso   1.00
N183   N     0.80252   0.25913   0.37304   0.00000  Uiso   1.00
N184   N     0.92189   0.58113   0.42785   0.00000  Uiso   1.00
