data_job_06189
_audit_creation_date              2018-12-19
_audit_creation_method            'Materials Studio'
_symmetry_space_group_name_H-M    'P1'
_symmetry_Int_Tables_number       1
_symmetry_cell_setting            triclinic
loop_
_symmetry_equiv_pos_as_xyz
  x,y,z
_cell_length_a                    12.4830
_cell_length_b                    20.2415
_cell_length_c                    20.6723
_cell_angle_alpha                 115.9500
_cell_angle_beta                  77.2134
_cell_angle_gamma                 80.8623
loop_
_atom_site_label
_atom_site_type_symbol
_atom_site_fract_x
_atom_site_fract_y
_atom_site_fract_z
_atom_site_U_iso_or_equiv
_atom_site_adp_type
_atom_site_occupancy
C1     C     0.42358   0.55339   0.79110   0.00000  Uiso   1.00
C2     C     0.50239   0.54083   0.83405   0.00000  Uiso   1.00
C3     C     0.59056   0.57370   0.84618   0.00000  Uiso   1.00
C4     C     0.65281   0.55497   0.88682   0.00000  Uiso   1.00
C5     C     0.77903   0.54301   0.94930   0.00000  Uiso   1.00
C6     C     0.43524   0.47379   0.72781   0.00000  Uiso   1.00
C7     C     0.46695   0.45030   0.65061   0.00000  Uiso   1.00
C8     C     0.47266   0.37514   0.60182   0.00000  Uiso   1.00
C9     C     0.49456   0.25912   0.49936   0.00000  Uiso   1.00
C10    C     0.30143   0.58269   0.84612   0.00000  Uiso   1.00
C11    C     0.22061   0.65077   0.86839   0.00000  Uiso   1.00
C12    C     0.11365   0.66729   0.91920   0.00000  Uiso   1.00
C13    C     0.92778   0.72036   0.00043   0.00000  Uiso   1.00
C14    C     0.37733   0.46168   0.84172   0.00000  Uiso   1.00
C15    C     0.47726   0.49101   0.86154   0.00000  Uiso   1.00
C16    C     0.53938   0.47223   0.90218   0.00000  Uiso   1.00
C17    C     0.62764   0.50507   0.91437   0.00000  Uiso   1.00
C18    C     0.41012   0.42397   0.75530   0.00000  Uiso   1.00
C19    C     0.41577   0.34883   0.70661   0.00000  Uiso   1.00
C20    C     0.44749   0.32523   0.62936   0.00000  Uiso   1.00
C21    C     0.27630   0.53288   0.87362   0.00000  Uiso   1.00
C22    C     0.16944   0.54930   0.92440   0.00000  Uiso   1.00
C23    C     0.08848   0.61738   0.94674   0.00000  Uiso   1.00
H24    H     0.44314   0.59217   0.76969   0.00000  Uiso   1.00
H25    H     0.60999   0.61224   0.82488   0.00000  Uiso   1.00
H26    H     0.48638   0.48886   0.62935   0.00000  Uiso   1.00
H27    H     0.24009   0.68930   0.84710   0.00000  Uiso   1.00
H28    H     0.78391   0.61250   0.89818   0.00000  Uiso   1.00
H29    H     0.52324   0.35237   0.48589   0.00000  Uiso   1.00
H30    H     0.00388   0.77502   0.94505   0.00000  Uiso   1.00
H31    H     0.35776   0.42289   0.86312   0.00000  Uiso   1.00
H32    H     0.51992   0.43368   0.92345   0.00000  Uiso   1.00
H33    H     0.39632   0.31030   0.72791   0.00000  Uiso   1.00
H34    H     0.15003   0.51073   0.94566   0.00000  Uiso   1.00
H35    H     0.71081   0.46757   0.97818   0.00000  Uiso   1.00
H36    H     0.45014   0.20744   0.56588   0.00000  Uiso   1.00
H37    H     0.93078   0.63009   0.02505   0.00000  Uiso   1.00
O38    O     0.85560   0.55017   0.97616   0.00000  Uiso   1.00
O39    O     0.51359   0.20889   0.43524   0.00000  Uiso   1.00
O40    O     0.83221   0.76340   0.03766   0.00000  Uiso   1.00
N41    N     0.74444   0.57693   0.90874   0.00000  Uiso   1.00
N42    N     0.50074   0.33371   0.52327   0.00000  Uiso   1.00
N43    N     0.01518   0.72885   0.95253   0.00000  Uiso   1.00
N44    N     0.70510   0.49894   0.95179   0.00000  Uiso   1.00
N45    N     0.46141   0.25573   0.56631   0.00000  Uiso   1.00
N46    N     0.97584   0.65086   0.99558   0.00000  Uiso   1.00
C47    C     0.21343   0.20794   0.76141   0.00000  Uiso   1.00
C48    C     0.33532   0.16670   0.70528   0.00000  Uiso   1.00
C49    C     0.43417   0.15607   0.72423   0.00000  Uiso   1.00
C50    C     0.53746   0.11686   0.66458   0.00000  Uiso   1.00
C51    C     0.72609   0.05705   0.58897   0.00000  Uiso   1.00
C52    C     0.16544   0.27170   0.74598   0.00000  Uiso   1.00
C53    C     0.12144   0.34933   0.79914   0.00000  Uiso   1.00
C54    C     0.08172   0.39850   0.77375   0.00000  Uiso   1.00
C55    C     0.00653   0.50169   0.76133   0.00000  Uiso   1.00
C56    C     0.14479   0.15068   0.73728   0.00000  Uiso   1.00
C57    C     0.08341   0.12657   0.78314   0.00000  Uiso   1.00
C58    C     0.02628   0.07386   0.75043   0.00000  Uiso   1.00
C59    C     0.91903   0.98915   0.72452   0.00000  Uiso   1.00
C60    C     0.22108   0.15723   0.62178   0.00000  Uiso   1.00
C61    C     0.33947   0.13916   0.62944   0.00000  Uiso   1.00
C62    C     0.44264   0.09996   0.56975   0.00000  Uiso   1.00
C63    C     0.54163   0.08926   0.58860   0.00000  Uiso   1.00
C64    C     0.16959   0.24415   0.67014   0.00000  Uiso   1.00
C65    C     0.12991   0.29322   0.64467   0.00000  Uiso   1.00
C66    C     0.08588   0.37091   0.69778   0.00000  Uiso   1.00
C67    C     0.14895   0.12313   0.66144   0.00000  Uiso   1.00
C68    C     0.09189   0.07046   0.62866   0.00000  Uiso   1.00
C69    C     0.03044   0.04627   0.67446   0.00000  Uiso   1.00
H70    H     0.21019   0.22939   0.82045   0.00000  Uiso   1.00
H71    H     0.43092   0.17740   0.78293   0.00000  Uiso   1.00
H72    H     0.11823   0.37063   0.85783   0.00000  Uiso   1.00
H73    H     0.08022   0.14790   0.84183   0.00000  Uiso   1.00
H74    H     0.67747   0.10763   0.70788   0.00000  Uiso   1.00
H75    H     0.01812   0.51507   0.86582   0.00000  Uiso   1.00
H76    H     0.93794   0.04540   0.83208   0.00000  Uiso   1.00
H77    H     0.22432   0.13578   0.56274   0.00000  Uiso   1.00
H78    H     0.44583   0.07865   0.51107   0.00000  Uiso   1.00
H79    H     0.13314   0.27188   0.58597   0.00000  Uiso   1.00
H80    H     0.09512   0.04915   0.56997   0.00000  Uiso   1.00
H81    H     0.68957   0.02748   0.48723   0.00000  Uiso   1.00
H82    H     0.03021   0.43492   0.64518   0.00000  Uiso   1.00
H83    H     0.95004   0.96525   0.61143   0.00000  Uiso   1.00
O84    O     0.82899   0.03168   0.56821   0.00000  Uiso   1.00
O85    O     0.96391   0.56622   0.77544   0.00000  Uiso   1.00
O86    O     0.85874   0.95002   0.73117   0.00000  Uiso   1.00
N87    N     0.64992   0.09659   0.66304   0.00000  Uiso   1.00
N88    N     0.03348   0.47753   0.81070   0.00000  Uiso   1.00
N89    N     0.95850   0.03844   0.77917   0.00000  Uiso   1.00
N90    N     0.65643   0.05347   0.54431   0.00000  Uiso   1.00
N91    N     0.03999   0.43440   0.69198   0.00000  Uiso   1.00
N92    N     0.96501   0.99531   0.66044   0.00000  Uiso   1.00
C93    C     0.97165   0.23697   0.44737   0.00000  Uiso   1.00
C94    C     0.03940   0.29541   0.46088   0.00000  Uiso   1.00
C95    C     0.15743   0.27845   0.43020   0.00000  Uiso   1.00
C96    C     0.20302   0.34003   0.44947   0.00000  Uiso   1.00
C97    C     0.31888   0.41923   0.46315   0.00000  Uiso   1.00
C98    C     0.90583   0.25105   0.52596   0.00000  Uiso   1.00
C99    C     0.91154   0.19680   0.54998   0.00000  Uiso   1.00
C100   C     0.84469   0.22104   0.62404   0.00000  Uiso   1.00
C101   C     0.75311   0.23137   0.73873   0.00000  Uiso   1.00
C102   C     0.88138   0.26008   0.41611   0.00000  Uiso   1.00
C103   C     0.86651   0.21340   0.34779   0.00000  Uiso   1.00
C104   C     0.77904   0.24525   0.32937   0.00000  Uiso   1.00
C105   C     0.64951   0.26959   0.27351   0.00000  Uiso   1.00
C106   C     0.84275   0.37651   0.53616   0.00000  Uiso   1.00
C107   C     0.96938   0.37120   0.50911   0.00000  Uiso   1.00
C108   C     0.01481   0.43282   0.52843   0.00000  Uiso   1.00
C109   C     0.13288   0.41595   0.49778   0.00000  Uiso   1.00
C110   C     0.83582   0.32684   0.57419   0.00000  Uiso   1.00
C111   C     0.76893   0.35117   0.64822   0.00000  Uiso   1.00
C112   C     0.77454   0.29697   0.67235   0.00000  Uiso   1.00
C113   C     0.81137   0.33587   0.46434   0.00000  Uiso   1.00
C114   C     0.72390   0.36779   0.44602   0.00000  Uiso   1.00
C115   C     0.70890   0.32117   0.37768   0.00000  Uiso   1.00
H116   H     0.02616   0.17797   0.40982   0.00000  Uiso   1.00
H117   H     0.21158   0.21978   0.39288   0.00000  Uiso   1.00
H118   H     0.96573   0.13815   0.51265   0.00000  Uiso   1.00
H119   H     0.92071   0.15476   0.31048   0.00000  Uiso   1.00
H120   H     0.38629   0.29957   0.39539   0.00000  Uiso   1.00
H121   H     0.86786   0.12742   0.64791   0.00000  Uiso   1.00
H122   H     0.77292   0.16245   0.22161   0.00000  Uiso   1.00
H123   H     0.78823   0.43552   0.57371   0.00000  Uiso   1.00
H124   H     0.96060   0.49147   0.56576   0.00000  Uiso   1.00
H125   H     0.71475   0.40983   0.68553   0.00000  Uiso   1.00
H126   H     0.66973   0.42644   0.48336   0.00000  Uiso   1.00
H127   H     0.18259   0.52007   0.53571   0.00000  Uiso   1.00
H128   H     0.66416   0.34793   0.78823   0.00000  Uiso   1.00
H129   H     0.56922   0.38295   0.36192   0.00000  Uiso   1.00
O130   O     0.40213   0.44198   0.45738   0.00000  Uiso   1.00
O131   O     0.72196   0.21613   0.78868   0.00000  Uiso   1.00
O132   O     0.59741   0.26208   0.22937   0.00000  Uiso   1.00
N133   N     0.31469   0.34379   0.42949   0.00000  Uiso   1.00
N134   N     0.83000   0.18285   0.66559   0.00000  Uiso   1.00
N135   N     0.74123   0.21558   0.26704   0.00000  Uiso   1.00
N136   N     0.20508   0.46244   0.50499   0.00000  Uiso   1.00
N137   N     0.72039   0.30150   0.74109   0.00000  Uiso   1.00
N138   N     0.63162   0.33424   0.34254   0.00000  Uiso   1.00
C139   C     0.57642   0.44661   0.20890   0.00000  Uiso   1.00
C140   C     0.49762   0.45917   0.16595   0.00000  Uiso   1.00
C141   C     0.40944   0.42630   0.15382   0.00000  Uiso   1.00
C142   C     0.34719   0.44503   0.11318   0.00000  Uiso   1.00
C143   C     0.22097   0.45699   0.05070   0.00000  Uiso   1.00
C144   C     0.56476   0.52621   0.27219   0.00000  Uiso   1.00
C145   C     0.53305   0.54970   0.34939   0.00000  Uiso   1.00
C146   C     0.52734   0.62486   0.39818   0.00000  Uiso   1.00
C147   C     0.50545   0.74088   0.50064   0.00000  Uiso   1.00
C148   C     0.69857   0.41731   0.15388   0.00000  Uiso   1.00
C149   C     0.77939   0.34923   0.13161   0.00000  Uiso   1.00
C150   C     0.88635   0.33271   0.08080   0.00000  Uiso   1.00
C151   C     0.07222   0.27964   0.99957   0.00000  Uiso   1.00
C152   C     0.62268   0.53832   0.15828   0.00000  Uiso   1.00
C153   C     0.52274   0.50899   0.13846   0.00000  Uiso   1.00
C154   C     0.46062   0.52777   0.09782   0.00000  Uiso   1.00
C155   C     0.37236   0.49493   0.08563   0.00000  Uiso   1.00
C156   C     0.58988   0.57603   0.24470   0.00000  Uiso   1.00
C157   C     0.58423   0.65117   0.29339   0.00000  Uiso   1.00
C158   C     0.55251   0.67477   0.37064   0.00000  Uiso   1.00
C159   C     0.72370   0.46712   0.12638   0.00000  Uiso   1.00
C160   C     0.83056   0.45070   0.07560   0.00000  Uiso   1.00
C161   C     0.91152   0.38262   0.05326   0.00000  Uiso   1.00
H162   H     0.55686   0.40783   0.23031   0.00000  Uiso   1.00
H163   H     0.39001   0.38776   0.17512   0.00000  Uiso   1.00
H164   H     0.51362   0.51114   0.37065   0.00000  Uiso   1.00
H165   H     0.75991   0.31070   0.15290   0.00000  Uiso   1.00
H166   H     0.21609   0.38750   0.10182   0.00000  Uiso   1.00
H167   H     0.47676   0.64763   0.51411   0.00000  Uiso   1.00
H168   H     0.99612   0.22498   0.05495   0.00000  Uiso   1.00
H169   H     0.64224   0.57711   0.13688   0.00000  Uiso   1.00
H170   H     0.48008   0.56632   0.07655   0.00000  Uiso   1.00
H171   H     0.60368   0.68970   0.27209   0.00000  Uiso   1.00
H172   H     0.84997   0.48927   0.05434   0.00000  Uiso   1.00
H173   H     0.28919   0.53243   0.02182   0.00000  Uiso   1.00
H174   H     0.54986   0.79256   0.43412   0.00000  Uiso   1.00
H175   H     0.06922   0.36991   0.97495   0.00000  Uiso   1.00
O176   O     0.14440   0.44983   0.02384   0.00000  Uiso   1.00
O177   O     0.48641   0.79111   0.56476   0.00000  Uiso   1.00
O178   O     0.16779   0.23660   0.96234   0.00000  Uiso   1.00
N179   N     0.25556   0.42307   0.09126   0.00000  Uiso   1.00
N180   N     0.49926   0.66629   0.47673   0.00000  Uiso   1.00
N181   N     0.98482   0.27115   0.04747   0.00000  Uiso   1.00
N182   N     0.29490   0.50106   0.04821   0.00000  Uiso   1.00
N183   N     0.53859   0.74427   0.43369   0.00000  Uiso   1.00
N184   N     0.02416   0.34914   0.00442   0.00000  Uiso   1.00
C185   C     0.78657   0.79206   0.23859   0.00000  Uiso   1.00
C186   C     0.66468   0.83330   0.29472   0.00000  Uiso   1.00
C187   C     0.56583   0.84393   0.27577   0.00000  Uiso   1.00
C188   C     0.46254   0.88314   0.33542   0.00000  Uiso   1.00
C189   C     0.27391   0.94295   0.41103   0.00000  Uiso   1.00
C190   C     0.83456   0.72830   0.25402   0.00000  Uiso   1.00
C191   C     0.87856   0.65067   0.20086   0.00000  Uiso   1.00
C192   C     0.91828   0.60150   0.22625   0.00000  Uiso   1.00
C193   C     0.99348   0.49831   0.23867   0.00000  Uiso   1.00
C194   C     0.85521   0.84932   0.26272   0.00000  Uiso   1.00
C195   C     0.91659   0.87343   0.21686   0.00000  Uiso   1.00
C196   C     0.97372   0.92614   0.24956   0.00000  Uiso   1.00
C197   C     0.08097   0.01085   0.27548   0.00000  Uiso   1.00
C198   C     0.77892   0.84277   0.37822   0.00000  Uiso   1.00
C199   C     0.66053   0.86084   0.37055   0.00000  Uiso   1.00
C200   C     0.55736   0.90004   0.43025   0.00000  Uiso   1.00
C201   C     0.45837   0.91074   0.41140   0.00000  Uiso   1.00
C202   C     0.83041   0.75585   0.32986   0.00000  Uiso   1.00
C203   C     0.87009   0.70678   0.35533   0.00000  Uiso   1.00
C204   C     0.91412   0.62909   0.30222   0.00000  Uiso   1.00
C205   C     0.85105   0.87687   0.33856   0.00000  Uiso   1.00
C206   C     0.90812   0.92954   0.37134   0.00000  Uiso   1.00
C207   C     0.96956   0.95373   0.32554   0.00000  Uiso   1.00
H208   H     0.78981   0.77061   0.17955   0.00000  Uiso   1.00
H209   H     0.56908   0.82260   0.21707   0.00000  Uiso   1.00
H210   H     0.88177   0.62937   0.14217   0.00000  Uiso   1.00
H211   H     0.91979   0.85210   0.15817   0.00000  Uiso   1.00
H212   H     0.32253   0.89237   0.29212   0.00000  Uiso   1.00
H213   H     0.98188   0.48493   0.13418   0.00000  Uiso   1.00
H214   H     0.06206   0.95460   0.16792   0.00000  Uiso   1.00
H215   H     0.77568   0.86422   0.43726   0.00000  Uiso   1.00
H216   H     0.55418   0.92135   0.48893   0.00000  Uiso   1.00
H217   H     0.86687   0.72812   0.41403   0.00000  Uiso   1.00
H218   H     0.90488   0.95085   0.43003   0.00000  Uiso   1.00
H219   H     0.31043   0.97252   0.51277   0.00000  Uiso   1.00
H220   H     0.96979   0.56508   0.35482   0.00000  Uiso   1.00
H221   H     0.04996   0.03475   0.38856   0.00000  Uiso   1.00
O222   O     0.17102   0.96832   0.43179   0.00000  Uiso   1.00
O223   O     0.03609   0.43378   0.22456   0.00000  Uiso   1.00
O224   O     0.14126   0.04998   0.26883   0.00000  Uiso   1.00
N225   N     0.35008   0.90341   0.33696   0.00000  Uiso   1.00
N226   N     0.96652   0.52247   0.18930   0.00000  Uiso   1.00
N227   N     0.04150   0.96156   0.22083   0.00000  Uiso   1.00
N228   N     0.34357   0.94653   0.45569   0.00000  Uiso   1.00
N229   N     0.96001   0.56560   0.30802   0.00000  Uiso   1.00
N230   N     0.03499   0.00469   0.33956   0.00000  Uiso   1.00
C231   C     0.02835   0.76303   0.55263   0.00000  Uiso   1.00
C232   C     0.96060   0.70459   0.53912   0.00000  Uiso   1.00
C233   C     0.84257   0.72155   0.56980   0.00000  Uiso   1.00
C234   C     0.79698   0.65997   0.55053   0.00000  Uiso   1.00
C235   C     0.68112   0.58077   0.53685   0.00000  Uiso   1.00
C236   C     0.09417   0.74895   0.47404   0.00000  Uiso   1.00
C237   C     0.08846   0.80320   0.45001   0.00000  Uiso   1.00
C238   C     0.15532   0.77896   0.37596   0.00000  Uiso   1.00
C239   C     0.24689   0.76863   0.26127   0.00000  Uiso   1.00
C240   C     0.11862   0.73992   0.58389   0.00000  Uiso   1.00
C241   C     0.13349   0.78660   0.65221   0.00000  Uiso   1.00
C242   C     0.22096   0.75475   0.67063   0.00000  Uiso   1.00
C243   C     0.35049   0.73041   0.72649   0.00000  Uiso   1.00
C244   C     0.15726   0.62349   0.46384   0.00000  Uiso   1.00
C245   C     0.03062   0.62880   0.49089   0.00000  Uiso   1.00
C246   C     0.98519   0.56718   0.47157   0.00000  Uiso   1.00
C247   C     0.86712   0.58405   0.50222   0.00000  Uiso   1.00
C248   C     0.16418   0.67316   0.42581   0.00000  Uiso   1.00
C249   C     0.23107   0.64883   0.35178   0.00000  Uiso   1.00
C250   C     0.22546   0.70303   0.32764   0.00000  Uiso   1.00
C251   C     0.18864   0.66413   0.53566   0.00000  Uiso   1.00
C252   C     0.27610   0.63221   0.55398   0.00000  Uiso   1.00
C253   C     0.29110   0.67883   0.62232   0.00000  Uiso   1.00
H254   H     0.97384   0.82203   0.59018   0.00000  Uiso   1.00
H255   H     0.78842   0.78022   0.60712   0.00000  Uiso   1.00
H256   H     0.03427   0.86185   0.48735   0.00000  Uiso   1.00
H257   H     0.07929   0.84524   0.68952   0.00000  Uiso   1.00
H258   H     0.61371   0.70043   0.60461   0.00000  Uiso   1.00
H259   H     0.13214   0.87258   0.35209   0.00000  Uiso   1.00
H260   H     0.22708   0.83755   0.77839   0.00000  Uiso   1.00
H261   H     0.21177   0.56448   0.42629   0.00000  Uiso   1.00
H262   H     0.03940   0.50853   0.43424   0.00000  Uiso   1.00
H263   H     0.28525   0.59017   0.31447   0.00000  Uiso   1.00
H264   H     0.33027   0.57356   0.51664   0.00000  Uiso   1.00
H265   H     0.81741   0.47993   0.46429   0.00000  Uiso   1.00
H266   H     0.33585   0.65207   0.21177   0.00000  Uiso   1.00
H267   H     0.43078   0.61705   0.63808   0.00000  Uiso   1.00
O268   O     0.59787   0.55802   0.54262   0.00000  Uiso   1.00
O269   O     0.27804   0.78387   0.21132   0.00000  Uiso   1.00
O270   O     0.40259   0.73792   0.77063   0.00000  Uiso   1.00
N271   N     0.68531   0.65621   0.57051   0.00000  Uiso   1.00
N272   N     0.17000   0.81715   0.33441   0.00000  Uiso   1.00
N273   N     0.25877   0.78442   0.73296   0.00000  Uiso   1.00
N274   N     0.79492   0.53756   0.49501   0.00000  Uiso   1.00
N275   N     0.27961   0.69850   0.25890   0.00000  Uiso   1.00
N276   N     0.36838   0.66576   0.65746   0.00000  Uiso   1.00
