data_job_04597
_audit_creation_date              2018-12-19
_audit_creation_method            'Materials Studio'
_symmetry_space_group_name_H-M    'P1'
_symmetry_Int_Tables_number       1
_symmetry_cell_setting            triclinic
loop_
_symmetry_equiv_pos_as_xyz
  x,y,z
_cell_length_a                    11.2948
_cell_length_b                    12.7044
_cell_length_c                    21.7067
_cell_angle_alpha                 90.0000
_cell_angle_beta                  129.9990
_cell_angle_gamma                 90.0000
loop_
_atom_site_label
_atom_site_type_symbol
_atom_site_fract_x
_atom_site_fract_y
_atom_site_fract_z
_atom_site_U_iso_or_equiv
_atom_site_adp_type
_atom_site_occupancy
C1     C     0.91737   0.05744   0.55231   0.00000  Uiso   1.00
C2     C     0.84769   0.94873   0.53978   0.00000  Uiso   1.00
C3     C     0.93024   0.85659   0.57719   0.00000  Uiso   1.00
C4     C     0.84512   0.76521   0.55764   0.00000  Uiso   1.00
C5     C     0.76155   0.59627   0.54651   0.00000  Uiso   1.00
C6     C     0.85180   0.09584   0.46916   0.00000  Uiso   1.00
C7     C     0.93780   0.12738   0.44722   0.00000  Uiso   1.00
C8     C     0.85613   0.15985   0.36822   0.00000  Uiso   1.00
C9     C     0.77894   0.21937   0.24749   0.00000  Uiso   1.00
C10    C     0.84844   0.12883   0.57859   0.00000  Uiso   1.00
C11    C     0.93161   0.18814   0.64864   0.00000  Uiso   1.00
C12    C     0.84711   0.24840   0.66177   0.00000  Uiso   1.00
C13    C     0.76470   0.35915   0.71094   0.00000  Uiso   1.00
C14    C     0.61942   0.05902   0.45106   0.00000  Uiso   1.00
C15    C     0.68586   0.94959   0.48478   0.00000  Uiso   1.00
C16    C     0.60059   0.85833   0.46517   0.00000  Uiso   1.00
C17    C     0.68300   0.76606   0.50255   0.00000  Uiso   1.00
C18    C     0.68997   0.09669   0.41417   0.00000  Uiso   1.00
C19    C     0.60816   0.12912   0.33519   0.00000  Uiso   1.00
C20    C     0.69401   0.16070   0.31313   0.00000  Uiso   1.00
C21    C     0.68661   0.12968   0.52360   0.00000  Uiso   1.00
C22    C     0.60197   0.18988   0.53662   0.00000  Uiso   1.00
C23    C     0.68499   0.24926   0.60667   0.00000  Uiso   1.00
H24    H     0.04336   0.05678   0.59512   0.00000  Uiso   1.00
H25    H     0.05548   0.85596   0.61974   0.00000  Uiso   1.00
H26    H     0.06303   0.12672   0.48979   0.00000  Uiso   1.00
H27    H     0.05684   0.18746   0.69119   0.00000  Uiso   1.00
H28    H     0.99754   0.63368   0.62276   0.00000  Uiso   1.00
H29    H     0.01348   0.20463   0.34876   0.00000  Uiso   1.00
H30    H     0.00043   0.33272   0.77344   0.00000  Uiso   1.00
H31    H     0.49343   0.05968   0.40823   0.00000  Uiso   1.00
H32    H     0.47536   0.85901   0.42260   0.00000  Uiso   1.00
H33    H     0.48292   0.12978   0.29265   0.00000  Uiso   1.00
H34    H     0.47673   0.19052   0.49404   0.00000  Uiso   1.00
H35    H     0.52670   0.63616   0.46275   0.00000  Uiso   1.00
H36    H     0.54264   0.20712   0.18875   0.00000  Uiso   1.00
H37    H     0.52958   0.33520   0.61343   0.00000  Uiso   1.00
O38    O     0.76016   0.50286   0.55556   0.00000  Uiso   1.00
O39    O     0.78107   0.25195   0.19609   0.00000  Uiso   1.00
O40    O     0.76395   0.41999   0.75326   0.00000  Uiso   1.00
N41    N     0.88921   0.66180   0.58315   0.00000  Uiso   1.00
N42    N     0.90411   0.19560   0.32696   0.00000  Uiso   1.00
N43    N     0.89191   0.31537   0.72399   0.00000  Uiso   1.00
N44    N     0.63585   0.66314   0.49705   0.00000  Uiso   1.00
N45    N     0.65075   0.19694   0.24087   0.00000  Uiso   1.00
N46    N     0.63855   0.31671   0.63790   0.00000  Uiso   1.00
C47    C     0.08419   0.43335   0.94698   0.00000  Uiso   1.00
C48    C     0.15363   0.32460   0.95937   0.00000  Uiso   1.00
C49    C     0.07089   0.23255   0.92184   0.00000  Uiso   1.00
C50    C     0.15581   0.14110   0.94127   0.00000  Uiso   1.00
C51    C     0.23902   0.97211   0.95218   0.00000  Uiso   1.00
C52    C     0.14985   0.47158   0.03018   0.00000  Uiso   1.00
C53    C     0.06392   0.50313   0.05217   0.00000  Uiso   1.00
C54    C     0.14566   0.53543   0.13121   0.00000  Uiso   1.00
C55    C     0.22300   0.59471   0.25202   0.00000  Uiso   1.00
C56    C     0.15327   0.50476   0.92079   0.00000  Uiso   1.00
C57    C     0.07022   0.56422   0.85082   0.00000  Uiso   1.00
C58    C     0.15484   0.62447   0.83776   0.00000  Uiso   1.00
C59    C     0.23748   0.73526   0.78873   0.00000  Uiso   1.00
C60    C     0.38214   0.43463   0.04823   0.00000  Uiso   1.00
C61    C     0.31547   0.32529   0.01437   0.00000  Uiso   1.00
C62    C     0.40054   0.23396   0.03386   0.00000  Uiso   1.00
C63    C     0.31793   0.14179   0.99637   0.00000  Uiso   1.00
C64    C     0.31168   0.47228   0.08517   0.00000  Uiso   1.00
C65    C     0.39357   0.50454   0.16419   0.00000  Uiso   1.00
C66    C     0.30779   0.53612   0.18630   0.00000  Uiso   1.00
C67    C     0.31510   0.50545   0.97578   0.00000  Uiso   1.00
C68    C     0.39987   0.56563   0.96284   0.00000  Uiso   1.00
C69    C     0.31696   0.62517   0.89286   0.00000  Uiso   1.00
H70    H     0.95820   0.43282   0.90417   0.00000  Uiso   1.00
H71    H     0.94565   0.23204   0.87929   0.00000  Uiso   1.00
H72    H     0.93869   0.50259   0.00960   0.00000  Uiso   1.00
H73    H     0.94498   0.56367   0.80827   0.00000  Uiso   1.00
H74    H     0.00310   0.00975   0.87598   0.00000  Uiso   1.00
H75    H     0.98842   0.58025   0.15073   0.00000  Uiso   1.00
H76    H     0.00170   0.70904   0.72620   0.00000  Uiso   1.00
H77    H     0.50814   0.43517   0.09105   0.00000  Uiso   1.00
H78    H     0.52577   0.23452   0.07642   0.00000  Uiso   1.00
H79    H     0.51880   0.50507   0.20673   0.00000  Uiso   1.00
H80    H     0.52510   0.56615   0.00541   0.00000  Uiso   1.00
H81    H     0.47395   0.01175   0.03599   0.00000  Uiso   1.00
H82    H     0.45927   0.58227   0.31074   0.00000  Uiso   1.00
H83    H     0.47255   0.71105   0.88621   0.00000  Uiso   1.00
O84    O     0.24020   0.87871   0.94301   0.00000  Uiso   1.00
O85    O     0.22094   0.62721   0.30347   0.00000  Uiso   1.00
O86    O     0.23836   0.79617   0.74649   0.00000  Uiso   1.00
N87    N     0.11150   0.03776   0.91563   0.00000  Uiso   1.00
N88    N     0.09777   0.57113   0.17251   0.00000  Uiso   1.00
N89    N     0.11018   0.69156   0.77562   0.00000  Uiso   1.00
N90    N     0.36486   0.03884   0.00173   0.00000  Uiso   1.00
N91    N     0.35113   0.57221   0.25861   0.00000  Uiso   1.00
N92    N     0.36354   0.69264   0.86172   0.00000  Uiso   1.00
C93    C     0.91737   0.94256   0.05231   0.00000  Uiso   1.00
C94    C     0.84769   0.05127   0.03978   0.00000  Uiso   1.00
C95    C     0.93024   0.14341   0.07719   0.00000  Uiso   1.00
C96    C     0.84512   0.23479   0.05764   0.00000  Uiso   1.00
C97    C     0.76155   0.40373   0.04651   0.00000  Uiso   1.00
C98    C     0.85180   0.90416   0.96916   0.00000  Uiso   1.00
C99    C     0.93780   0.87262   0.94722   0.00000  Uiso   1.00
C100   C     0.85613   0.84015   0.86822   0.00000  Uiso   1.00
C101   C     0.77894   0.78063   0.74749   0.00000  Uiso   1.00
C102   C     0.84844   0.87117   0.07859   0.00000  Uiso   1.00
C103   C     0.93161   0.81186   0.14864   0.00000  Uiso   1.00
C104   C     0.84711   0.75159   0.16177   0.00000  Uiso   1.00
C105   C     0.76470   0.64085   0.21094   0.00000  Uiso   1.00
C106   C     0.61942   0.94098   0.95106   0.00000  Uiso   1.00
C107   C     0.68586   0.05041   0.98478   0.00000  Uiso   1.00
C108   C     0.60059   0.14167   0.96517   0.00000  Uiso   1.00
C109   C     0.68300   0.23394   0.00255   0.00000  Uiso   1.00
C110   C     0.68997   0.90331   0.91417   0.00000  Uiso   1.00
C111   C     0.60816   0.87088   0.83519   0.00000  Uiso   1.00
C112   C     0.69401   0.83930   0.81313   0.00000  Uiso   1.00
C113   C     0.68661   0.87032   0.02360   0.00000  Uiso   1.00
C114   C     0.60197   0.81012   0.03662   0.00000  Uiso   1.00
C115   C     0.68499   0.75074   0.10667   0.00000  Uiso   1.00
H116   H     0.04336   0.94322   0.09512   0.00000  Uiso   1.00
H117   H     0.05548   0.14404   0.11974   0.00000  Uiso   1.00
H118   H     0.06303   0.87328   0.98979   0.00000  Uiso   1.00
H119   H     0.05684   0.81254   0.19119   0.00000  Uiso   1.00
H120   H     0.99754   0.36632   0.12276   0.00000  Uiso   1.00
H121   H     0.01348   0.79537   0.84876   0.00000  Uiso   1.00
H122   H     0.00043   0.66728   0.27344   0.00000  Uiso   1.00
H123   H     0.49343   0.94032   0.90823   0.00000  Uiso   1.00
H124   H     0.47536   0.14099   0.92260   0.00000  Uiso   1.00
H125   H     0.48292   0.87022   0.79265   0.00000  Uiso   1.00
H126   H     0.47673   0.80948   0.99404   0.00000  Uiso   1.00
H127   H     0.52670   0.36384   0.96275   0.00000  Uiso   1.00
H128   H     0.54264   0.79288   0.68875   0.00000  Uiso   1.00
H129   H     0.52958   0.66480   0.11343   0.00000  Uiso   1.00
O130   O     0.76016   0.49714   0.05556   0.00000  Uiso   1.00
O131   O     0.78107   0.74805   0.69609   0.00000  Uiso   1.00
O132   O     0.76395   0.58001   0.25326   0.00000  Uiso   1.00
N133   N     0.88921   0.33820   0.08315   0.00000  Uiso   1.00
N134   N     0.90411   0.80440   0.82696   0.00000  Uiso   1.00
N135   N     0.89191   0.68463   0.22399   0.00000  Uiso   1.00
N136   N     0.63585   0.33686   0.99705   0.00000  Uiso   1.00
N137   N     0.65075   0.80306   0.74087   0.00000  Uiso   1.00
N138   N     0.63855   0.68329   0.13790   0.00000  Uiso   1.00
C139   C     0.08419   0.56665   0.44698   0.00000  Uiso   1.00
C140   C     0.15363   0.67540   0.45937   0.00000  Uiso   1.00
C141   C     0.07089   0.76745   0.42184   0.00000  Uiso   1.00
C142   C     0.15581   0.85890   0.44127   0.00000  Uiso   1.00
C143   C     0.23902   0.02789   0.45218   0.00000  Uiso   1.00
C144   C     0.14985   0.52842   0.53018   0.00000  Uiso   1.00
C145   C     0.06392   0.49687   0.55217   0.00000  Uiso   1.00
C146   C     0.14566   0.46457   0.63121   0.00000  Uiso   1.00
C147   C     0.22300   0.40529   0.75202   0.00000  Uiso   1.00
C148   C     0.15327   0.49524   0.42079   0.00000  Uiso   1.00
C149   C     0.07022   0.43578   0.35082   0.00000  Uiso   1.00
C150   C     0.15484   0.37553   0.33776   0.00000  Uiso   1.00
C151   C     0.23748   0.26474   0.28873   0.00000  Uiso   1.00
C152   C     0.38214   0.56537   0.54823   0.00000  Uiso   1.00
C153   C     0.31547   0.67471   0.51437   0.00000  Uiso   1.00
C154   C     0.40054   0.76604   0.53386   0.00000  Uiso   1.00
C155   C     0.31793   0.85821   0.49637   0.00000  Uiso   1.00
C156   C     0.31168   0.52772   0.58517   0.00000  Uiso   1.00
C157   C     0.39357   0.49546   0.66419   0.00000  Uiso   1.00
C158   C     0.30779   0.46388   0.68630   0.00000  Uiso   1.00
C159   C     0.31510   0.49455   0.47578   0.00000  Uiso   1.00
C160   C     0.39987   0.43437   0.46284   0.00000  Uiso   1.00
C161   C     0.31696   0.37483   0.39286   0.00000  Uiso   1.00
H162   H     0.95820   0.56718   0.40417   0.00000  Uiso   1.00
H163   H     0.94565   0.76796   0.37929   0.00000  Uiso   1.00
H164   H     0.93869   0.49741   0.50960   0.00000  Uiso   1.00
H165   H     0.94498   0.43633   0.30827   0.00000  Uiso   1.00
H166   H     0.00310   0.99025   0.37598   0.00000  Uiso   1.00
H167   H     0.98842   0.41975   0.65073   0.00000  Uiso   1.00
H168   H     0.00170   0.29096   0.22620   0.00000  Uiso   1.00
H169   H     0.50814   0.56483   0.59105   0.00000  Uiso   1.00
H170   H     0.52577   0.76548   0.57642   0.00000  Uiso   1.00
H171   H     0.51880   0.49493   0.70673   0.00000  Uiso   1.00
H172   H     0.52510   0.43385   0.50541   0.00000  Uiso   1.00
H173   H     0.47395   0.98825   0.53599   0.00000  Uiso   1.00
H174   H     0.45927   0.41773   0.81074   0.00000  Uiso   1.00
H175   H     0.47255   0.28895   0.38621   0.00000  Uiso   1.00
O176   O     0.24020   0.12129   0.44301   0.00000  Uiso   1.00
O177   O     0.22094   0.37279   0.80347   0.00000  Uiso   1.00
O178   O     0.23836   0.20383   0.24649   0.00000  Uiso   1.00
N179   N     0.11150   0.96224   0.41563   0.00000  Uiso   1.00
N180   N     0.09777   0.42887   0.67251   0.00000  Uiso   1.00
N181   N     0.11018   0.30844   0.27562   0.00000  Uiso   1.00
N182   N     0.36486   0.96116   0.50173   0.00000  Uiso   1.00
N183   N     0.35113   0.42779   0.75861   0.00000  Uiso   1.00
N184   N     0.36354   0.30736   0.36172   0.00000  Uiso   1.00
