data_job_03268
_audit_creation_date              2018-12-19
_audit_creation_method            'Materials Studio'
_symmetry_space_group_name_H-M    'P1'
_symmetry_Int_Tables_number       1
_symmetry_cell_setting            triclinic
loop_
_symmetry_equiv_pos_as_xyz
  x,y,z
_cell_length_a                    17.6870
_cell_length_b                    31.1941
_cell_length_c                    9.5626
_cell_angle_alpha                 90.0000
_cell_angle_beta                  90.0000
_cell_angle_gamma                 90.0000
loop_
_atom_site_label
_atom_site_type_symbol
_atom_site_fract_x
_atom_site_fract_y
_atom_site_fract_z
_atom_site_U_iso_or_equiv
_atom_site_adp_type
_atom_site_occupancy
C1     C     0.93148   0.63984   0.82757   0.00000  Uiso   1.00
C2     C     0.86422   0.61124   0.86287   0.00000  Uiso   1.00
C3     C     0.80478   0.62198   0.95090   0.00000  Uiso   1.00
C4     C     0.74870   0.59137   0.96970   0.00000  Uiso   1.00
C5     C     0.64377   0.55302   0.03474   0.00000  Uiso   1.00
C6     C     0.00184   0.61428   0.86684   0.00000  Uiso   1.00
C7     C     0.05812   0.62758   0.95820   0.00000  Uiso   1.00
C8     C     0.11790   0.59953   0.98032   0.00000  Uiso   1.00
C9     C     0.22666   0.56592   0.05144   0.00000  Uiso   1.00
C10    C     0.93257   0.64368   0.66862   0.00000  Uiso   1.00
C11    C     0.93062   0.68169   0.59330   0.00000  Uiso   1.00
C12    C     0.93209   0.67840   0.44852   0.00000  Uiso   1.00
C13    C     0.93330   0.69042   0.21188   0.00000  Uiso   1.00
C14    C     0.93757   0.56640   0.70440   0.00000  Uiso   1.00
C15    C     0.86753   0.57135   0.79597   0.00000  Uiso   1.00
C16    C     0.81152   0.54072   0.81463   0.00000  Uiso   1.00
C17    C     0.75201   0.55141   0.90267   0.00000  Uiso   1.00
C18    C     0.00515   0.57439   0.79994   0.00000  Uiso   1.00
C19    C     0.06486   0.54632   0.82193   0.00000  Uiso   1.00
C20    C     0.12121   0.55957   0.91330   0.00000  Uiso   1.00
C21    C     0.93587   0.60378   0.60171   0.00000  Uiso   1.00
C22    C     0.93736   0.60043   0.45703   0.00000  Uiso   1.00
C23    C     0.93541   0.63843   0.38150   0.00000  Uiso   1.00
H24    H     0.92891   0.67090   0.87966   0.00000  Uiso   1.00
H25    H     0.80225   0.65285   0.00267   0.00000  Uiso   1.00
H26    H     0.05555   0.65845   0.00994   0.00000  Uiso   1.00
H27    H     0.92806   0.71255   0.64511   0.00000  Uiso   1.00
H28    H     0.66329   0.61524   0.10958   0.00000  Uiso   1.00
H29    H     0.19740   0.62706   0.12489   0.00000  Uiso   1.00
H30    H     0.92858   0.74114   0.35555   0.00000  Uiso   1.00
H31    H     0.94015   0.53534   0.65232   0.00000  Uiso   1.00
H32    H     0.81410   0.50985   0.76284   0.00000  Uiso   1.00
H33    H     0.06740   0.51545   0.77013   0.00000  Uiso   1.00
H34    H     0.93992   0.56956   0.40529   0.00000  Uiso   1.00
H35    H     0.67291   0.49918   0.91494   0.00000  Uiso   1.00
H36    H     0.20703   0.51100   0.93024   0.00000  Uiso   1.00
H37    H     0.93820   0.62508   0.16091   0.00000  Uiso   1.00
O38    O     0.58499   0.54288   0.08911   0.00000  Uiso   1.00
O39    O     0.28573   0.55839   0.10917   0.00000  Uiso   1.00
O40    O     0.93303   0.70807   0.09983   0.00000  Uiso   1.00
N41    N     0.68284   0.59142   0.04858   0.00000  Uiso   1.00
N42    N     0.18220   0.60247   0.06291   0.00000  Uiso   1.00
N43    N     0.93089   0.70913   0.34365   0.00000  Uiso   1.00
N44    N     0.68802   0.52897   0.94384   0.00000  Uiso   1.00
N45    N     0.18738   0.54002   0.95817   0.00000  Uiso   1.00
N46    N     0.93607   0.64668   0.23891   0.00000  Uiso   1.00
C47    C     0.56852   0.36016   0.32757   0.00000  Uiso   1.00
C48    C     0.63578   0.38876   0.36287   0.00000  Uiso   1.00
C49    C     0.69522   0.37802   0.45090   0.00000  Uiso   1.00
C50    C     0.75130   0.40863   0.46970   0.00000  Uiso   1.00
C51    C     0.85623   0.44698   0.53474   0.00000  Uiso   1.00
C52    C     0.49816   0.38572   0.36684   0.00000  Uiso   1.00
C53    C     0.44188   0.37242   0.45820   0.00000  Uiso   1.00
C54    C     0.38210   0.40047   0.48032   0.00000  Uiso   1.00
C55    C     0.27334   0.43408   0.55144   0.00000  Uiso   1.00
C56    C     0.56743   0.35632   0.16862   0.00000  Uiso   1.00
C57    C     0.56938   0.31831   0.09330   0.00000  Uiso   1.00
C58    C     0.56791   0.32160   0.94852   0.00000  Uiso   1.00
C59    C     0.56670   0.30958   0.71188   0.00000  Uiso   1.00
C60    C     0.56243   0.43360   0.20440   0.00000  Uiso   1.00
C61    C     0.63247   0.42865   0.29597   0.00000  Uiso   1.00
C62    C     0.68848   0.45928   0.31463   0.00000  Uiso   1.00
C63    C     0.74799   0.44859   0.40267   0.00000  Uiso   1.00
C64    C     0.49485   0.42561   0.29994   0.00000  Uiso   1.00
C65    C     0.43514   0.45368   0.32193   0.00000  Uiso   1.00
C66    C     0.37879   0.44043   0.41330   0.00000  Uiso   1.00
C67    C     0.56413   0.39622   0.10171   0.00000  Uiso   1.00
C68    C     0.56264   0.39957   0.95703   0.00000  Uiso   1.00
C69    C     0.56459   0.36157   0.88150   0.00000  Uiso   1.00
H70    H     0.57109   0.32910   0.37966   0.00000  Uiso   1.00
H71    H     0.69775   0.34715   0.50267   0.00000  Uiso   1.00
H72    H     0.44445   0.34155   0.50994   0.00000  Uiso   1.00
H73    H     0.57194   0.28745   0.14511   0.00000  Uiso   1.00
H74    H     0.83671   0.38476   0.60958   0.00000  Uiso   1.00
H75    H     0.30260   0.37294   0.62489   0.00000  Uiso   1.00
H76    H     0.57142   0.25886   0.85555   0.00000  Uiso   1.00
H77    H     0.55985   0.46466   0.15232   0.00000  Uiso   1.00
H78    H     0.68590   0.49015   0.26284   0.00000  Uiso   1.00
H79    H     0.43260   0.48455   0.27013   0.00000  Uiso   1.00
H80    H     0.56008   0.43044   0.90529   0.00000  Uiso   1.00
H81    H     0.82709   0.50082   0.41494   0.00000  Uiso   1.00
H82    H     0.29297   0.48900   0.43024   0.00000  Uiso   1.00
H83    H     0.56180   0.37492   0.66091   0.00000  Uiso   1.00
O84    O     0.91501   0.45712   0.58911   0.00000  Uiso   1.00
O85    O     0.21427   0.44161   0.60917   0.00000  Uiso   1.00
O86    O     0.56697   0.29193   0.59983   0.00000  Uiso   1.00
N87    N     0.81716   0.40858   0.54858   0.00000  Uiso   1.00
N88    N     0.31780   0.39753   0.56291   0.00000  Uiso   1.00
N89    N     0.56911   0.29087   0.84365   0.00000  Uiso   1.00
N90    N     0.81198   0.47103   0.44384   0.00000  Uiso   1.00
N91    N     0.31262   0.45998   0.45817   0.00000  Uiso   1.00
N92    N     0.56393   0.35332   0.73891   0.00000  Uiso   1.00
C93    C     0.06852   0.13984   0.67243   0.00000  Uiso   1.00
C94    C     0.13578   0.11124   0.63713   0.00000  Uiso   1.00
C95    C     0.19522   0.12198   0.54910   0.00000  Uiso   1.00
C96    C     0.25130   0.09137   0.53030   0.00000  Uiso   1.00
C97    C     0.35623   0.05302   0.46526   0.00000  Uiso   1.00
C98    C     0.99816   0.11428   0.63316   0.00000  Uiso   1.00
C99    C     0.94188   0.12758   0.54180   0.00000  Uiso   1.00
C100   C     0.88210   0.09953   0.51968   0.00000  Uiso   1.00
C101   C     0.77334   0.06592   0.44856   0.00000  Uiso   1.00
C102   C     0.06743   0.14368   0.83138   0.00000  Uiso   1.00
C103   C     0.06938   0.18169   0.90670   0.00000  Uiso   1.00
C104   C     0.06791   0.17840   0.05148   0.00000  Uiso   1.00
C105   C     0.06670   0.19042   0.28812   0.00000  Uiso   1.00
C106   C     0.06243   0.06640   0.79560   0.00000  Uiso   1.00
C107   C     0.13247   0.07135   0.70403   0.00000  Uiso   1.00
C108   C     0.18848   0.04072   0.68537   0.00000  Uiso   1.00
C109   C     0.24799   0.05141   0.59733   0.00000  Uiso   1.00
C110   C     0.99485   0.07439   0.70006   0.00000  Uiso   1.00
C111   C     0.93514   0.04632   0.67807   0.00000  Uiso   1.00
C112   C     0.87879   0.05957   0.58670   0.00000  Uiso   1.00
C113   C     0.06413   0.10378   0.89829   0.00000  Uiso   1.00
C114   C     0.06264   0.10043   0.04297   0.00000  Uiso   1.00
C115   C     0.06459   0.13843   0.11850   0.00000  Uiso   1.00
H116   H     0.07109   0.17090   0.62034   0.00000  Uiso   1.00
H117   H     0.19775   0.15285   0.49733   0.00000  Uiso   1.00
H118   H     0.94445   0.15845   0.49006   0.00000  Uiso   1.00
H119   H     0.07194   0.21255   0.85489   0.00000  Uiso   1.00
H120   H     0.33671   0.11524   0.39042   0.00000  Uiso   1.00
H121   H     0.80260   0.12706   0.37511   0.00000  Uiso   1.00
H122   H     0.07142   0.24114   0.14445   0.00000  Uiso   1.00
H123   H     0.05985   0.03534   0.84768   0.00000  Uiso   1.00
H124   H     0.18590   0.00985   0.73716   0.00000  Uiso   1.00
H125   H     0.93260   0.01545   0.72987   0.00000  Uiso   1.00
H126   H     0.06008   0.06956   0.09471   0.00000  Uiso   1.00
H127   H     0.32709   0.99918   0.58506   0.00000  Uiso   1.00
H128   H     0.79297   0.01100   0.56976   0.00000  Uiso   1.00
H129   H     0.06180   0.12508   0.33909   0.00000  Uiso   1.00
O130   O     0.41501   0.04288   0.41089   0.00000  Uiso   1.00
O131   O     0.71427   0.05839   0.39083   0.00000  Uiso   1.00
O132   O     0.06697   0.20807   0.40017   0.00000  Uiso   1.00
N133   N     0.31716   0.09142   0.45142   0.00000  Uiso   1.00
N134   N     0.81780   0.10247   0.43709   0.00000  Uiso   1.00
N135   N     0.06911   0.20913   0.15635   0.00000  Uiso   1.00
N136   N     0.31198   0.02897   0.55616   0.00000  Uiso   1.00
N137   N     0.81262   0.04002   0.54183   0.00000  Uiso   1.00
N138   N     0.06393   0.14668   0.26109   0.00000  Uiso   1.00
C139   C     0.43148   0.86016   0.17243   0.00000  Uiso   1.00
C140   C     0.36422   0.88876   0.13713   0.00000  Uiso   1.00
C141   C     0.30478   0.87802   0.04910   0.00000  Uiso   1.00
C142   C     0.24870   0.90863   0.03030   0.00000  Uiso   1.00
C143   C     0.14377   0.94698   0.96526   0.00000  Uiso   1.00
C144   C     0.50184   0.88572   0.13316   0.00000  Uiso   1.00
C145   C     0.55812   0.87242   0.04180   0.00000  Uiso   1.00
C146   C     0.61790   0.90047   0.01968   0.00000  Uiso   1.00
C147   C     0.72666   0.93408   0.94856   0.00000  Uiso   1.00
C148   C     0.43257   0.85632   0.33138   0.00000  Uiso   1.00
C149   C     0.43062   0.81831   0.40670   0.00000  Uiso   1.00
C150   C     0.43209   0.82160   0.55148   0.00000  Uiso   1.00
C151   C     0.43330   0.80958   0.78812   0.00000  Uiso   1.00
C152   C     0.43757   0.93360   0.29560   0.00000  Uiso   1.00
C153   C     0.36753   0.92865   0.20403   0.00000  Uiso   1.00
C154   C     0.31152   0.95928   0.18537   0.00000  Uiso   1.00
C155   C     0.25201   0.94859   0.09733   0.00000  Uiso   1.00
C156   C     0.50515   0.92561   0.20006   0.00000  Uiso   1.00
C157   C     0.56486   0.95368   0.17807   0.00000  Uiso   1.00
C158   C     0.62121   0.94043   0.08670   0.00000  Uiso   1.00
C159   C     0.43587   0.89622   0.39829   0.00000  Uiso   1.00
C160   C     0.43736   0.89957   0.54297   0.00000  Uiso   1.00
C161   C     0.43541   0.86157   0.61850   0.00000  Uiso   1.00
H162   H     0.42891   0.82910   0.12034   0.00000  Uiso   1.00
H163   H     0.30225   0.84715   0.99733   0.00000  Uiso   1.00
H164   H     0.55555   0.84155   0.99006   0.00000  Uiso   1.00
H165   H     0.42806   0.78745   0.35489   0.00000  Uiso   1.00
H166   H     0.16329   0.88476   0.89042   0.00000  Uiso   1.00
H167   H     0.69740   0.87294   0.87511   0.00000  Uiso   1.00
H168   H     0.42858   0.75886   0.64445   0.00000  Uiso   1.00
H169   H     0.44015   0.96466   0.34768   0.00000  Uiso   1.00
H170   H     0.31410   0.99015   0.23716   0.00000  Uiso   1.00
H171   H     0.56740   0.98455   0.22987   0.00000  Uiso   1.00
H172   H     0.43992   0.93044   0.59471   0.00000  Uiso   1.00
H173   H     0.17291   0.00082   0.08506   0.00000  Uiso   1.00
H174   H     0.70703   0.98900   0.06976   0.00000  Uiso   1.00
H175   H     0.43820   0.87492   0.83909   0.00000  Uiso   1.00
O176   O     0.08499   0.95712   0.91089   0.00000  Uiso   1.00
O177   O     0.78573   0.94161   0.89083   0.00000  Uiso   1.00
O178   O     0.43303   0.79193   0.90017   0.00000  Uiso   1.00
N179   N     0.18284   0.90858   0.95142   0.00000  Uiso   1.00
N180   N     0.68220   0.89753   0.93709   0.00000  Uiso   1.00
N181   N     0.43089   0.79087   0.65635   0.00000  Uiso   1.00
N182   N     0.18802   0.97103   0.05616   0.00000  Uiso   1.00
N183   N     0.68738   0.95998   0.04183   0.00000  Uiso   1.00
N184   N     0.43607   0.85332   0.76109   0.00000  Uiso   1.00
C185   C     0.06852   0.36016   0.17243   0.00000  Uiso   1.00
C186   C     0.13578   0.38876   0.13713   0.00000  Uiso   1.00
C187   C     0.19522   0.37802   0.04910   0.00000  Uiso   1.00
C188   C     0.25130   0.40863   0.03030   0.00000  Uiso   1.00
C189   C     0.35623   0.44698   0.96526   0.00000  Uiso   1.00
C190   C     0.99816   0.38572   0.13316   0.00000  Uiso   1.00
C191   C     0.94188   0.37242   0.04180   0.00000  Uiso   1.00
C192   C     0.88210   0.40047   0.01968   0.00000  Uiso   1.00
C193   C     0.77334   0.43408   0.94856   0.00000  Uiso   1.00
C194   C     0.06743   0.35632   0.33138   0.00000  Uiso   1.00
C195   C     0.06938   0.31831   0.40670   0.00000  Uiso   1.00
C196   C     0.06791   0.32160   0.55148   0.00000  Uiso   1.00
C197   C     0.06670   0.30958   0.78812   0.00000  Uiso   1.00
C198   C     0.06243   0.43360   0.29560   0.00000  Uiso   1.00
C199   C     0.13247   0.42865   0.20403   0.00000  Uiso   1.00
C200   C     0.18848   0.45928   0.18537   0.00000  Uiso   1.00
C201   C     0.24799   0.44859   0.09733   0.00000  Uiso   1.00
C202   C     0.99485   0.42561   0.20006   0.00000  Uiso   1.00
C203   C     0.93514   0.45368   0.17807   0.00000  Uiso   1.00
C204   C     0.87879   0.44043   0.08670   0.00000  Uiso   1.00
C205   C     0.06413   0.39622   0.39829   0.00000  Uiso   1.00
C206   C     0.06264   0.39957   0.54297   0.00000  Uiso   1.00
C207   C     0.06459   0.36157   0.61850   0.00000  Uiso   1.00
H208   H     0.07109   0.32910   0.12034   0.00000  Uiso   1.00
H209   H     0.19775   0.34715   0.99733   0.00000  Uiso   1.00
H210   H     0.94445   0.34155   0.99006   0.00000  Uiso   1.00
H211   H     0.07194   0.28745   0.35489   0.00000  Uiso   1.00
H212   H     0.33671   0.38476   0.89042   0.00000  Uiso   1.00
H213   H     0.80260   0.37294   0.87511   0.00000  Uiso   1.00
H214   H     0.07142   0.25886   0.64445   0.00000  Uiso   1.00
H215   H     0.05985   0.46466   0.34768   0.00000  Uiso   1.00
H216   H     0.18590   0.49015   0.23716   0.00000  Uiso   1.00
H217   H     0.93260   0.48455   0.22987   0.00000  Uiso   1.00
H218   H     0.06008   0.43044   0.59471   0.00000  Uiso   1.00
H219   H     0.32709   0.50082   0.08506   0.00000  Uiso   1.00
H220   H     0.79297   0.48900   0.06976   0.00000  Uiso   1.00
H221   H     0.06180   0.37492   0.83909   0.00000  Uiso   1.00
O222   O     0.41501   0.45712   0.91089   0.00000  Uiso   1.00
O223   O     0.71427   0.44161   0.89083   0.00000  Uiso   1.00
O224   O     0.06697   0.29193   0.90017   0.00000  Uiso   1.00
N225   N     0.31716   0.40858   0.95142   0.00000  Uiso   1.00
N226   N     0.81780   0.39753   0.93709   0.00000  Uiso   1.00
N227   N     0.06911   0.29087   0.65635   0.00000  Uiso   1.00
N228   N     0.31198   0.47103   0.05616   0.00000  Uiso   1.00
N229   N     0.81262   0.45998   0.04183   0.00000  Uiso   1.00
N230   N     0.06393   0.35332   0.76109   0.00000  Uiso   1.00
C231   C     0.43148   0.63984   0.67243   0.00000  Uiso   1.00
C232   C     0.36422   0.61124   0.63713   0.00000  Uiso   1.00
C233   C     0.30478   0.62198   0.54910   0.00000  Uiso   1.00
C234   C     0.24870   0.59137   0.53030   0.00000  Uiso   1.00
C235   C     0.14377   0.55302   0.46526   0.00000  Uiso   1.00
C236   C     0.50184   0.61428   0.63316   0.00000  Uiso   1.00
C237   C     0.55812   0.62758   0.54180   0.00000  Uiso   1.00
C238   C     0.61790   0.59953   0.51968   0.00000  Uiso   1.00
C239   C     0.72666   0.56592   0.44856   0.00000  Uiso   1.00
C240   C     0.43257   0.64368   0.83138   0.00000  Uiso   1.00
C241   C     0.43062   0.68169   0.90670   0.00000  Uiso   1.00
C242   C     0.43209   0.67840   0.05148   0.00000  Uiso   1.00
C243   C     0.43330   0.69042   0.28812   0.00000  Uiso   1.00
C244   C     0.43757   0.56640   0.79560   0.00000  Uiso   1.00
C245   C     0.36753   0.57135   0.70403   0.00000  Uiso   1.00
C246   C     0.31152   0.54072   0.68537   0.00000  Uiso   1.00
C247   C     0.25201   0.55141   0.59733   0.00000  Uiso   1.00
C248   C     0.50515   0.57439   0.70006   0.00000  Uiso   1.00
C249   C     0.56486   0.54632   0.67807   0.00000  Uiso   1.00
C250   C     0.62121   0.55957   0.58670   0.00000  Uiso   1.00
C251   C     0.43587   0.60378   0.89829   0.00000  Uiso   1.00
C252   C     0.43736   0.60043   0.04297   0.00000  Uiso   1.00
C253   C     0.43541   0.63843   0.11850   0.00000  Uiso   1.00
H254   H     0.42891   0.67090   0.62034   0.00000  Uiso   1.00
H255   H     0.30225   0.65285   0.49733   0.00000  Uiso   1.00
H256   H     0.55555   0.65845   0.49006   0.00000  Uiso   1.00
H257   H     0.42806   0.71255   0.85489   0.00000  Uiso   1.00
H258   H     0.16329   0.61524   0.39042   0.00000  Uiso   1.00
H259   H     0.69740   0.62706   0.37511   0.00000  Uiso   1.00
H260   H     0.42858   0.74114   0.14445   0.00000  Uiso   1.00
H261   H     0.44015   0.53534   0.84768   0.00000  Uiso   1.00
H262   H     0.31410   0.50985   0.73716   0.00000  Uiso   1.00
H263   H     0.56740   0.51545   0.72987   0.00000  Uiso   1.00
H264   H     0.43992   0.56956   0.09471   0.00000  Uiso   1.00
H265   H     0.17291   0.49918   0.58506   0.00000  Uiso   1.00
H266   H     0.70703   0.51100   0.56976   0.00000  Uiso   1.00
H267   H     0.43820   0.62508   0.33909   0.00000  Uiso   1.00
O268   O     0.08499   0.54288   0.41089   0.00000  Uiso   1.00
O269   O     0.78573   0.55839   0.39083   0.00000  Uiso   1.00
O270   O     0.43303   0.70807   0.40017   0.00000  Uiso   1.00
N271   N     0.18284   0.59142   0.45142   0.00000  Uiso   1.00
N272   N     0.68220   0.60247   0.43709   0.00000  Uiso   1.00
N273   N     0.43089   0.70913   0.15635   0.00000  Uiso   1.00
N274   N     0.18802   0.52897   0.55616   0.00000  Uiso   1.00
N275   N     0.68738   0.54002   0.54183   0.00000  Uiso   1.00
N276   N     0.43607   0.64668   0.26109   0.00000  Uiso   1.00
C277   C     0.93148   0.86016   0.32757   0.00000  Uiso   1.00
C278   C     0.86422   0.88876   0.36287   0.00000  Uiso   1.00
C279   C     0.80478   0.87802   0.45090   0.00000  Uiso   1.00
C280   C     0.74870   0.90863   0.46970   0.00000  Uiso   1.00
C281   C     0.64377   0.94698   0.53474   0.00000  Uiso   1.00
C282   C     0.00184   0.88572   0.36684   0.00000  Uiso   1.00
C283   C     0.05812   0.87242   0.45820   0.00000  Uiso   1.00
C284   C     0.11790   0.90047   0.48032   0.00000  Uiso   1.00
C285   C     0.22666   0.93408   0.55144   0.00000  Uiso   1.00
C286   C     0.93257   0.85632   0.16862   0.00000  Uiso   1.00
C287   C     0.93062   0.81831   0.09330   0.00000  Uiso   1.00
C288   C     0.93209   0.82160   0.94852   0.00000  Uiso   1.00
C289   C     0.93330   0.80958   0.71188   0.00000  Uiso   1.00
C290   C     0.93757   0.93360   0.20440   0.00000  Uiso   1.00
C291   C     0.86753   0.92865   0.29597   0.00000  Uiso   1.00
C292   C     0.81152   0.95928   0.31463   0.00000  Uiso   1.00
C293   C     0.75201   0.94859   0.40267   0.00000  Uiso   1.00
C294   C     0.00515   0.92561   0.29994   0.00000  Uiso   1.00
C295   C     0.06486   0.95368   0.32193   0.00000  Uiso   1.00
C296   C     0.12121   0.94043   0.41330   0.00000  Uiso   1.00
C297   C     0.93587   0.89622   0.10171   0.00000  Uiso   1.00
C298   C     0.93736   0.89957   0.95703   0.00000  Uiso   1.00
C299   C     0.93541   0.86157   0.88150   0.00000  Uiso   1.00
H300   H     0.92891   0.82910   0.37966   0.00000  Uiso   1.00
H301   H     0.80225   0.84715   0.50267   0.00000  Uiso   1.00
H302   H     0.05555   0.84155   0.50994   0.00000  Uiso   1.00
H303   H     0.92806   0.78745   0.14511   0.00000  Uiso   1.00
H304   H     0.66329   0.88476   0.60958   0.00000  Uiso   1.00
H305   H     0.19740   0.87294   0.62489   0.00000  Uiso   1.00
H306   H     0.92858   0.75886   0.85555   0.00000  Uiso   1.00
H307   H     0.94015   0.96466   0.15232   0.00000  Uiso   1.00
H308   H     0.81410   0.99015   0.26284   0.00000  Uiso   1.00
H309   H     0.06740   0.98455   0.27013   0.00000  Uiso   1.00
H310   H     0.93992   0.93044   0.90529   0.00000  Uiso   1.00
H311   H     0.67291   0.00082   0.41494   0.00000  Uiso   1.00
H312   H     0.20703   0.98900   0.43024   0.00000  Uiso   1.00
H313   H     0.93820   0.87492   0.66091   0.00000  Uiso   1.00
O314   O     0.58499   0.95712   0.58911   0.00000  Uiso   1.00
O315   O     0.28573   0.94161   0.60917   0.00000  Uiso   1.00
O316   O     0.93303   0.79193   0.59983   0.00000  Uiso   1.00
N317   N     0.68284   0.90858   0.54858   0.00000  Uiso   1.00
N318   N     0.18220   0.89753   0.56291   0.00000  Uiso   1.00
N319   N     0.93089   0.79087   0.84365   0.00000  Uiso   1.00
N320   N     0.68802   0.97103   0.44384   0.00000  Uiso   1.00
N321   N     0.18738   0.95998   0.45817   0.00000  Uiso   1.00
N322   N     0.93607   0.85332   0.73891   0.00000  Uiso   1.00
C323   C     0.56852   0.13984   0.82757   0.00000  Uiso   1.00
C324   C     0.63578   0.11124   0.86287   0.00000  Uiso   1.00
C325   C     0.69522   0.12198   0.95090   0.00000  Uiso   1.00
C326   C     0.75130   0.09137   0.96970   0.00000  Uiso   1.00
C327   C     0.85623   0.05302   0.03474   0.00000  Uiso   1.00
C328   C     0.49816   0.11428   0.86684   0.00000  Uiso   1.00
C329   C     0.44188   0.12758   0.95820   0.00000  Uiso   1.00
C330   C     0.38210   0.09953   0.98032   0.00000  Uiso   1.00
C331   C     0.27334   0.06592   0.05144   0.00000  Uiso   1.00
C332   C     0.56743   0.14368   0.66862   0.00000  Uiso   1.00
C333   C     0.56938   0.18169   0.59330   0.00000  Uiso   1.00
C334   C     0.56791   0.17840   0.44852   0.00000  Uiso   1.00
C335   C     0.56670   0.19042   0.21188   0.00000  Uiso   1.00
C336   C     0.56243   0.06640   0.70440   0.00000  Uiso   1.00
C337   C     0.63247   0.07135   0.79597   0.00000  Uiso   1.00
C338   C     0.68848   0.04072   0.81463   0.00000  Uiso   1.00
C339   C     0.74799   0.05141   0.90267   0.00000  Uiso   1.00
C340   C     0.49485   0.07439   0.79994   0.00000  Uiso   1.00
C341   C     0.43514   0.04632   0.82193   0.00000  Uiso   1.00
C342   C     0.37879   0.05957   0.91330   0.00000  Uiso   1.00
C343   C     0.56413   0.10378   0.60171   0.00000  Uiso   1.00
C344   C     0.56264   0.10043   0.45703   0.00000  Uiso   1.00
C345   C     0.56459   0.13843   0.38150   0.00000  Uiso   1.00
H346   H     0.57109   0.17090   0.87966   0.00000  Uiso   1.00
H347   H     0.69775   0.15285   0.00267   0.00000  Uiso   1.00
H348   H     0.44445   0.15845   0.00994   0.00000  Uiso   1.00
H349   H     0.57194   0.21255   0.64511   0.00000  Uiso   1.00
H350   H     0.83671   0.11524   0.10958   0.00000  Uiso   1.00
H351   H     0.30260   0.12706   0.12489   0.00000  Uiso   1.00
H352   H     0.57142   0.24114   0.35555   0.00000  Uiso   1.00
H353   H     0.55985   0.03534   0.65232   0.00000  Uiso   1.00
H354   H     0.68590   0.00985   0.76284   0.00000  Uiso   1.00
H355   H     0.43260   0.01545   0.77013   0.00000  Uiso   1.00
H356   H     0.56008   0.06956   0.40529   0.00000  Uiso   1.00
H357   H     0.82709   0.99918   0.91494   0.00000  Uiso   1.00
H358   H     0.29297   0.01100   0.93024   0.00000  Uiso   1.00
H359   H     0.56180   0.12508   0.16091   0.00000  Uiso   1.00
O360   O     0.91501   0.04288   0.08911   0.00000  Uiso   1.00
O361   O     0.21427   0.05839   0.10917   0.00000  Uiso   1.00
O362   O     0.56697   0.20807   0.09983   0.00000  Uiso   1.00
N363   N     0.81716   0.09142   0.04858   0.00000  Uiso   1.00
N364   N     0.31780   0.10247   0.06291   0.00000  Uiso   1.00
N365   N     0.56911   0.20913   0.34365   0.00000  Uiso   1.00
N366   N     0.81198   0.02897   0.94384   0.00000  Uiso   1.00
N367   N     0.31262   0.04002   0.95817   0.00000  Uiso   1.00
N368   N     0.56393   0.14668   0.23891   0.00000  Uiso   1.00
