data_job_06917
_audit_creation_date              2018-12-19
_audit_creation_method            'Materials Studio'
_symmetry_space_group_name_H-M    'P1'
_symmetry_Int_Tables_number       1
_symmetry_cell_setting            triclinic
loop_
_symmetry_equiv_pos_as_xyz
  x,y,z
_cell_length_a                    19.9770
_cell_length_b                    19.4986
_cell_length_c                    21.5970
_cell_angle_alpha                 104.7070
_cell_angle_beta                  92.4156
_cell_angle_gamma                 88.0112
loop_
_atom_site_label
_atom_site_type_symbol
_atom_site_fract_x
_atom_site_fract_y
_atom_site_fract_z
_atom_site_U_iso_or_equiv
_atom_site_adp_type
_atom_site_occupancy
C1     C     0.29407   0.91741   0.29399   0.00000  Uiso   1.00
C2     C     0.34762   0.96758   0.33014   0.00000  Uiso   1.00
C3     C     0.39641   0.99792   0.30246   0.00000  Uiso   1.00
C4     C     0.44079   0.04236   0.34378   0.00000  Uiso   1.00
C5     C     0.52462   0.11817   0.38978   0.00000  Uiso   1.00
C6     C     0.30218   0.85036   0.31797   0.00000  Uiso   1.00
C7     C     0.31276   0.78215   0.28005   0.00000  Uiso   1.00
C8     C     0.31889   0.72792   0.31113   0.00000  Uiso   1.00
C9     C     0.33214   0.62175   0.33823   0.00000  Uiso   1.00
C10    C     0.22697   0.95139   0.31788   0.00000  Uiso   1.00
C11    C     0.17429   0.96812   0.27989   0.00000  Uiso   1.00
C12    C     0.11708   0.99894   0.31088   0.00000  Uiso   1.00
C13    C     0.01354   0.04963   0.33784   0.00000  Uiso   1.00
C14    C     0.28614   0.94239   0.41658   0.00000  Uiso   1.00
C15    C     0.34331   0.98114   0.39673   0.00000  Uiso   1.00
C16    C     0.38763   0.02556   0.43810   0.00000  Uiso   1.00
C17    C     0.43648   0.05596   0.41049   0.00000  Uiso   1.00
C18    C     0.29788   0.86393   0.38455   0.00000  Uiso   1.00
C19    C     0.30399   0.80979   0.41569   0.00000  Uiso   1.00
C20    C     0.31458   0.74151   0.37784   0.00000  Uiso   1.00
C21    C     0.22266   0.96496   0.38446   0.00000  Uiso   1.00
C22    C     0.16552   0.99576   0.41552   0.00000  Uiso   1.00
C23    C     0.11277   0.01253   0.37759   0.00000  Uiso   1.00
H24    H     0.29742   0.90684   0.24215   0.00000  Uiso   1.00
H25    H     0.39973   0.98740   0.25093   0.00000  Uiso   1.00
H26    H     0.31609   0.77167   0.22853   0.00000  Uiso   1.00
H27    H     0.17764   0.95761   0.22836   0.00000  Uiso   1.00
H28    H     0.51127   0.08268   0.29003   0.00000  Uiso   1.00
H29    H     0.33489   0.62779   0.24279   0.00000  Uiso   1.00
H30    H     0.04294   0.01988   0.24244   0.00000  Uiso   1.00
H31    H     0.28278   0.95295   0.46843   0.00000  Uiso   1.00
H32    H     0.38429   0.03605   0.48963   0.00000  Uiso   1.00
H33    H     0.30065   0.82031   0.46722   0.00000  Uiso   1.00
H34    H     0.16220   0.00625   0.46705   0.00000  Uiso   1.00
H35    H     0.49874   0.12216   0.48376   0.00000  Uiso   1.00
H36    H     0.32236   0.66727   0.43652   0.00000  Uiso   1.00
H37    H     0.03041   0.05936   0.43617   0.00000  Uiso   1.00
O38    O     0.57206   0.15623   0.39676   0.00000  Uiso   1.00
O39    O     0.34064   0.55943   0.33478   0.00000  Uiso   1.00
O40    O     0.95762   0.07385   0.33432   0.00000  Uiso   1.00
N41    N     0.49438   0.08058   0.33272   0.00000  Uiso   1.00
N42    N     0.32949   0.65528   0.28855   0.00000  Uiso   1.00
N43    N     0.05653   0.02184   0.28822   0.00000  Uiso   1.00
N44    N     0.48764   0.10182   0.43696   0.00000  Uiso   1.00
N45    N     0.32275   0.67653   0.39280   0.00000  Uiso   1.00
N46    N     0.04979   0.04309   0.39247   0.00000  Uiso   1.00
C47    C     0.29145   0.43778   0.84461   0.00000  Uiso   1.00
C48    C     0.30023   0.50129   0.90219   0.00000  Uiso   1.00
C49    C     0.24889   0.54387   0.93409   0.00000  Uiso   1.00
C50    C     0.26729   0.59937   0.98565   0.00000  Uiso   1.00
C51    C     0.27068   0.69612   0.07216   0.00000  Uiso   1.00
C52    C     0.33273   0.45271   0.79189   0.00000  Uiso   1.00
C53    C     0.30870   0.45443   0.73105   0.00000  Uiso   1.00
C54    C     0.35446   0.46904   0.68975   0.00000  Uiso   1.00
C55    C     0.40831   0.49032   0.60499   0.00000  Uiso   1.00
C56    C     0.32636   0.37500   0.86363   0.00000  Uiso   1.00
C57    C     0.29700   0.31137   0.86310   0.00000  Uiso   1.00
C58    C     0.33740   0.26054   0.88220   0.00000  Uiso   1.00
C59    C     0.38136   0.16117   0.90883   0.00000  Uiso   1.00
C60    C     0.41543   0.46064   0.87946   0.00000  Uiso   1.00
C61    C     0.36757   0.51370   0.92111   0.00000  Uiso   1.00
C62    C     0.38605   0.56916   0.97264   0.00000  Uiso   1.00
C63    C     0.33475   0.61181   0.00461   0.00000  Uiso   1.00
C64    C     0.40006   0.46513   0.81081   0.00000  Uiso   1.00
C65    C     0.44587   0.47973   0.76960   0.00000  Uiso   1.00
C66    C     0.42192   0.48148   0.70871   0.00000  Uiso   1.00
C67    C     0.39370   0.38742   0.88256   0.00000  Uiso   1.00
C68    C     0.43416   0.33667   0.90165   0.00000  Uiso   1.00
C69    C     0.40486   0.27298   0.90115   0.00000  Uiso   1.00
H70    H     0.23903   0.42811   0.82988   0.00000  Uiso   1.00
H71    H     0.19679   0.53424   0.91943   0.00000  Uiso   1.00
H72    H     0.25659   0.44482   0.71641   0.00000  Uiso   1.00
H73    H     0.24489   0.30178   0.84845   0.00000  Uiso   1.00
H74    H     0.17965   0.65741   0.02705   0.00000  Uiso   1.00
H75    H     0.30576   0.46882   0.59897   0.00000  Uiso   1.00
H76    H     0.28107   0.16720   0.87739   0.00000  Uiso   1.00
H77    H     0.46785   0.47030   0.89419   0.00000  Uiso   1.00
H78    H     0.43816   0.57875   0.98727   0.00000  Uiso   1.00
H79    H     0.49797   0.48933   0.78426   0.00000  Uiso   1.00
H80    H     0.48626   0.34630   0.91629   0.00000  Uiso   1.00
H81    H     0.37556   0.69353   0.08211   0.00000  Uiso   1.00
H82    H     0.50167   0.50495   0.65403   0.00000  Uiso   1.00
H83    H     0.47698   0.20333   0.93246   0.00000  Uiso   1.00
O84    O     0.25395   0.74607   0.11464   0.00000  Uiso   1.00
O85    O     0.41940   0.49864   0.55302   0.00000  Uiso   1.00
O86    O     0.38701   0.10293   0.91831   0.00000  Uiso   1.00
N87    N     0.22983   0.65102   0.02724   0.00000  Uiso   1.00
N88    N     0.34773   0.47471   0.62702   0.00000  Uiso   1.00
N89    N     0.32466   0.19272   0.88730   0.00000  Uiso   1.00
N90    N     0.33525   0.67046   0.05687   0.00000  Uiso   1.00
N91    N     0.45315   0.49415   0.65665   0.00000  Uiso   1.00
N92    N     0.43008   0.21216   0.91693   0.00000  Uiso   1.00
C93    C     0.90015   0.30119   0.43517   0.00000  Uiso   1.00
C94    C     0.95845   0.34455   0.47077   0.00000  Uiso   1.00
C95    C     0.01885   0.31718   0.48938   0.00000  Uiso   1.00
C96    C     0.06580   0.36566   0.52148   0.00000  Uiso   1.00
C97    C     0.15830   0.42186   0.57481   0.00000  Uiso   1.00
C98    C     0.83940   0.32469   0.47652   0.00000  Uiso   1.00
C99    C     0.79969   0.28061   0.49996   0.00000  Uiso   1.00
C100   C     0.74641   0.31237   0.53689   0.00000  Uiso   1.00
C101   C     0.65405   0.33773   0.59911   0.00000  Uiso   1.00
C102   C     0.88612   0.32667   0.37462   0.00000  Uiso   1.00
C103   C     0.88569   0.28426   0.31238   0.00000  Uiso   1.00
C104   C     0.87174   0.31769   0.26352   0.00000  Uiso   1.00
C105   C     0.85193   0.34612   0.16751   0.00000  Uiso   1.00
C106   C     0.87611   0.43596   0.45908   0.00000  Uiso   1.00
C107   C     0.94539   0.41776   0.48376   0.00000  Uiso   1.00
C108   C     0.99226   0.46629   0.51583   0.00000  Uiso   1.00
C109   C     0.05272   0.43899   0.53449   0.00000  Uiso   1.00
C110   C     0.82634   0.39789   0.48951   0.00000  Uiso   1.00
C111   C     0.77310   0.42973   0.52641   0.00000  Uiso   1.00
C112   C     0.73333   0.38571   0.54990   0.00000  Uiso   1.00
C113   C     0.87307   0.39988   0.38760   0.00000  Uiso   1.00
C114   C     0.85910   0.43338   0.33883   0.00000  Uiso   1.00
C115   C     0.85866   0.39102   0.27653   0.00000  Uiso   1.00
H116   H     0.91031   0.24419   0.42507   0.00000  Uiso   1.00
H117   H     0.02894   0.26052   0.47933   0.00000  Uiso   1.00
H118   H     0.80980   0.22396   0.48990   0.00000  Uiso   1.00
H119   H     0.89580   0.22761   0.30235   0.00000  Uiso   1.00
H120   H     0.15469   0.31091   0.54524   0.00000  Uiso   1.00
H121   H     0.69263   0.23382   0.56750   0.00000  Uiso   1.00
H122   H     0.87395   0.24151   0.17202   0.00000  Uiso   1.00
H123   H     0.86594   0.49296   0.46919   0.00000  Uiso   1.00
H124   H     0.98214   0.52294   0.52588   0.00000  Uiso   1.00
H125   H     0.76301   0.48638   0.53645   0.00000  Uiso   1.00
H126   H     0.84900   0.49003   0.34890   0.00000  Uiso   1.00
H127   H     0.11671   0.52390   0.58302   0.00000  Uiso   1.00
H128   H     0.65464   0.44680   0.60528   0.00000  Uiso   1.00
H129   H     0.83597   0.45450   0.20980   0.00000  Uiso   1.00
O130   O     0.21293   0.43264   0.60064   0.00000  Uiso   1.00
O131   O     0.60671   0.33149   0.62984   0.00000  Uiso   1.00
O132   O     0.84462   0.34158   0.11097   0.00000  Uiso   1.00
N133   N     0.12981   0.35692   0.54634   0.00000  Uiso   1.00
N134   N     0.69781   0.28485   0.56717   0.00000  Uiso   1.00
N135   N     0.86732   0.29204   0.19742   0.00000  Uiso   1.00
N136   N     0.10937   0.47153   0.56667   0.00000  Uiso   1.00
N137   N     0.67738   0.39945   0.58749   0.00000  Uiso   1.00
N138   N     0.84689   0.40664   0.21775   0.00000  Uiso   1.00
C139   C     0.79878   0.80529   0.46212   0.00000  Uiso   1.00
C140   C     0.85309   0.83173   0.51361   0.00000  Uiso   1.00
C141   C     0.89471   0.78946   0.54237   0.00000  Uiso   1.00
C142   C     0.94120   0.82381   0.58843   0.00000  Uiso   1.00
C143   C     0.02484   0.85361   0.66583   0.00000  Uiso   1.00
C144   C     0.81523   0.83445   0.40552   0.00000  Uiso   1.00
C145   C     0.82502   0.79446   0.34340   0.00000  Uiso   1.00
C146   C     0.83963   0.83111   0.29847   0.00000  Uiso   1.00
C147   C     0.86446   0.86513   0.20804   0.00000  Uiso   1.00
C148   C     0.73387   0.84302   0.48823   0.00000  Uiso   1.00
C149   C     0.67523   0.81023   0.49564   0.00000  Uiso   1.00
C150   C     0.62134   0.85409   0.52033   0.00000  Uiso   1.00
C151   C     0.51984   0.90142   0.55833   0.00000  Uiso   1.00
C152   C     0.80732   0.94148   0.49276   0.00000  Uiso   1.00
C153   C     0.85772   0.90570   0.53025   0.00000  Uiso   1.00
C154   C     0.90416   0.94013   0.57628   0.00000  Uiso   1.00
C155   C     0.94584   0.89791   0.60511   0.00000  Uiso   1.00
C156   C     0.81987   0.90842   0.42216   0.00000  Uiso   1.00
C157   C     0.83447   0.94513   0.37731   0.00000  Uiso   1.00
C158   C     0.84428   0.90521   0.31515   0.00000  Uiso   1.00
C159   C     0.73850   0.91699   0.50487   0.00000  Uiso   1.00
C160   C     0.68469   0.96090   0.52955   0.00000  Uiso   1.00
C161   C     0.62598   0.92819   0.53701   0.00000  Uiso   1.00
H162   H     0.79517   0.74771   0.44915   0.00000  Uiso   1.00
H163   H     0.89111   0.73221   0.52947   0.00000  Uiso   1.00
H164   H     0.82142   0.73722   0.33054   0.00000  Uiso   1.00
H165   H     0.67166   0.75299   0.48276   0.00000  Uiso   1.00
H166   H     0.99954   0.74766   0.62585   0.00000  Uiso   1.00
H167   H     0.85258   0.75822   0.20637   0.00000  Uiso   1.00
H168   H     0.53678   0.79147   0.52735   0.00000  Uiso   1.00
H169   H     0.81093   0.99907   0.50572   0.00000  Uiso   1.00
H170   H     0.90774   0.99737   0.58915   0.00000  Uiso   1.00
H171   H     0.83805   0.00237   0.39021   0.00000  Uiso   1.00
H172   H     0.68829   0.01814   0.54243   0.00000  Uiso   1.00
H173   H     0.01304   0.96287   0.67428   0.00000  Uiso   1.00
H174   H     0.86607   0.97343   0.25480   0.00000  Uiso   1.00
H175   H     0.55028   0.00668   0.57578   0.00000  Uiso   1.00
O176   O     0.06971   0.84961   0.70391   0.00000  Uiso   1.00
O177   O     0.87688   0.86346   0.15357   0.00000  Uiso   1.00
O178   O     0.46257   0.90709   0.57469   0.00000  Uiso   1.00
N179   N     0.98942   0.79854   0.62581   0.00000  Uiso   1.00
N180   N     0.85203   0.80841   0.23362   0.00000  Uiso   1.00
N181   N     0.55679   0.83950   0.53370   0.00000  Uiso   1.00
N182   N     0.99669   0.91434   0.65187   0.00000  Uiso   1.00
N183   N     0.85929   0.92422   0.25968   0.00000  Uiso   1.00
N184   N     0.56405   0.95530   0.55976   0.00000  Uiso   1.00
C185   C     0.82041   0.32768   0.93246   0.00000  Uiso   1.00
C186   C     0.83968   0.39631   0.98094   0.00000  Uiso   1.00
C187   C     0.79529   0.44791   0.01356   0.00000  Uiso   1.00
C188   C     0.82287   0.50683   0.05591   0.00000  Uiso   1.00
C189   C     0.84222   0.61231   0.12979   0.00000  Uiso   1.00
C190   C     0.85376   0.26775   0.95713   0.00000  Uiso   1.00
C191   C     0.82122   0.21127   0.96972   0.00000  Uiso   1.00
C192   C     0.86067   0.16196   0.99202   0.00000  Uiso   1.00
C193   C     0.90189   0.06783   0.02889   0.00000  Uiso   1.00
C194   C     0.85544   0.32778   0.87111   0.00000  Uiso   1.00
C195   C     0.82430   0.32176   0.81136   0.00000  Uiso   1.00
C196   C     0.86516   0.32297   0.76122   0.00000  Uiso   1.00
C197   C     0.90898   0.32205   0.66453   0.00000  Uiso   1.00
C198   C     0.94832   0.34053   0.94966   0.00000  Uiso   1.00
C199   C     0.90915   0.40329   0.99029   0.00000  Uiso   1.00
C200   C     0.93681   0.46214   0.03260   0.00000  Uiso   1.00
C201   C     0.89247   0.51382   0.06527   0.00000  Uiso   1.00
C202   C     0.92324   0.27473   0.96648   0.00000  Uiso   1.00
C203   C     0.96274   0.22549   0.98876   0.00000  Uiso   1.00
C204   C     0.93027   0.16895   0.00138   0.00000  Uiso   1.00
C205   C     0.92491   0.33477   0.88045   0.00000  Uiso   1.00
C206   C     0.96582   0.33598   0.83040   0.00000  Uiso   1.00
C207   C     0.93476   0.32996   0.77059   0.00000  Uiso   1.00
H208   H     0.76632   0.32224   0.92519   0.00000  Uiso   1.00
H209   H     0.74153   0.44249   0.00632   0.00000  Uiso   1.00
H210   H     0.76746   0.20588   0.96248   0.00000  Uiso   1.00
H211   H     0.77054   0.31635   0.80415   0.00000  Uiso   1.00
H212   H     0.74468   0.57887   0.10041   0.00000  Uiso   1.00
H213   H     0.79936   0.07996   0.00795   0.00000  Uiso   1.00
H214   H     0.80586   0.31291   0.67407   0.00000  Uiso   1.00
H215   H     0.00241   0.34597   0.95694   0.00000  Uiso   1.00
H216   H     0.99058   0.46752   0.03982   0.00000  Uiso   1.00
H217   H     0.01651   0.23091   0.99598   0.00000  Uiso   1.00
H218   H     0.01959   0.34139   0.83764   0.00000  Uiso   1.00
H219   H     0.94682   0.59919   0.12760   0.00000  Uiso   1.00
H220   H     0.00150   0.10027   0.03514   0.00000  Uiso   1.00
H221   H     0.00800   0.33323   0.70126   0.00000  Uiso   1.00
O222   O     0.83370   0.66855   0.16797   0.00000  Uiso   1.00
O223   O     0.90544   0.01399   0.04665   0.00000  Uiso   1.00
O224   O     0.91396   0.31962   0.60861   0.00000  Uiso   1.00
N225   N     0.79388   0.56698   0.09543   0.00000  Uiso   1.00
N226   N     0.84500   0.10053   0.00899   0.00000  Uiso   1.00
N227   N     0.85107   0.31830   0.69684   0.00000  Uiso   1.00
N228   N     0.90265   0.57791   0.11006   0.00000  Uiso   1.00
N229   N     0.95377   0.11146   0.02362   0.00000  Uiso   1.00
N230   N     0.95984   0.32923   0.71147   0.00000  Uiso   1.00
C231   C     0.49765   0.77630   0.92402   0.00000  Uiso   1.00
C232   C     0.53909   0.83932   0.95971   0.00000  Uiso   1.00
C233   C     0.58078   0.87762   0.93187   0.00000  Uiso   1.00
C234   C     0.61438   0.93344   0.97276   0.00000  Uiso   1.00
C235   C     0.67990   0.02875   0.01809   0.00000  Uiso   1.00
C236   C     0.42529   0.79560   0.94255   0.00000  Uiso   1.00
C237   C     0.37130   0.79712   0.90029   0.00000  Uiso   1.00
C238   C     0.30910   0.81611   0.92673   0.00000  Uiso   1.00
C239   C     0.19794   0.84349   0.94542   0.00000  Uiso   1.00
C240   C     0.51864   0.71526   0.95349   0.00000  Uiso   1.00
C241   C     0.54312   0.64922   0.92041   0.00000  Uiso   1.00
C242   C     0.55950   0.60057   0.95607   0.00000  Uiso   1.00
C243   C     0.59328   0.50321   0.99173   0.00000  Uiso   1.00
C244   C     0.48319   0.80733   0.04614   0.00000  Uiso   1.00
C245   C     0.53124   0.85617   0.02604   0.00000  Uiso   1.00
C246   C     0.56479   0.91194   0.06699   0.00000  Uiso   1.00
C247   C     0.60651   0.95032   0.03921   0.00000  Uiso   1.00
C248   C     0.41744   0.81245   0.00888   0.00000  Uiso   1.00
C249   C     0.35531   0.83144   0.03540   0.00000  Uiso   1.00
C250   C     0.30124   0.83299   0.99319   0.00000  Uiso   1.00
C251   C     0.51079   0.73211   0.01982   0.00000  Uiso   1.00
C252   C     0.52713   0.68355   0.05553   0.00000  Uiso   1.00
C253   C     0.55164   0.61745   0.02252   0.00000  Uiso   1.00
H254   H     0.50375   0.76319   0.87238   0.00000  Uiso   1.00
H255   H     0.58683   0.86457   0.88054   0.00000  Uiso   1.00
H256   H     0.37739   0.78407   0.84896   0.00000  Uiso   1.00
H257   H     0.54919   0.63620   0.86908   0.00000  Uiso   1.00
H258   H     0.67546   0.98442   0.91883   0.00000  Uiso   1.00
H259   H     0.23384   0.81466   0.85224   0.00000  Uiso   1.00
H260   H     0.59610   0.50284   0.89468   0.00000  Uiso   1.00
H261   H     0.47708   0.82045   0.09779   0.00000  Uiso   1.00
H262   H     0.55870   0.92497   0.11832   0.00000  Uiso   1.00
H263   H     0.34925   0.84447   0.08673   0.00000  Uiso   1.00
H264   H     0.52105   0.69661   0.10686   0.00000  Uiso   1.00
H265   H     0.65262   0.03345   0.11182   0.00000  Uiso   1.00
H266   H     0.21099   0.86368   0.04523   0.00000  Uiso   1.00
H267   H     0.57327   0.55187   0.08767   0.00000  Uiso   1.00
O268   O     0.71820   0.07667   0.02476   0.00000  Uiso   1.00
O269   O     0.13880   0.85394   0.93740   0.00000  Uiso   1.00
O270   O     0.61409   0.44486   0.99307   0.00000  Uiso   1.00
N271   N     0.65890   0.98160   0.96144   0.00000  Uiso   1.00
N272   N     0.24600   0.82290   0.89918   0.00000  Uiso   1.00
N273   N     0.58468   0.53137   0.93885   0.00000  Uiso   1.00
N274   N     0.64661   0.00798   0.06528   0.00000  Uiso   1.00
N275   N     0.23371   0.84928   0.00302   0.00000  Uiso   1.00
N276   N     0.57239   0.55775   0.04270   0.00000  Uiso   1.00
C277   C     0.63390   0.09620   0.86129   0.00000  Uiso   1.00
C278   C     0.57388   0.05175   0.83157   0.00000  Uiso   1.00
C279   C     0.52639   0.02676   0.86495   0.00000  Uiso   1.00
C280   C     0.47530   0.98703   0.82899   0.00000  Uiso   1.00
C281   C     0.38261   0.92020   0.79303   0.00000  Uiso   1.00
C282   C     0.62792   0.16344   0.83743   0.00000  Uiso   1.00
C283   C     0.62588   0.23234   0.87575   0.00000  Uiso   1.00
C284   C     0.62029   0.28663   0.84472   0.00000  Uiso   1.00
C285   C     0.61154   0.39320   0.81786   0.00000  Uiso   1.00
C286   C     0.69559   0.05553   0.83041   0.00000  Uiso   1.00
C287   C     0.75045   0.03372   0.86282   0.00000  Uiso   1.00
C288   C     0.80183   0.99717   0.82588   0.00000  Uiso   1.00
C289   C     0.89815   0.93619   0.78812   0.00000  Uiso   1.00
C290   C     0.62762   0.07010   0.73805   0.00000  Uiso   1.00
C291   C     0.57047   0.03758   0.76463   0.00000  Uiso   1.00
C292   C     0.51944   0.99788   0.72860   0.00000  Uiso   1.00
C293   C     0.47188   0.97282   0.76193   0.00000  Uiso   1.00
C294   C     0.62451   0.14926   0.77049   0.00000  Uiso   1.00
C295   C     0.61893   0.20346   0.73940   0.00000  Uiso   1.00
C296   C     0.61687   0.27243   0.77766   0.00000  Uiso   1.00
C297   C     0.69218   0.04135   0.76347   0.00000  Uiso   1.00
C298   C     0.74350   0.00484   0.72647   0.00000  Uiso   1.00
C299   C     0.79842   0.98297   0.75882   0.00000  Uiso   1.00
H300   H     0.63656   0.10725   0.91340   0.00000  Uiso   1.00
H301   H     0.52905   0.03775   0.91676   0.00000  Uiso   1.00
H302   H     0.62852   0.24330   0.92755   0.00000  Uiso   1.00
H303   H     0.75307   0.04470   0.91462   0.00000  Uiso   1.00
H304   H     0.40833   0.95446   0.89096   0.00000  Uiso   1.00
H305   H     0.61811   0.38788   0.91372   0.00000  Uiso   1.00
H306   H     0.88074   0.96911   0.88646   0.00000  Uiso   1.00
H307   H     0.62497   0.05906   0.68593   0.00000  Uiso   1.00
H308   H     0.51682   0.98691   0.67680   0.00000  Uiso   1.00
H309   H     0.61629   0.19247   0.68760   0.00000  Uiso   1.00
H310   H     0.74084   0.99387   0.67467   0.00000  Uiso   1.00
H311   H     0.39840   0.91321   0.69620   0.00000  Uiso   1.00
H312   H     0.60818   0.34663   0.71896   0.00000  Uiso   1.00
H313   H     0.87081   0.92785   0.69170   0.00000  Uiso   1.00
O314   O     0.33242   0.88726   0.79168   0.00000  Uiso   1.00
O315   O     0.60765   0.45589   0.82154   0.00000  Uiso   1.00
O316   O     0.95222   0.90646   0.78578   0.00000  Uiso   1.00
N317   N     0.42084   0.95464   0.84638   0.00000  Uiso   1.00
N318   N     0.61696   0.35987   0.86766   0.00000  Uiso   1.00
N319   N     0.86251   0.96836   0.84217   0.00000  Uiso   1.00
N320   N     0.41550   0.93244   0.74158   0.00000  Uiso   1.00
N321   N     0.61162   0.33767   0.76286   0.00000  Uiso   1.00
N322   N     0.85717   0.94616   0.73737   0.00000  Uiso   1.00
C323   C     0.65965   0.60110   0.30147   0.00000  Uiso   1.00
C324   C     0.64570   0.53643   0.24618   0.00000  Uiso   1.00
C325   C     0.69355   0.49487   0.20793   0.00000  Uiso   1.00
C326   C     0.67063   0.43802   0.15984   0.00000  Uiso   1.00
C327   C     0.65936   0.33983   0.07544   0.00000  Uiso   1.00
C328   C     0.62904   0.58613   0.36006   0.00000  Uiso   1.00
C329   C     0.66288   0.58637   0.41757   0.00000  Uiso   1.00
C330   C     0.62593   0.57137   0.46535   0.00000  Uiso   1.00
C331   C     0.58878   0.55038   0.55777   0.00000  Uiso   1.00
C332   C     0.61801   0.66218   0.28627   0.00000  Uiso   1.00
C333   C     0.64259   0.72638   0.28174   0.00000  Uiso   1.00
C334   C     0.59636   0.77541   0.26741   0.00000  Uiso   1.00
C335   C     0.54210   0.87251   0.24525   0.00000  Uiso   1.00
C336   C     0.53385   0.57404   0.28409   0.00000  Uiso   1.00
C337   C     0.57736   0.52174   0.23674   0.00000  Uiso   1.00
C338   C     0.55436   0.46494   0.18869   0.00000  Uiso   1.00
C339   C     0.60217   0.42330   0.15038   0.00000  Uiso   1.00
C340   C     0.56070   0.57144   0.35062   0.00000  Uiso   1.00
C341   C     0.52369   0.55643   0.39833   0.00000  Uiso   1.00
C342   C     0.55748   0.55664   0.45589   0.00000  Uiso   1.00
C343   C     0.54968   0.64749   0.27682   0.00000  Uiso   1.00
C344   C     0.50340   0.69644   0.26250   0.00000  Uiso   1.00
C345   C     0.52790   0.76069   0.25795   0.00000  Uiso   1.00
H346   H     0.71285   0.61254   0.30883   0.00000  Uiso   1.00
H347   H     0.74643   0.50626   0.21526   0.00000  Uiso   1.00
H348   H     0.71576   0.59775   0.42486   0.00000  Uiso   1.00
H349   H     0.69547   0.73773   0.28906   0.00000  Uiso   1.00
H350   H     0.75352   0.38193   0.10737   0.00000  Uiso   1.00
H351   H     0.68886   0.57487   0.54934   0.00000  Uiso   1.00
H352   H     0.64607   0.87005   0.26296   0.00000  Uiso   1.00
H353   H     0.48064   0.56260   0.27673   0.00000  Uiso   1.00
H354   H     0.50148   0.45358   0.18140   0.00000  Uiso   1.00
H355   H     0.47081   0.54507   0.39100   0.00000  Uiso   1.00
H356   H     0.45052   0.68505   0.25519   0.00000  Uiso   1.00
H357   H     0.55471   0.33917   0.07989   0.00000  Uiso   1.00
H358   H     0.49005   0.53211   0.52186   0.00000  Uiso   1.00
H359   H     0.44726   0.82729   0.23548   0.00000  Uiso   1.00
O360   O     0.67201   0.28972   0.03151   0.00000  Uiso   1.00
O361   O     0.58718   0.54286   0.61135   0.00000  Uiso   1.00
O362   O     0.53104   0.93012   0.23563   0.00000  Uiso   1.00
N363   N     0.70387   0.38684   0.11398   0.00000  Uiso   1.00
N364   N     0.64342   0.56721   0.52719   0.00000  Uiso   1.00
N365   N     0.60341   0.84319   0.25947   0.00000  Uiso   1.00
N366   N     0.59689   0.36383   0.09919   0.00000  Uiso   1.00
N367   N     0.53644   0.54420   0.51240   0.00000  Uiso   1.00
N368   N     0.49644   0.82018   0.24468   0.00000  Uiso   1.00
C369   C     0.05214   0.71359   0.79827   0.00000  Uiso   1.00
C370   C     0.00010   0.67757   0.74788   0.00000  Uiso   1.00
C371   C     0.94409   0.71050   0.72685   0.00000  Uiso   1.00
C372   C     0.90258   0.66833   0.68042   0.00000  Uiso   1.00
C373   C     0.81966   0.62343   0.60588   0.00000  Uiso   1.00
C374   C     0.11957   0.69918   0.76624   0.00000  Uiso   1.00
C375   C     0.16400   0.75027   0.76065   0.00000  Uiso   1.00
C376   C     0.22306   0.72629   0.72968   0.00000  Uiso   1.00
C377   C     0.32563   0.71494   0.68369   0.00000  Uiso   1.00
C378   C     0.05451   0.67258   0.84980   0.00000  Uiso   1.00
C379   C     0.04425   0.70130   0.91448   0.00000  Uiso   1.00
C380   C     0.04856   0.65492   0.95387   0.00000  Uiso   1.00
C381   C     0.05011   0.60226   0.03762   0.00000  Uiso   1.00
C382   C     0.07804   0.58015   0.75320   0.00000  Uiso   1.00
C383   C     0.01418   0.60510   0.72340   0.00000  Uiso   1.00
C384   C     0.97275   0.56286   0.67699   0.00000  Uiso   1.00
C385   C     0.91668   0.59572   0.65590   0.00000  Uiso   1.00
C386   C     0.13364   0.62671   0.74176   0.00000  Uiso   1.00
C387   C     0.19265   0.60264   0.71079   0.00000  Uiso   1.00
C388   C     0.23716   0.65368   0.70516   0.00000  Uiso   1.00
C389   C     0.06858   0.60010   0.82532   0.00000  Uiso   1.00
C390   C     0.07291   0.55367   0.86462   0.00000  Uiso   1.00
C391   C     0.06266   0.58231   0.92935   0.00000  Uiso   1.00
H392   H     0.04119   0.77002   0.81732   0.00000  Uiso   1.00
H393   H     0.93322   0.76659   0.74580   0.00000  Uiso   1.00
H394   H     0.15310   0.80635   0.77961   0.00000  Uiso   1.00
H395   H     0.03337   0.75739   0.93341   0.00000  Uiso   1.00
H396   H     0.81973   0.73083   0.65570   0.00000  Uiso   1.00
H397   H     0.28336   0.81468   0.72699   0.00000  Uiso   1.00
H398   H     0.03089   0.71143   0.05131   0.00000  Uiso   1.00
H399   H     0.08900   0.52373   0.73414   0.00000  Uiso   1.00
H400   H     0.98365   0.50678   0.65806   0.00000  Uiso   1.00
H401   H     0.20353   0.54655   0.69186   0.00000  Uiso   1.00
H402   H     0.08380   0.49758   0.84566   0.00000  Uiso   1.00
H403   H     0.86066   0.51996   0.58448   0.00000  Uiso   1.00
H404   H     0.32430   0.60382   0.65578   0.00000  Uiso   1.00
H405   H     0.07182   0.50056   0.98009   0.00000  Uiso   1.00
O406   O     0.77004   0.61870   0.57152   0.00000  Uiso   1.00
O407   O     0.37832   0.72871   0.66507   0.00000  Uiso   1.00
O408   O     0.04708   0.59324   0.09057   0.00000  Uiso   1.00
N409   N     0.84381   0.68352   0.64939   0.00000  Uiso   1.00
N410   N     0.27728   0.76192   0.71603   0.00000  Uiso   1.00
N411   N     0.04126   0.66539   0.01925   0.00000  Uiso   1.00
N412   N     0.86584   0.57006   0.61106   0.00000  Uiso   1.00
N413   N     0.29930   0.64846   0.67771   0.00000  Uiso   1.00
N414   N     0.06328   0.55192   0.98093   0.00000  Uiso   1.00
C415   C     0.17151   0.16574   0.72233   0.00000  Uiso   1.00
C416   C     0.11772   0.14198   0.66970   0.00000  Uiso   1.00
C417   C     0.07394   0.18641   0.64556   0.00000  Uiso   1.00
C418   C     0.02838   0.15433   0.59749   0.00000  Uiso   1.00
C419   C     0.94509   0.12867   0.51929   0.00000  Uiso   1.00
C420   C     0.15721   0.12853   0.77435   0.00000  Uiso   1.00
C421   C     0.14664   0.16165   0.83820   0.00000  Uiso   1.00
C422   C     0.13433   0.11824   0.87822   0.00000  Uiso   1.00
C423   C     0.11240   0.07169   0.96250   0.00000  Uiso   1.00
C424   C     0.23750   0.13353   0.69386   0.00000  Uiso   1.00
C425   C     0.29444   0.17085   0.69006   0.00000  Uiso   1.00
C426   C     0.34973   0.13165   0.66233   0.00000  Uiso   1.00
C427   C     0.45246   0.09286   0.62165   0.00000  Uiso   1.00
C428   C     0.16846   0.02975   0.67988   0.00000  Uiso   1.00
C429   C     0.11607   0.06811   0.64664   0.00000  Uiso   1.00
C430   C     0.07057   0.03595   0.59859   0.00000  Uiso   1.00
C431   C     0.02672   0.08033   0.57439   0.00000  Uiso   1.00
C432   C     0.15556   0.05466   0.75129   0.00000  Uiso   1.00
C433   C     0.14327   0.01119   0.79123   0.00000  Uiso   1.00
C434   C     0.13267   0.04424   0.85512   0.00000  Uiso   1.00
C435   C     0.23585   0.05966   0.67081   0.00000  Uiso   1.00
C436   C     0.29107   0.02039   0.64309   0.00000  Uiso   1.00
C437   C     0.34808   0.05765   0.63923   0.00000  Uiso   1.00
H438   H     0.17279   0.22325   0.74029   0.00000  Uiso   1.00
H439   H     0.07523   0.24357   0.66342   0.00000  Uiso   1.00
H440   H     0.14792   0.21881   0.85603   0.00000  Uiso   1.00
H441   H     0.29570   0.22801   0.70791   0.00000  Uiso   1.00
H442   H     0.96631   0.23353   0.56805   0.00000  Uiso   1.00
H443   H     0.11962   0.18133   0.97417   0.00000  Uiso   1.00
H444   H     0.43123   0.20072   0.66183   0.00000  Uiso   1.00
H445   H     0.16718   0.97224   0.66193   0.00000  Uiso   1.00
H446   H     0.06930   0.97879   0.58076   0.00000  Uiso   1.00
H447   H     0.14200   0.95403   0.77337   0.00000  Uiso   1.00
H448   H     0.28977   0.96323   0.62525   0.00000  Uiso   1.00
H449   H     0.96150   0.01863   0.50096   0.00000  Uiso   1.00
H450   H     0.11481   0.96642   0.90709   0.00000  Uiso   1.00
H451   H     0.42642   0.98581   0.59474   0.00000  Uiso   1.00
O452   O     0.89961   0.13492   0.48254   0.00000  Uiso   1.00
O453   O     0.10075   0.06642   0.01536   0.00000  Uiso   1.00
O454   O     0.50958   0.09187   0.60557   0.00000  Uiso   1.00
N455   N     0.97862   0.18206   0.56339   0.00000  Uiso   1.00
N456   N     0.12194   0.13325   0.94309   0.00000  Uiso   1.00
N457   N     0.41328   0.15138   0.65109   0.00000  Uiso   1.00
N458   N     0.97603   0.06642   0.52729   0.00000  Uiso   1.00
N459   N     0.11935   0.01761   0.90699   0.00000  Uiso   1.00
N460   N     0.41069   0.03574   0.61499   0.00000  Uiso   1.00
C461   C     0.14406   0.61229   0.26462   0.00000  Uiso   1.00
C462   C     0.12174   0.54166   0.22124   0.00000  Uiso   1.00
C463   C     0.16387   0.48635   0.19088   0.00000  Uiso   1.00
C464   C     0.13367   0.42613   0.15320   0.00000  Uiso   1.00
C465   C     0.10964   0.31718   0.08689   0.00000  Uiso   1.00
C466   C     0.11189   0.66959   0.23561   0.00000  Uiso   1.00
C467   C     0.14575   0.72185   0.21733   0.00000  Uiso   1.00
C468   C     0.10725   0.76932   0.19175   0.00000  Uiso   1.00
C469   C     0.06793   0.85902   0.14778   0.00000  Uiso   1.00
C470   C     0.11043   0.61973   0.32816   0.00000  Uiso   1.00
C471   C     0.14306   0.63009   0.38771   0.00000  Uiso   1.00
C472   C     0.10333   0.63561   0.44007   0.00000  Uiso   1.00
C473   C     0.06174   0.64789   0.53980   0.00000  Uiso   1.00
C474   C     0.01549   0.60369   0.25171   0.00000  Uiso   1.00
C475   C     0.05191   0.53699   0.21423   0.00000  Uiso   1.00
C476   C     0.02163   0.47683   0.17660   0.00000  Uiso   1.00
C477   C     0.06372   0.42145   0.14618   0.00000  Uiso   1.00
C478   C     0.04206   0.66492   0.22860   0.00000  Uiso   1.00
C479   C     0.00351   0.71233   0.20305   0.00000  Uiso   1.00
C480   C     0.03729   0.76464   0.18473   0.00000  Uiso   1.00
C481   C     0.04060   0.61506   0.32115   0.00000  Uiso   1.00
C482   C     0.00082   0.62057   0.37343   0.00000  Uiso   1.00
C483   C     0.03337   0.63093   0.43304   0.00000  Uiso   1.00
H484   H     0.19842   0.61593   0.27008   0.00000  Uiso   1.00
H485   H     0.21791   0.48999   0.19631   0.00000  Uiso   1.00
H486   H     0.19978   0.72546   0.22277   0.00000  Uiso   1.00
H487   H     0.19709   0.63371   0.39312   0.00000  Uiso   1.00
H488   H     0.20873   0.34831   0.11142   0.00000  Uiso   1.00
H489   H     0.17050   0.84482   0.16722   0.00000  Uiso   1.00
H490   H     0.16483   0.65135   0.52644   0.00000  Uiso   1.00
H491   H     0.96113   0.60005   0.24626   0.00000  Uiso   1.00
H492   H     0.96760   0.47323   0.17118   0.00000  Uiso   1.00
H493   H     0.94947   0.70870   0.19763   0.00000  Uiso   1.00
H494   H     0.94678   0.61695   0.36798   0.00000  Uiso   1.00
H495   H     0.00556   0.33471   0.09102   0.00000  Uiso   1.00
H496   H     0.96734   0.83122   0.14682   0.00000  Uiso   1.00
H497   H     0.96167   0.63774   0.50604   0.00000  Uiso   1.00
O498   O     0.11568   0.25838   0.05224   0.00000  Uiso   1.00
O499   O     0.06553   0.90978   0.12546   0.00000  Uiso   1.00
O500   O     0.05810   0.65595   0.59675   0.00000  Uiso   1.00
N501   N     0.16002   0.36251   0.11693   0.00000  Uiso   1.00
N502   N     0.12429   0.82670   0.16909   0.00000  Uiso   1.00
N503   N     0.11899   0.64585   0.50493   0.00000  Uiso   1.00
N504   N     0.05070   0.35519   0.10595   0.00000  Uiso   1.00
N505   N     0.01497   0.81938   0.15811   0.00000  Uiso   1.00
N506   N     0.00966   0.63853   0.49396   0.00000  Uiso   1.00
C507   C     0.44698   0.23799   0.22755   0.00000  Uiso   1.00
C508   C     0.40522   0.17523   0.19187   0.00000  Uiso   1.00
C509   C     0.36439   0.13623   0.21983   0.00000  Uiso   1.00
C510   C     0.33032   0.08080   0.17893   0.00000  Uiso   1.00
C511   C     0.26450   0.98572   0.13365   0.00000  Uiso   1.00
C512   C     0.51899   0.21911   0.20761   0.00000  Uiso   1.00
C513   C     0.57382   0.21702   0.24881   0.00000  Uiso   1.00
C514   C     0.63552   0.19854   0.22115   0.00000  Uiso   1.00
C515   C     0.74634   0.17163   0.20030   0.00000  Uiso   1.00
C516   C     0.42502   0.29970   0.19931   0.00000  Uiso   1.00
C517   C     0.40085   0.36538   0.23353   0.00000  Uiso   1.00
C518   C     0.38345   0.41475   0.19889   0.00000  Uiso   1.00
C519   C     0.34837   0.51297   0.16515   0.00000  Uiso   1.00
C520   C     0.45907   0.20889   0.10518   0.00000  Uiso   1.00
C521   C     0.41179   0.15942   0.12540   0.00000  Uiso   1.00
C522   C     0.37776   0.10403   0.08445   0.00000  Uiso   1.00
C523   C     0.33689   0.06496   0.11235   0.00000  Uiso   1.00
C524   C     0.52556   0.20330   0.14114   0.00000  Uiso   1.00
C525   C     0.58719   0.18482   0.11342   0.00000  Uiso   1.00
C526   C     0.64209   0.18270   0.15456   0.00000  Uiso   1.00
C527   C     0.43158   0.28389   0.13284   0.00000  Uiso   1.00
C528   C     0.41422   0.33317   0.09814   0.00000  Uiso   1.00
C529   C     0.39003   0.39891   0.13230   0.00000  Uiso   1.00
H530   H     0.44187   0.25030   0.27929   0.00000  Uiso   1.00
H531   H     0.35933   0.14848   0.27127   0.00000  Uiso   1.00
H532   H     0.56872   0.22926   0.30024   0.00000  Uiso   1.00
H533   H     0.39578   0.37759   0.28496   0.00000  Uiso   1.00
H534   H     0.27072   0.02860   0.23307   0.00000  Uiso   1.00
H535   H     0.71225   0.19896   0.29415   0.00000  Uiso   1.00
H536   H     0.34757   0.51174   0.26194   0.00000  Uiso   1.00
H537   H     0.46418   0.19658   0.05343   0.00000  Uiso   1.00
H538   H     0.38286   0.09181   0.03301   0.00000  Uiso   1.00
H539   H     0.59225   0.17259   0.06198   0.00000  Uiso   1.00
H540   H     0.41931   0.32092   0.04670   0.00000  Uiso   1.00
H541   H     0.28982   0.98260   0.03969   0.00000  Uiso   1.00
H542   H     0.73135   0.15297   0.10077   0.00000  Uiso   1.00
H543   H     0.36667   0.46574   0.06856   0.00000  Uiso   1.00
O544   O     0.22639   0.93763   0.12703   0.00000  Uiso   1.00
O545   O     0.80565   0.16116   0.20716   0.00000  Uiso   1.00
O546   O     0.32720   0.57151   0.16490   0.00000  Uiso   1.00
N547   N     0.28637   0.03216   0.19036   0.00000  Uiso   1.00
N548   N     0.69917   0.19143   0.24746   0.00000  Uiso   1.00
N549   N     0.35824   0.48386   0.21735   0.00000  Uiso   1.00
N550   N     0.29665   0.00741   0.08630   0.00000  Uiso   1.00
N551   N     0.70944   0.16668   0.14341   0.00000  Uiso   1.00
N552   N     0.36851   0.45911   0.11330   0.00000  Uiso   1.00
