data_job_01855
_audit_creation_date              2018-12-19
_audit_creation_method            'Materials Studio'
_symmetry_space_group_name_H-M    'P1'
_symmetry_Int_Tables_number       1
_symmetry_cell_setting            triclinic
loop_
_symmetry_equiv_pos_as_xyz
  x,y,z
_cell_length_a                    20.4391
_cell_length_b                    20.4391
_cell_length_c                    12.9780
_cell_angle_alpha                 90.0000
_cell_angle_beta                  90.0000
_cell_angle_gamma                 90.0000
loop_
_atom_site_label
_atom_site_type_symbol
_atom_site_fract_x
_atom_site_fract_y
_atom_site_fract_z
_atom_site_U_iso_or_equiv
_atom_site_adp_type
_atom_site_occupancy
C1     C     0.82699   0.95671   0.98699   0.00000  Uiso   1.00
C2     C     0.83911   0.98660   0.09294   0.00000  Uiso   1.00
C3     C     0.89860   0.01004   0.12892   0.00000  Uiso   1.00
C4     C     0.89956   0.03552   0.22808   0.00000  Uiso   1.00
C5     C     0.92699   0.08162   0.38334   0.00000  Uiso   1.00
C6     C     0.79824   0.88899   0.00655   0.00000  Uiso   1.00
C7     C     0.82336   0.83036   0.96988   0.00000  Uiso   1.00
C8     C     0.78991   0.77367   0.99631   0.00000  Uiso   1.00
C9     C     0.75385   0.66822   0.01739   0.00000  Uiso   1.00
C10    C     0.77231   0.99696   0.93832   0.00000  Uiso   1.00
C11    C     0.77562   0.02910   0.84427   0.00000  Uiso   1.00
C12    C     0.72033   0.06330   0.81323   0.00000  Uiso   1.00
C13    C     0.64400   0.12550   0.72838   0.00000  Uiso   1.00
C14    C     0.72292   0.96027   0.09911   0.00000  Uiso   1.00
C15    C     0.78258   0.98854   0.15384   0.00000  Uiso   1.00
C16    C     0.78345   0.01399   0.25297   0.00000  Uiso   1.00
C17    C     0.84293   0.03747   0.28908   0.00000  Uiso   1.00
C18    C     0.74171   0.89092   0.06745   0.00000  Uiso   1.00
C19    C     0.70821   0.83431   0.09393   0.00000  Uiso   1.00
C20    C     0.73328   0.77561   0.05732   0.00000  Uiso   1.00
C21    C     0.71578   0.99890   0.99922   0.00000  Uiso   1.00
C22    C     0.66047   0.03305   0.96832   0.00000  Uiso   1.00
C23    C     0.66369   0.06524   0.87424   0.00000  Uiso   1.00
H24    H     0.87100   0.95519   0.93958   0.00000  Uiso   1.00
H25    H     0.94234   0.00853   0.08177   0.00000  Uiso   1.00
H26    H     0.86710   0.82888   0.92275   0.00000  Uiso   1.00
H27    H     0.81937   0.02759   0.79716   0.00000  Uiso   1.00
H28    H     0.99650   0.06850   0.26628   0.00000  Uiso   1.00
H29    H     0.83786   0.68969   0.93095   0.00000  Uiso   1.00
H30    H     0.73720   0.10871   0.66612   0.00000  Uiso   1.00
H31    H     0.67890   0.96178   0.14652   0.00000  Uiso   1.00
H32    H     0.73970   0.01548   0.30008   0.00000  Uiso   1.00
H33    H     0.66447   0.83583   0.14105   0.00000  Uiso   1.00
H34    H     0.61673   0.03454   0.01547   0.00000  Uiso   1.00
H35    H     0.83203   0.07414   0.44347   0.00000  Uiso   1.00
H36    H     0.67339   0.69533   0.10814   0.00000  Uiso   1.00
H37    H     0.57273   0.11435   0.84331   0.00000  Uiso   1.00
O38    O     0.95773   0.10651   0.45217   0.00000  Uiso   1.00
O39    O     0.74959   0.60952   0.01221   0.00000  Uiso   1.00
O40    O     0.61753   0.15928   0.66476   0.00000  Uiso   1.00
N41    N     0.94945   0.06247   0.28690   0.00000  Uiso   1.00
N42    N     0.80113   0.70830   0.97340   0.00000  Uiso   1.00
N43    N     0.70701   0.10004   0.72579   0.00000  Uiso   1.00
N44    N     0.86095   0.06550   0.38225   0.00000  Uiso   1.00
N45    N     0.71263   0.71134   0.06875   0.00000  Uiso   1.00
N46    N     0.61852   0.10308   0.82114   0.00000  Uiso   1.00
C47    C     0.17301   0.04329   0.98699   0.00000  Uiso   1.00
C48    C     0.16089   0.01340   0.09294   0.00000  Uiso   1.00
C49    C     0.10140   0.98996   0.12892   0.00000  Uiso   1.00
C50    C     0.10044   0.96448   0.22808   0.00000  Uiso   1.00
C51    C     0.07301   0.91838   0.38334   0.00000  Uiso   1.00
C52    C     0.20176   0.11101   0.00655   0.00000  Uiso   1.00
C53    C     0.17664   0.16964   0.96988   0.00000  Uiso   1.00
C54    C     0.21009   0.22633   0.99631   0.00000  Uiso   1.00
C55    C     0.24615   0.33178   0.01739   0.00000  Uiso   1.00
C56    C     0.22769   0.00304   0.93832   0.00000  Uiso   1.00
C57    C     0.22438   0.97090   0.84427   0.00000  Uiso   1.00
C58    C     0.27967   0.93670   0.81323   0.00000  Uiso   1.00
C59    C     0.35600   0.87450   0.72838   0.00000  Uiso   1.00
C60    C     0.27708   0.03973   0.09911   0.00000  Uiso   1.00
C61    C     0.21742   0.01146   0.15384   0.00000  Uiso   1.00
C62    C     0.21655   0.98601   0.25297   0.00000  Uiso   1.00
C63    C     0.15707   0.96253   0.28908   0.00000  Uiso   1.00
C64    C     0.25829   0.10908   0.06745   0.00000  Uiso   1.00
C65    C     0.29179   0.16569   0.09393   0.00000  Uiso   1.00
C66    C     0.26672   0.22439   0.05732   0.00000  Uiso   1.00
C67    C     0.28422   0.00110   0.99922   0.00000  Uiso   1.00
C68    C     0.33953   0.96695   0.96832   0.00000  Uiso   1.00
C69    C     0.33631   0.93476   0.87424   0.00000  Uiso   1.00
H70    H     0.12900   0.04481   0.93958   0.00000  Uiso   1.00
H71    H     0.05766   0.99147   0.08177   0.00000  Uiso   1.00
H72    H     0.13290   0.17112   0.92275   0.00000  Uiso   1.00
H73    H     0.18063   0.97241   0.79716   0.00000  Uiso   1.00
H74    H     0.00350   0.93150   0.26628   0.00000  Uiso   1.00
H75    H     0.16214   0.31031   0.93095   0.00000  Uiso   1.00
H76    H     0.26280   0.89129   0.66612   0.00000  Uiso   1.00
H77    H     0.32110   0.03822   0.14652   0.00000  Uiso   1.00
H78    H     0.26030   0.98452   0.30008   0.00000  Uiso   1.00
H79    H     0.33553   0.16417   0.14105   0.00000  Uiso   1.00
H80    H     0.38327   0.96546   0.01547   0.00000  Uiso   1.00
H81    H     0.16797   0.92586   0.44347   0.00000  Uiso   1.00
H82    H     0.32661   0.30467   0.10814   0.00000  Uiso   1.00
H83    H     0.42727   0.88565   0.84331   0.00000  Uiso   1.00
O84    O     0.04227   0.89349   0.45217   0.00000  Uiso   1.00
O85    O     0.25041   0.39048   0.01221   0.00000  Uiso   1.00
O86    O     0.38247   0.84072   0.66476   0.00000  Uiso   1.00
N87    N     0.05055   0.93753   0.28690   0.00000  Uiso   1.00
N88    N     0.19887   0.29170   0.97340   0.00000  Uiso   1.00
N89    N     0.29299   0.89996   0.72579   0.00000  Uiso   1.00
N90    N     0.13905   0.93450   0.38225   0.00000  Uiso   1.00
N91    N     0.28737   0.28866   0.06875   0.00000  Uiso   1.00
N92    N     0.38148   0.89692   0.82114   0.00000  Uiso   1.00
C93    C     0.95671   0.17301   0.01301   0.00000  Uiso   1.00
C94    C     0.98660   0.16089   0.90706   0.00000  Uiso   1.00
C95    C     0.01004   0.10140   0.87108   0.00000  Uiso   1.00
C96    C     0.03552   0.10044   0.77192   0.00000  Uiso   1.00
C97    C     0.08162   0.07301   0.61666   0.00000  Uiso   1.00
C98    C     0.88899   0.20176   0.99345   0.00000  Uiso   1.00
C99    C     0.83036   0.17664   0.03012   0.00000  Uiso   1.00
C100   C     0.77367   0.21009   0.00369   0.00000  Uiso   1.00
C101   C     0.66822   0.24615   0.98261   0.00000  Uiso   1.00
C102   C     0.99696   0.22769   0.06168   0.00000  Uiso   1.00
C103   C     0.02910   0.22438   0.15573   0.00000  Uiso   1.00
C104   C     0.06330   0.27967   0.18677   0.00000  Uiso   1.00
C105   C     0.12550   0.35600   0.27162   0.00000  Uiso   1.00
C106   C     0.96027   0.27708   0.90089   0.00000  Uiso   1.00
C107   C     0.98854   0.21742   0.84616   0.00000  Uiso   1.00
C108   C     0.01399   0.21655   0.74703   0.00000  Uiso   1.00
C109   C     0.03747   0.15707   0.71092   0.00000  Uiso   1.00
C110   C     0.89092   0.25829   0.93255   0.00000  Uiso   1.00
C111   C     0.83431   0.29179   0.90607   0.00000  Uiso   1.00
C112   C     0.77561   0.26672   0.94268   0.00000  Uiso   1.00
C113   C     0.99890   0.28422   0.00078   0.00000  Uiso   1.00
C114   C     0.03305   0.33953   0.03168   0.00000  Uiso   1.00
C115   C     0.06524   0.33631   0.12576   0.00000  Uiso   1.00
H116   H     0.95519   0.12900   0.06042   0.00000  Uiso   1.00
H117   H     0.00853   0.05766   0.91823   0.00000  Uiso   1.00
H118   H     0.82888   0.13290   0.07725   0.00000  Uiso   1.00
H119   H     0.02759   0.18063   0.20284   0.00000  Uiso   1.00
H120   H     0.06850   0.00350   0.73372   0.00000  Uiso   1.00
H121   H     0.68969   0.16214   0.06905   0.00000  Uiso   1.00
H122   H     0.10871   0.26280   0.33388   0.00000  Uiso   1.00
H123   H     0.96178   0.32110   0.85348   0.00000  Uiso   1.00
H124   H     0.01548   0.26030   0.69992   0.00000  Uiso   1.00
H125   H     0.83583   0.33553   0.85895   0.00000  Uiso   1.00
H126   H     0.03454   0.38327   0.98453   0.00000  Uiso   1.00
H127   H     0.07414   0.16797   0.55653   0.00000  Uiso   1.00
H128   H     0.69533   0.32661   0.89186   0.00000  Uiso   1.00
H129   H     0.11435   0.42727   0.15669   0.00000  Uiso   1.00
O130   O     0.10651   0.04227   0.54783   0.00000  Uiso   1.00
O131   O     0.60952   0.25041   0.98779   0.00000  Uiso   1.00
O132   O     0.15928   0.38247   0.33524   0.00000  Uiso   1.00
N133   N     0.06247   0.05055   0.71310   0.00000  Uiso   1.00
N134   N     0.70830   0.19887   0.02660   0.00000  Uiso   1.00
N135   N     0.10004   0.29299   0.27421   0.00000  Uiso   1.00
N136   N     0.06550   0.13905   0.61775   0.00000  Uiso   1.00
N137   N     0.71134   0.28737   0.93125   0.00000  Uiso   1.00
N138   N     0.10308   0.38148   0.17886   0.00000  Uiso   1.00
C139   C     0.04329   0.82699   0.01301   0.00000  Uiso   1.00
C140   C     0.01340   0.83911   0.90706   0.00000  Uiso   1.00
C141   C     0.98996   0.89860   0.87108   0.00000  Uiso   1.00
C142   C     0.96448   0.89956   0.77192   0.00000  Uiso   1.00
C143   C     0.91838   0.92699   0.61666   0.00000  Uiso   1.00
C144   C     0.11101   0.79824   0.99345   0.00000  Uiso   1.00
C145   C     0.16964   0.82336   0.03012   0.00000  Uiso   1.00
C146   C     0.22633   0.78991   0.00369   0.00000  Uiso   1.00
C147   C     0.33178   0.75385   0.98261   0.00000  Uiso   1.00
C148   C     0.00304   0.77231   0.06168   0.00000  Uiso   1.00
C149   C     0.97090   0.77562   0.15573   0.00000  Uiso   1.00
C150   C     0.93670   0.72033   0.18677   0.00000  Uiso   1.00
C151   C     0.87450   0.64400   0.27162   0.00000  Uiso   1.00
C152   C     0.03973   0.72292   0.90089   0.00000  Uiso   1.00
C153   C     0.01146   0.78258   0.84616   0.00000  Uiso   1.00
C154   C     0.98601   0.78345   0.74703   0.00000  Uiso   1.00
C155   C     0.96253   0.84293   0.71092   0.00000  Uiso   1.00
C156   C     0.10908   0.74171   0.93255   0.00000  Uiso   1.00
C157   C     0.16569   0.70821   0.90607   0.00000  Uiso   1.00
C158   C     0.22439   0.73328   0.94268   0.00000  Uiso   1.00
C159   C     0.00110   0.71578   0.00078   0.00000  Uiso   1.00
C160   C     0.96695   0.66047   0.03168   0.00000  Uiso   1.00
C161   C     0.93476   0.66369   0.12576   0.00000  Uiso   1.00
H162   H     0.04481   0.87100   0.06042   0.00000  Uiso   1.00
H163   H     0.99147   0.94234   0.91823   0.00000  Uiso   1.00
H164   H     0.17112   0.86710   0.07725   0.00000  Uiso   1.00
H165   H     0.97241   0.81937   0.20284   0.00000  Uiso   1.00
H166   H     0.93150   0.99650   0.73372   0.00000  Uiso   1.00
H167   H     0.31031   0.83786   0.06905   0.00000  Uiso   1.00
H168   H     0.89129   0.73720   0.33388   0.00000  Uiso   1.00
H169   H     0.03822   0.67890   0.85348   0.00000  Uiso   1.00
H170   H     0.98452   0.73970   0.69992   0.00000  Uiso   1.00
H171   H     0.16417   0.66447   0.85895   0.00000  Uiso   1.00
H172   H     0.96546   0.61673   0.98453   0.00000  Uiso   1.00
H173   H     0.92586   0.83203   0.55653   0.00000  Uiso   1.00
H174   H     0.30467   0.67339   0.89186   0.00000  Uiso   1.00
H175   H     0.88565   0.57273   0.15669   0.00000  Uiso   1.00
O176   O     0.89349   0.95773   0.54783   0.00000  Uiso   1.00
O177   O     0.39048   0.74959   0.98779   0.00000  Uiso   1.00
O178   O     0.84072   0.61753   0.33524   0.00000  Uiso   1.00
N179   N     0.93753   0.94945   0.71310   0.00000  Uiso   1.00
N180   N     0.29170   0.80113   0.02660   0.00000  Uiso   1.00
N181   N     0.89996   0.70701   0.27421   0.00000  Uiso   1.00
N182   N     0.93450   0.86095   0.61775   0.00000  Uiso   1.00
N183   N     0.28866   0.71263   0.93125   0.00000  Uiso   1.00
N184   N     0.89692   0.61852   0.17886   0.00000  Uiso   1.00
C185   C     0.67301   0.45671   0.51301   0.00000  Uiso   1.00
C186   C     0.66089   0.48660   0.40706   0.00000  Uiso   1.00
C187   C     0.60140   0.51004   0.37108   0.00000  Uiso   1.00
C188   C     0.60044   0.53552   0.27192   0.00000  Uiso   1.00
C189   C     0.57301   0.58162   0.11666   0.00000  Uiso   1.00
C190   C     0.70176   0.38899   0.49345   0.00000  Uiso   1.00
C191   C     0.67664   0.33036   0.53012   0.00000  Uiso   1.00
C192   C     0.71009   0.27367   0.50369   0.00000  Uiso   1.00
C193   C     0.74615   0.16822   0.48261   0.00000  Uiso   1.00
C194   C     0.72769   0.49696   0.56168   0.00000  Uiso   1.00
C195   C     0.72438   0.52910   0.65573   0.00000  Uiso   1.00
C196   C     0.77967   0.56330   0.68677   0.00000  Uiso   1.00
C197   C     0.85600   0.62550   0.77162   0.00000  Uiso   1.00
C198   C     0.77708   0.46027   0.40089   0.00000  Uiso   1.00
C199   C     0.71742   0.48854   0.34616   0.00000  Uiso   1.00
C200   C     0.71655   0.51399   0.24703   0.00000  Uiso   1.00
C201   C     0.65707   0.53747   0.21092   0.00000  Uiso   1.00
C202   C     0.75829   0.39092   0.43255   0.00000  Uiso   1.00
C203   C     0.79179   0.33431   0.40607   0.00000  Uiso   1.00
C204   C     0.76672   0.27561   0.44268   0.00000  Uiso   1.00
C205   C     0.78422   0.49890   0.50078   0.00000  Uiso   1.00
C206   C     0.83953   0.53305   0.53168   0.00000  Uiso   1.00
C207   C     0.83631   0.56524   0.62576   0.00000  Uiso   1.00
H208   H     0.62900   0.45519   0.56042   0.00000  Uiso   1.00
H209   H     0.55766   0.50853   0.41823   0.00000  Uiso   1.00
H210   H     0.63290   0.32888   0.57725   0.00000  Uiso   1.00
H211   H     0.68063   0.52759   0.70284   0.00000  Uiso   1.00
H212   H     0.50350   0.56850   0.23372   0.00000  Uiso   1.00
H213   H     0.66214   0.18969   0.56905   0.00000  Uiso   1.00
H214   H     0.76280   0.60871   0.83388   0.00000  Uiso   1.00
H215   H     0.82110   0.46178   0.35348   0.00000  Uiso   1.00
H216   H     0.76030   0.51548   0.19992   0.00000  Uiso   1.00
H217   H     0.83553   0.33583   0.35895   0.00000  Uiso   1.00
H218   H     0.88327   0.53454   0.48453   0.00000  Uiso   1.00
H219   H     0.66797   0.57414   0.05653   0.00000  Uiso   1.00
H220   H     0.82661   0.19533   0.39186   0.00000  Uiso   1.00
H221   H     0.92727   0.61435   0.65669   0.00000  Uiso   1.00
O222   O     0.54227   0.60651   0.04783   0.00000  Uiso   1.00
O223   O     0.75041   0.10952   0.48779   0.00000  Uiso   1.00
O224   O     0.88247   0.65928   0.83524   0.00000  Uiso   1.00
N225   N     0.55055   0.56247   0.21310   0.00000  Uiso   1.00
N226   N     0.69887   0.20830   0.52660   0.00000  Uiso   1.00
N227   N     0.79299   0.60004   0.77421   0.00000  Uiso   1.00
N228   N     0.63905   0.56550   0.11775   0.00000  Uiso   1.00
N229   N     0.78737   0.21134   0.43125   0.00000  Uiso   1.00
N230   N     0.88148   0.60308   0.67886   0.00000  Uiso   1.00
C231   C     0.32699   0.54329   0.51301   0.00000  Uiso   1.00
C232   C     0.33911   0.51340   0.40706   0.00000  Uiso   1.00
C233   C     0.39860   0.48996   0.37108   0.00000  Uiso   1.00
C234   C     0.39956   0.46448   0.27192   0.00000  Uiso   1.00
C235   C     0.42699   0.41838   0.11666   0.00000  Uiso   1.00
C236   C     0.29824   0.61101   0.49345   0.00000  Uiso   1.00
C237   C     0.32336   0.66964   0.53012   0.00000  Uiso   1.00
C238   C     0.28991   0.72633   0.50369   0.00000  Uiso   1.00
C239   C     0.25385   0.83178   0.48261   0.00000  Uiso   1.00
C240   C     0.27231   0.50304   0.56168   0.00000  Uiso   1.00
C241   C     0.27562   0.47090   0.65573   0.00000  Uiso   1.00
C242   C     0.22033   0.43670   0.68677   0.00000  Uiso   1.00
C243   C     0.14400   0.37450   0.77162   0.00000  Uiso   1.00
C244   C     0.22292   0.53973   0.40089   0.00000  Uiso   1.00
C245   C     0.28258   0.51146   0.34616   0.00000  Uiso   1.00
C246   C     0.28345   0.48601   0.24703   0.00000  Uiso   1.00
C247   C     0.34293   0.46253   0.21092   0.00000  Uiso   1.00
C248   C     0.24171   0.60908   0.43255   0.00000  Uiso   1.00
C249   C     0.20821   0.66569   0.40607   0.00000  Uiso   1.00
C250   C     0.23328   0.72439   0.44268   0.00000  Uiso   1.00
C251   C     0.21578   0.50110   0.50078   0.00000  Uiso   1.00
C252   C     0.16047   0.46695   0.53168   0.00000  Uiso   1.00
C253   C     0.16369   0.43476   0.62576   0.00000  Uiso   1.00
H254   H     0.37100   0.54481   0.56042   0.00000  Uiso   1.00
H255   H     0.44234   0.49147   0.41823   0.00000  Uiso   1.00
H256   H     0.36710   0.67112   0.57725   0.00000  Uiso   1.00
H257   H     0.31937   0.47241   0.70284   0.00000  Uiso   1.00
H258   H     0.49650   0.43150   0.23372   0.00000  Uiso   1.00
H259   H     0.33786   0.81031   0.56905   0.00000  Uiso   1.00
H260   H     0.23720   0.39129   0.83388   0.00000  Uiso   1.00
H261   H     0.17890   0.53822   0.35348   0.00000  Uiso   1.00
H262   H     0.23970   0.48452   0.19992   0.00000  Uiso   1.00
H263   H     0.16447   0.66417   0.35895   0.00000  Uiso   1.00
H264   H     0.11673   0.46546   0.48453   0.00000  Uiso   1.00
H265   H     0.33203   0.42586   0.05653   0.00000  Uiso   1.00
H266   H     0.17339   0.80467   0.39186   0.00000  Uiso   1.00
H267   H     0.07273   0.38565   0.65669   0.00000  Uiso   1.00
O268   O     0.45773   0.39349   0.04783   0.00000  Uiso   1.00
O269   O     0.24959   0.89048   0.48779   0.00000  Uiso   1.00
O270   O     0.11753   0.34072   0.83524   0.00000  Uiso   1.00
N271   N     0.44945   0.43753   0.21310   0.00000  Uiso   1.00
N272   N     0.30113   0.79170   0.52660   0.00000  Uiso   1.00
N273   N     0.20701   0.39996   0.77421   0.00000  Uiso   1.00
N274   N     0.36095   0.43450   0.11775   0.00000  Uiso   1.00
N275   N     0.21263   0.78866   0.43125   0.00000  Uiso   1.00
N276   N     0.11852   0.39692   0.67886   0.00000  Uiso   1.00
C277   C     0.54329   0.67301   0.48699   0.00000  Uiso   1.00
C278   C     0.51340   0.66089   0.59294   0.00000  Uiso   1.00
C279   C     0.48996   0.60140   0.62892   0.00000  Uiso   1.00
C280   C     0.46448   0.60044   0.72808   0.00000  Uiso   1.00
C281   C     0.41838   0.57301   0.88334   0.00000  Uiso   1.00
C282   C     0.61101   0.70176   0.50655   0.00000  Uiso   1.00
C283   C     0.66964   0.67664   0.46988   0.00000  Uiso   1.00
C284   C     0.72633   0.71009   0.49631   0.00000  Uiso   1.00
C285   C     0.83178   0.74615   0.51739   0.00000  Uiso   1.00
C286   C     0.50304   0.72769   0.43832   0.00000  Uiso   1.00
C287   C     0.47090   0.72438   0.34427   0.00000  Uiso   1.00
C288   C     0.43670   0.77967   0.31323   0.00000  Uiso   1.00
C289   C     0.37450   0.85600   0.22838   0.00000  Uiso   1.00
C290   C     0.53973   0.77708   0.59911   0.00000  Uiso   1.00
C291   C     0.51146   0.71742   0.65384   0.00000  Uiso   1.00
C292   C     0.48601   0.71655   0.75297   0.00000  Uiso   1.00
C293   C     0.46253   0.65707   0.78908   0.00000  Uiso   1.00
C294   C     0.60908   0.75829   0.56745   0.00000  Uiso   1.00
C295   C     0.66569   0.79179   0.59393   0.00000  Uiso   1.00
C296   C     0.72439   0.76672   0.55732   0.00000  Uiso   1.00
C297   C     0.50110   0.78422   0.49922   0.00000  Uiso   1.00
C298   C     0.46695   0.83953   0.46832   0.00000  Uiso   1.00
C299   C     0.43476   0.83631   0.37424   0.00000  Uiso   1.00
H300   H     0.54481   0.62900   0.43958   0.00000  Uiso   1.00
H301   H     0.49147   0.55766   0.58177   0.00000  Uiso   1.00
H302   H     0.67112   0.63290   0.42275   0.00000  Uiso   1.00
H303   H     0.47241   0.68063   0.29716   0.00000  Uiso   1.00
H304   H     0.43150   0.50350   0.76628   0.00000  Uiso   1.00
H305   H     0.81031   0.66214   0.43095   0.00000  Uiso   1.00
H306   H     0.39129   0.76280   0.16612   0.00000  Uiso   1.00
H307   H     0.53822   0.82110   0.64652   0.00000  Uiso   1.00
H308   H     0.48452   0.76030   0.80008   0.00000  Uiso   1.00
H309   H     0.66417   0.83553   0.64105   0.00000  Uiso   1.00
H310   H     0.46546   0.88327   0.51547   0.00000  Uiso   1.00
H311   H     0.42586   0.66797   0.94347   0.00000  Uiso   1.00
H312   H     0.80467   0.82661   0.60814   0.00000  Uiso   1.00
H313   H     0.38565   0.92727   0.34331   0.00000  Uiso   1.00
O314   O     0.39349   0.54227   0.95217   0.00000  Uiso   1.00
O315   O     0.89048   0.75041   0.51221   0.00000  Uiso   1.00
O316   O     0.34072   0.88247   0.16476   0.00000  Uiso   1.00
N317   N     0.43753   0.55055   0.78690   0.00000  Uiso   1.00
N318   N     0.79170   0.69887   0.47340   0.00000  Uiso   1.00
N319   N     0.39996   0.79299   0.22579   0.00000  Uiso   1.00
N320   N     0.43450   0.63905   0.88225   0.00000  Uiso   1.00
N321   N     0.78866   0.78737   0.56875   0.00000  Uiso   1.00
N322   N     0.39692   0.88148   0.32114   0.00000  Uiso   1.00
C323   C     0.45671   0.32699   0.48699   0.00000  Uiso   1.00
C324   C     0.48660   0.33911   0.59294   0.00000  Uiso   1.00
C325   C     0.51004   0.39860   0.62892   0.00000  Uiso   1.00
C326   C     0.53552   0.39956   0.72808   0.00000  Uiso   1.00
C327   C     0.58162   0.42699   0.88334   0.00000  Uiso   1.00
C328   C     0.38899   0.29824   0.50655   0.00000  Uiso   1.00
C329   C     0.33036   0.32336   0.46988   0.00000  Uiso   1.00
C330   C     0.27367   0.28991   0.49631   0.00000  Uiso   1.00
C331   C     0.16822   0.25385   0.51739   0.00000  Uiso   1.00
C332   C     0.49696   0.27231   0.43832   0.00000  Uiso   1.00
C333   C     0.52910   0.27562   0.34427   0.00000  Uiso   1.00
C334   C     0.56330   0.22033   0.31323   0.00000  Uiso   1.00
C335   C     0.62550   0.14400   0.22838   0.00000  Uiso   1.00
C336   C     0.46027   0.22292   0.59911   0.00000  Uiso   1.00
C337   C     0.48854   0.28258   0.65384   0.00000  Uiso   1.00
C338   C     0.51399   0.28345   0.75297   0.00000  Uiso   1.00
C339   C     0.53747   0.34293   0.78908   0.00000  Uiso   1.00
C340   C     0.39092   0.24171   0.56745   0.00000  Uiso   1.00
C341   C     0.33431   0.20821   0.59393   0.00000  Uiso   1.00
C342   C     0.27561   0.23328   0.55732   0.00000  Uiso   1.00
C343   C     0.49890   0.21578   0.49922   0.00000  Uiso   1.00
C344   C     0.53305   0.16047   0.46832   0.00000  Uiso   1.00
C345   C     0.56524   0.16369   0.37424   0.00000  Uiso   1.00
H346   H     0.45519   0.37100   0.43958   0.00000  Uiso   1.00
H347   H     0.50853   0.44234   0.58177   0.00000  Uiso   1.00
H348   H     0.32888   0.36710   0.42275   0.00000  Uiso   1.00
H349   H     0.52759   0.31937   0.29716   0.00000  Uiso   1.00
H350   H     0.56850   0.49650   0.76628   0.00000  Uiso   1.00
H351   H     0.18969   0.33786   0.43095   0.00000  Uiso   1.00
H352   H     0.60871   0.23720   0.16612   0.00000  Uiso   1.00
H353   H     0.46178   0.17890   0.64652   0.00000  Uiso   1.00
H354   H     0.51548   0.23970   0.80008   0.00000  Uiso   1.00
H355   H     0.33583   0.16447   0.64105   0.00000  Uiso   1.00
H356   H     0.53454   0.11673   0.51547   0.00000  Uiso   1.00
H357   H     0.57414   0.33203   0.94347   0.00000  Uiso   1.00
H358   H     0.19533   0.17339   0.60814   0.00000  Uiso   1.00
H359   H     0.61435   0.07273   0.34331   0.00000  Uiso   1.00
O360   O     0.60651   0.45773   0.95217   0.00000  Uiso   1.00
O361   O     0.10952   0.24959   0.51221   0.00000  Uiso   1.00
O362   O     0.65928   0.11753   0.16476   0.00000  Uiso   1.00
N363   N     0.56247   0.44945   0.78690   0.00000  Uiso   1.00
N364   N     0.20830   0.30113   0.47340   0.00000  Uiso   1.00
N365   N     0.60004   0.20701   0.22579   0.00000  Uiso   1.00
N366   N     0.56550   0.36095   0.88225   0.00000  Uiso   1.00
N367   N     0.21134   0.21263   0.56875   0.00000  Uiso   1.00
N368   N     0.60308   0.11852   0.32114   0.00000  Uiso   1.00
