data_job_06311
_audit_creation_date              2018-12-19
_audit_creation_method            'Materials Studio'
_symmetry_space_group_name_H-M    'P1'
_symmetry_Int_Tables_number       1
_symmetry_cell_setting            triclinic
loop_
_symmetry_equiv_pos_as_xyz
  x,y,z
_cell_length_a                    16.3286
_cell_length_b                    16.5140
_cell_length_c                    16.5950
_cell_angle_alpha                 106.6870
_cell_angle_beta                  107.0290
_cell_angle_gamma                 107.0260
loop_
_atom_site_label
_atom_site_type_symbol
_atom_site_fract_x
_atom_site_fract_y
_atom_site_fract_z
_atom_site_U_iso_or_equiv
_atom_site_adp_type
_atom_site_occupancy
C1     C     0.47178   0.87260   0.72591   0.00000  Uiso   1.00
C2     C     0.53086   0.95648   0.71573   0.00000  Uiso   1.00
C3     C     0.62782   0.99290   0.74554   0.00000  Uiso   1.00
C4     C     0.66870   0.06992   0.72979   0.00000  Uiso   1.00
C5     C     0.76870   0.19425   0.72072   0.00000  Uiso   1.00
C6     C     0.41672   0.90604   0.77778   0.00000  Uiso   1.00
C7     C     0.41770   0.90004   0.85975   0.00000  Uiso   1.00
C8     C     0.36248   0.93460   0.89623   0.00000  Uiso   1.00
C9     C     0.28521   0.98056   0.98346   0.00000  Uiso   1.00
C10    C     0.39934   0.80463   0.62873   0.00000  Uiso   1.00
C11    C     0.38570   0.71335   0.58539   0.00000  Uiso   1.00
C12    C     0.31583   0.66251   0.49639   0.00000  Uiso   1.00
C13    C     0.21159   0.55101   0.35220   0.00000  Uiso   1.00
C14    C     0.37195   0.94462   0.64493   0.00000  Uiso   1.00
C15    C     0.47663   0.99560   0.67175   0.00000  Uiso   1.00
C16    C     0.51738   0.07259   0.65595   0.00000  Uiso   1.00
C17    C     0.61438   0.10911   0.68573   0.00000  Uiso   1.00
C18    C     0.36250   0.94516   0.73380   0.00000  Uiso   1.00
C19    C     0.30726   0.97973   0.77016   0.00000  Uiso   1.00
C20    C     0.30816   0.97379   0.85217   0.00000  Uiso   1.00
C21    C     0.34512   0.84375   0.58475   0.00000  Uiso   1.00
C22    C     0.27526   0.79304   0.49580   0.00000  Uiso   1.00
C23    C     0.26151   0.70170   0.45233   0.00000  Uiso   1.00
H24    H     0.51399   0.84214   0.76016   0.00000  Uiso   1.00
H25    H     0.66976   0.96261   0.77958   0.00000  Uiso   1.00
H26    H     0.45966   0.86976   0.89377   0.00000  Uiso   1.00
H27    H     0.42767   0.68310   0.61945   0.00000  Uiso   1.00
H28    H     0.81855   0.11345   0.78175   0.00000  Uiso   1.00
H29    H     0.37553   0.91764   0.02251   0.00000  Uiso   1.00
H30    H     0.30806   0.52402   0.44405   0.00000  Uiso   1.00
H31    H     0.32973   0.97508   0.61069   0.00000  Uiso   1.00
H32    H     0.47540   0.10285   0.62191   0.00000  Uiso   1.00
H33    H     0.26530   0.00999   0.73611   0.00000  Uiso   1.00
H34    H     0.23331   0.82333   0.46178   0.00000  Uiso   1.00
H35    H     0.66081   0.22727   0.65379   0.00000  Uiso   1.00
H36    H     0.21778   0.03146   0.89455   0.00000  Uiso   1.00
H37    H     0.15032   0.63785   0.31609   0.00000  Uiso   1.00
O38    O     0.83883   0.25203   0.72787   0.00000  Uiso   1.00
O39    O     0.25758   0.99512   0.04373   0.00000  Uiso   1.00
O40    O     0.16908   0.47871   0.28481   0.00000  Uiso   1.00
N41    N     0.76143   0.12269   0.75008   0.00000  Uiso   1.00
N42    N     0.34724   0.93963   0.97518   0.00000  Uiso   1.00
N43    N     0.28415   0.57163   0.43438   0.00000  Uiso   1.00
N44    N     0.67655   0.18394   0.68122   0.00000  Uiso   1.00
N45    N     0.26236   0.00088   0.90632   0.00000  Uiso   1.00
N46    N     0.19927   0.63287   0.36552   0.00000  Uiso   1.00
C47    C     0.73022   0.47164   0.87320   0.00000  Uiso   1.00
C48    C     0.71941   0.52956   0.95613   0.00000  Uiso   1.00
C49    C     0.74922   0.62519   0.99199   0.00000  Uiso   1.00
C50    C     0.73284   0.66516   0.06817   0.00000  Uiso   1.00
C51    C     0.72288   0.76328   0.19107   0.00000  Uiso   1.00
C52    C     0.78349   0.41767   0.90725   0.00000  Uiso   1.00
C53    C     0.86718   0.41924   0.90199   0.00000  Uiso   1.00
C54    C     0.90474   0.36501   0.93702   0.00000  Uiso   1.00
C55    C     0.99424   0.28938   0.98396   0.00000  Uiso   1.00
C56    C     0.63150   0.39977   0.80523   0.00000  Uiso   1.00
C57    C     0.58739   0.38625   0.71419   0.00000  Uiso   1.00
C58    C     0.49698   0.31693   0.66332   0.00000  Uiso   1.00
C59    C     0.35048   0.21351   0.55186   0.00000  Uiso   1.00
C60    C     0.64811   0.37253   0.94472   0.00000  Uiso   1.00
C61    C     0.67481   0.47572   0.99498   0.00000  Uiso   1.00
C62    C     0.65838   0.51555   0.07113   0.00000  Uiso   1.00
C63    C     0.68816   0.61123   0.10709   0.00000  Uiso   1.00
C64    C     0.73890   0.36385   0.94610   0.00000  Uiso   1.00
C65    C     0.77634   0.30959   0.98113   0.00000  Uiso   1.00
C66    C     0.86007   0.31108   0.97594   0.00000  Uiso   1.00
C67    C     0.58689   0.34594   0.84408   0.00000  Uiso   1.00
C68    C     0.49654   0.27662   0.79333   0.00000  Uiso   1.00
C69    C     0.45231   0.26301   0.70224   0.00000  Uiso   1.00
H70    H     0.76494   0.51354   0.84295   0.00000  Uiso   1.00
H71    H     0.78374   0.66683   0.96191   0.00000  Uiso   1.00
H72    H     0.90168   0.46089   0.87192   0.00000  Uiso   1.00
H73    H     0.62192   0.42792   0.68415   0.00000  Uiso   1.00
H74    H     0.78495   0.81304   0.11095   0.00000  Uiso   1.00
H75    H     0.03360   0.37879   0.92117   0.00000  Uiso   1.00
H76    H     0.44369   0.30926   0.52522   0.00000  Uiso   1.00
H77    H     0.61339   0.33062   0.97497   0.00000  Uiso   1.00
H78    H     0.62386   0.47388   0.10118   0.00000  Uiso   1.00
H79    H     0.74180   0.26794   0.01119   0.00000  Uiso   1.00
H80    H     0.46205   0.23497   0.82342   0.00000  Uiso   1.00
H81    H     0.65519   0.65644   0.22399   0.00000  Uiso   1.00
H82    H     0.90384   0.22219   0.03420   0.00000  Uiso   1.00
H83    H     0.31393   0.15266   0.63826   0.00000  Uiso   1.00
O84    O     0.72972   0.83228   0.24813   0.00000  Uiso   1.00
O85    O     0.05594   0.26255   0.99912   0.00000  Uiso   1.00
O86    O     0.28199   0.17134   0.47966   0.00000  Uiso   1.00
N87    N     0.75295   0.75652   0.12023   0.00000  Uiso   1.00
N88    N     0.98544   0.35054   0.94280   0.00000  Uiso   1.00
N89    N     0.43393   0.28552   0.57262   0.00000  Uiso   1.00
N90    N     0.68313   0.67225   0.18105   0.00000  Uiso   1.00
N91    N     0.91562   0.26627   0.00363   0.00000  Uiso   1.00
N92    N     0.36411   0.20125   0.63344   0.00000  Uiso   1.00
C93    C     0.87246   0.72722   0.47133   0.00000  Uiso   1.00
C94    C     0.95717   0.71700   0.52970   0.00000  Uiso   1.00
C95    C     0.99353   0.74638   0.62491   0.00000  Uiso   1.00
C96    C     0.07138   0.73068   0.66541   0.00000  Uiso   1.00
C97    C     0.19685   0.72148   0.76410   0.00000  Uiso   1.00
C98    C     0.90694   0.78008   0.41764   0.00000  Uiso   1.00
C99    C     0.90106   0.86249   0.41862   0.00000  Uiso   1.00
C100   C     0.93662   0.89988   0.36478   0.00000  Uiso   1.00
C101   C     0.98405   0.98858   0.28944   0.00000  Uiso   1.00
C102   C     0.80373   0.62967   0.39991   0.00000  Uiso   1.00
C103   C     0.71106   0.58561   0.38595   0.00000  Uiso   1.00
C104   C     0.65972   0.49636   0.31716   0.00000  Uiso   1.00
C105   C     0.54689   0.35151   0.21429   0.00000  Uiso   1.00
C106   C     0.94606   0.64709   0.37394   0.00000  Uiso   1.00
C107   C     0.99714   0.67348   0.47680   0.00000  Uiso   1.00
C108   C     0.07495   0.65773   0.51716   0.00000  Uiso   1.00
C109   C     0.11143   0.68708   0.61242   0.00000  Uiso   1.00
C110   C     0.94691   0.73656   0.36475   0.00000  Uiso   1.00
C111   C     0.98248   0.77384   0.31088   0.00000  Uiso   1.00
C112   C     0.97667   0.85628   0.31178   0.00000  Uiso   1.00
C113   C     0.84370   0.58614   0.34701   0.00000  Uiso   1.00
C114   C     0.79249   0.49695   0.27822   0.00000  Uiso   1.00
C115   C     0.69976   0.45276   0.26417   0.00000  Uiso   1.00
H116   H     0.84134   0.76111   0.51251   0.00000  Uiso   1.00
H117   H     0.96258   0.78007   0.66582   0.00000  Uiso   1.00
H118   H     0.87011   0.89615   0.45956   0.00000  Uiso   1.00
H119   H     0.68015   0.61931   0.42690   0.00000  Uiso   1.00
H120   H     0.11464   0.78193   0.81248   0.00000  Uiso   1.00
H121   H     0.91964   0.02668   0.37753   0.00000  Uiso   1.00
H122   H     0.51906   0.44290   0.30867   0.00000  Uiso   1.00
H123   H     0.97718   0.61320   0.33276   0.00000  Uiso   1.00
H124   H     0.10587   0.62405   0.47621   0.00000  Uiso   1.00
H125   H     0.01341   0.74013   0.26995   0.00000  Uiso   1.00
H126   H     0.82345   0.46329   0.23729   0.00000  Uiso   1.00
H127   H     0.23095   0.65530   0.65858   0.00000  Uiso   1.00
H128   H     0.03595   0.90005   0.22364   0.00000  Uiso   1.00
H129   H     0.63537   0.31627   0.15478   0.00000  Uiso   1.00
O130   O     0.25502   0.72844   0.83314   0.00000  Uiso   1.00
O131   O     0.99917   0.04953   0.26251   0.00000  Uiso   1.00
O132   O     0.47362   0.28364   0.17216   0.00000  Uiso   1.00
N133   N     0.12434   0.75062   0.75657   0.00000  Uiso   1.00
N134   N     0.94204   0.97945   0.34993   0.00000  Uiso   1.00
N135   N     0.56752   0.43368   0.28554   0.00000  Uiso   1.00
N136   N     0.18692   0.68248   0.67376   0.00000  Uiso   1.00
N137   N     0.00463   0.91132   0.26713   0.00000  Uiso   1.00
N138   N     0.63011   0.36555   0.20273   0.00000  Uiso   1.00
C139   C     0.52823   0.12740   0.27409   0.00000  Uiso   1.00
C140   C     0.46914   0.04352   0.28427   0.00000  Uiso   1.00
C141   C     0.37218   0.00710   0.25446   0.00000  Uiso   1.00
C142   C     0.33130   0.93008   0.27021   0.00000  Uiso   1.00
C143   C     0.23130   0.80575   0.27928   0.00000  Uiso   1.00
C144   C     0.58328   0.09396   0.22222   0.00000  Uiso   1.00
C145   C     0.58230   0.09996   0.14025   0.00000  Uiso   1.00
C146   C     0.63752   0.06540   0.10377   0.00000  Uiso   1.00
C147   C     0.71479   0.01944   0.01654   0.00000  Uiso   1.00
C148   C     0.60066   0.19537   0.37127   0.00000  Uiso   1.00
C149   C     0.61430   0.28665   0.41461   0.00000  Uiso   1.00
C150   C     0.68417   0.33749   0.50361   0.00000  Uiso   1.00
C151   C     0.78841   0.44899   0.64780   0.00000  Uiso   1.00
C152   C     0.62805   0.05538   0.35507   0.00000  Uiso   1.00
C153   C     0.52337   0.00440   0.32825   0.00000  Uiso   1.00
C154   C     0.48262   0.92741   0.34405   0.00000  Uiso   1.00
C155   C     0.38562   0.89089   0.31427   0.00000  Uiso   1.00
C156   C     0.63750   0.05484   0.26620   0.00000  Uiso   1.00
C157   C     0.69274   0.02027   0.22984   0.00000  Uiso   1.00
C158   C     0.69184   0.02621   0.14783   0.00000  Uiso   1.00
C159   C     0.65488   0.15625   0.41525   0.00000  Uiso   1.00
C160   C     0.72474   0.20696   0.50420   0.00000  Uiso   1.00
C161   C     0.73849   0.29830   0.54767   0.00000  Uiso   1.00
H162   H     0.48601   0.15786   0.23985   0.00000  Uiso   1.00
H163   H     0.33024   0.03739   0.22042   0.00000  Uiso   1.00
H164   H     0.54034   0.13024   0.10623   0.00000  Uiso   1.00
H165   H     0.57233   0.31690   0.38055   0.00000  Uiso   1.00
H166   H     0.18145   0.88655   0.21825   0.00000  Uiso   1.00
H167   H     0.62447   0.08236   0.97749   0.00000  Uiso   1.00
H168   H     0.69194   0.47598   0.55595   0.00000  Uiso   1.00
H169   H     0.67027   0.02492   0.38931   0.00000  Uiso   1.00
H170   H     0.52460   0.89715   0.37809   0.00000  Uiso   1.00
H171   H     0.73470   0.99001   0.26389   0.00000  Uiso   1.00
H172   H     0.76669   0.17667   0.53822   0.00000  Uiso   1.00
H173   H     0.33919   0.77273   0.34621   0.00000  Uiso   1.00
H174   H     0.78222   0.96854   0.10545   0.00000  Uiso   1.00
H175   H     0.84968   0.36215   0.68391   0.00000  Uiso   1.00
O176   O     0.16117   0.74797   0.27213   0.00000  Uiso   1.00
O177   O     0.74242   0.00488   0.95627   0.00000  Uiso   1.00
O178   O     0.83092   0.52129   0.71519   0.00000  Uiso   1.00
N179   N     0.23857   0.87731   0.24992   0.00000  Uiso   1.00
N180   N     0.65276   0.06037   0.02482   0.00000  Uiso   1.00
N181   N     0.71585   0.42837   0.56562   0.00000  Uiso   1.00
N182   N     0.32345   0.81606   0.31878   0.00000  Uiso   1.00
N183   N     0.73764   0.99912   0.09368   0.00000  Uiso   1.00
N184   N     0.80073   0.36713   0.63448   0.00000  Uiso   1.00
C185   C     0.26978   0.52836   0.12680   0.00000  Uiso   1.00
C186   C     0.28059   0.47044   0.04387   0.00000  Uiso   1.00
C187   C     0.25078   0.37481   0.00801   0.00000  Uiso   1.00
C188   C     0.26716   0.33484   0.93183   0.00000  Uiso   1.00
C189   C     0.27712   0.23672   0.80893   0.00000  Uiso   1.00
C190   C     0.21651   0.58233   0.09275   0.00000  Uiso   1.00
C191   C     0.13282   0.58076   0.09801   0.00000  Uiso   1.00
C192   C     0.09526   0.63499   0.06298   0.00000  Uiso   1.00
C193   C     0.00576   0.71062   0.01604   0.00000  Uiso   1.00
C194   C     0.36850   0.60023   0.19477   0.00000  Uiso   1.00
C195   C     0.41261   0.61375   0.28581   0.00000  Uiso   1.00
C196   C     0.50302   0.68307   0.33668   0.00000  Uiso   1.00
C197   C     0.64952   0.78649   0.44814   0.00000  Uiso   1.00
C198   C     0.35189   0.62747   0.05528   0.00000  Uiso   1.00
C199   C     0.32519   0.52428   0.00502   0.00000  Uiso   1.00
C200   C     0.34162   0.48445   0.92887   0.00000  Uiso   1.00
C201   C     0.31184   0.38877   0.89291   0.00000  Uiso   1.00
C202   C     0.26110   0.63615   0.05390   0.00000  Uiso   1.00
C203   C     0.22366   0.69041   0.01887   0.00000  Uiso   1.00
C204   C     0.13993   0.68892   0.02406   0.00000  Uiso   1.00
C205   C     0.41311   0.65406   0.15592   0.00000  Uiso   1.00
C206   C     0.50346   0.72338   0.20667   0.00000  Uiso   1.00
C207   C     0.54769   0.73699   0.29776   0.00000  Uiso   1.00
H208   H     0.23506   0.48646   0.15705   0.00000  Uiso   1.00
H209   H     0.21626   0.33317   0.03809   0.00000  Uiso   1.00
H210   H     0.09832   0.53911   0.12808   0.00000  Uiso   1.00
H211   H     0.37808   0.57208   0.31585   0.00000  Uiso   1.00
H212   H     0.21505   0.18696   0.88905   0.00000  Uiso   1.00
H213   H     0.96640   0.62121   0.07883   0.00000  Uiso   1.00
H214   H     0.55631   0.69074   0.47478   0.00000  Uiso   1.00
H215   H     0.38661   0.66938   0.02503   0.00000  Uiso   1.00
H216   H     0.37614   0.52612   0.89882   0.00000  Uiso   1.00
H217   H     0.25820   0.73206   0.98881   0.00000  Uiso   1.00
H218   H     0.53795   0.76503   0.17658   0.00000  Uiso   1.00
H219   H     0.34481   0.34356   0.77601   0.00000  Uiso   1.00
H220   H     0.09616   0.77781   0.96580   0.00000  Uiso   1.00
H221   H     0.68607   0.84734   0.36174   0.00000  Uiso   1.00
O222   O     0.27028   0.16772   0.75187   0.00000  Uiso   1.00
O223   O     0.94406   0.73745   0.00088   0.00000  Uiso   1.00
O224   O     0.71801   0.82866   0.52034   0.00000  Uiso   1.00
N225   N     0.24705   0.24348   0.87977   0.00000  Uiso   1.00
N226   N     0.01456   0.64946   0.05720   0.00000  Uiso   1.00
N227   N     0.56607   0.71448   0.42738   0.00000  Uiso   1.00
N228   N     0.31687   0.32775   0.81895   0.00000  Uiso   1.00
N229   N     0.08438   0.73373   0.99637   0.00000  Uiso   1.00
N230   N     0.63589   0.79875   0.36656   0.00000  Uiso   1.00
C231   C     0.12754   0.27278   0.52867   0.00000  Uiso   1.00
C232   C     0.04283   0.28300   0.47030   0.00000  Uiso   1.00
C233   C     0.00647   0.25362   0.37509   0.00000  Uiso   1.00
C234   C     0.92862   0.26932   0.33459   0.00000  Uiso   1.00
C235   C     0.80315   0.27852   0.23590   0.00000  Uiso   1.00
C236   C     0.09306   0.21992   0.58236   0.00000  Uiso   1.00
C237   C     0.09894   0.13751   0.58138   0.00000  Uiso   1.00
C238   C     0.06338   0.10012   0.63522   0.00000  Uiso   1.00
C239   C     0.01595   0.01142   0.71056   0.00000  Uiso   1.00
C240   C     0.19627   0.37033   0.60009   0.00000  Uiso   1.00
C241   C     0.28894   0.41439   0.61405   0.00000  Uiso   1.00
C242   C     0.34028   0.50364   0.68284   0.00000  Uiso   1.00
C243   C     0.45311   0.64849   0.78571   0.00000  Uiso   1.00
C244   C     0.05394   0.35291   0.62606   0.00000  Uiso   1.00
C245   C     0.00286   0.32652   0.52320   0.00000  Uiso   1.00
C246   C     0.92505   0.34227   0.48284   0.00000  Uiso   1.00
C247   C     0.88857   0.31292   0.38758   0.00000  Uiso   1.00
C248   C     0.05309   0.26344   0.63525   0.00000  Uiso   1.00
C249   C     0.01752   0.22616   0.68912   0.00000  Uiso   1.00
C250   C     0.02333   0.14372   0.68822   0.00000  Uiso   1.00
C251   C     0.15630   0.41386   0.65299   0.00000  Uiso   1.00
C252   C     0.20751   0.50305   0.72178   0.00000  Uiso   1.00
C253   C     0.30024   0.54724   0.73583   0.00000  Uiso   1.00
H254   H     0.15866   0.23889   0.48749   0.00000  Uiso   1.00
H255   H     0.03742   0.21993   0.33418   0.00000  Uiso   1.00
H256   H     0.12989   0.10385   0.54044   0.00000  Uiso   1.00
H257   H     0.31985   0.38069   0.57310   0.00000  Uiso   1.00
H258   H     0.88536   0.21807   0.18752   0.00000  Uiso   1.00
H259   H     0.08036   0.97332   0.62247   0.00000  Uiso   1.00
H260   H     0.48094   0.55710   0.69133   0.00000  Uiso   1.00
H261   H     0.02282   0.38680   0.66724   0.00000  Uiso   1.00
H262   H     0.89413   0.37595   0.52379   0.00000  Uiso   1.00
H263   H     0.98659   0.25987   0.73005   0.00000  Uiso   1.00
H264   H     0.17655   0.53671   0.76270   0.00000  Uiso   1.00
H265   H     0.76905   0.34470   0.34142   0.00000  Uiso   1.00
H266   H     0.96405   0.09995   0.77636   0.00000  Uiso   1.00
H267   H     0.36463   0.68373   0.84522   0.00000  Uiso   1.00
O268   O     0.74498   0.27156   0.16686   0.00000  Uiso   1.00
O269   O     0.00083   0.95047   0.73749   0.00000  Uiso   1.00
O270   O     0.52638   0.71636   0.82784   0.00000  Uiso   1.00
N271   N     0.87566   0.24938   0.24343   0.00000  Uiso   1.00
N272   N     0.05796   0.02055   0.65007   0.00000  Uiso   1.00
N273   N     0.43248   0.56632   0.71446   0.00000  Uiso   1.00
N274   N     0.81308   0.31752   0.32624   0.00000  Uiso   1.00
N275   N     0.99537   0.08868   0.73287   0.00000  Uiso   1.00
N276   N     0.36989   0.63445   0.79727   0.00000  Uiso   1.00
