data_job_03820
_audit_creation_date              2018-12-19
_audit_creation_method            'Materials Studio'
_symmetry_space_group_name_H-M    'P1'
_symmetry_Int_Tables_number       1
_symmetry_cell_setting            triclinic
loop_
_symmetry_equiv_pos_as_xyz
  x,y,z
_cell_length_a                    36.5703
_cell_length_b                    10.1277
_cell_length_c                    35.5894
_cell_angle_alpha                 90.0000
_cell_angle_beta                  167.0392
_cell_angle_gamma                 90.0000
loop_
_atom_site_label
_atom_site_type_symbol
_atom_site_fract_x
_atom_site_fract_y
_atom_site_fract_z
_atom_site_U_iso_or_equiv
_atom_site_adp_type
_atom_site_occupancy
C1     C     0.76983   0.89985   0.35365   0.00000  Uiso   1.00
C2     C     0.89693   0.81782   0.46012   0.00000  Uiso   1.00
C3     C     0.89212   0.78446   0.41750   0.00000  Uiso   1.00
C4     C     0.02004   0.70871   0.53189   0.00000  Uiso   1.00
C5     C     0.19788   0.58749   0.67413   0.00000  Uiso   1.00
C6     C     0.71205   0.81484   0.32855   0.00000  Uiso   1.00
C7     C     0.55178   0.77898   0.17531   0.00000  Uiso   1.00
C8     C     0.52408   0.70073   0.17895   0.00000  Uiso   1.00
C9     C     0.41486   0.57497   0.11693   0.00000  Uiso   1.00
C10    C     0.86205   0.01534   0.46343   0.00000  Uiso   1.00
C11    C     0.82789   0.14808   0.42358   0.00000  Uiso   1.00
C12    C     0.92645   0.23864   0.54078   0.00000  Uiso   1.00
C13    C     0.05014   0.42420   0.68817   0.00000  Uiso   1.00
C14    C     0.00557   0.82465   0.63260   0.00000  Uiso   1.00
C15    C     0.02497   0.77698   0.61164   0.00000  Uiso   1.00
C16    C     0.15295   0.70126   0.72613   0.00000  Uiso   1.00
C17    C     0.14833   0.66779   0.68368   0.00000  Uiso   1.00
C18    C     0.84009   0.77399   0.48006   0.00000  Uiso   1.00
C19    C     0.81261   0.69578   0.48394   0.00000  Uiso   1.00
C20    C     0.65235   0.65981   0.33074   0.00000  Uiso   1.00
C21    C     0.99010   0.97450   0.61495   0.00000  Uiso   1.00
C22    C     0.08873   0.06488   0.73222   0.00000  Uiso   1.00
C23    C     0.05473   0.19772   0.69256   0.00000  Uiso   1.00
H24    H     0.67013   0.93165   0.23569   0.00000  Uiso   1.00
H25    H     0.79299   0.81608   0.30022   0.00000  Uiso   1.00
H26    H     0.45271   0.81062   0.05808   0.00000  Uiso   1.00
H27    H     0.72879   0.17965   0.30632   0.00000  Uiso   1.00
H28    H     0.98565   0.66989   0.43857   0.00000  Uiso   1.00
H29    H     0.26815   0.65842   0.92799   0.00000  Uiso   1.00
H30    H     0.85029   0.43660   0.45145   0.00000  Uiso   1.00
H31    H     0.10527   0.79285   0.75057   0.00000  Uiso   1.00
H32    H     0.25202   0.66966   0.84337   0.00000  Uiso   1.00
H33    H     0.91173   0.66420   0.60121   0.00000  Uiso   1.00
H34    H     0.18781   0.03323   0.84946   0.00000  Uiso   1.00
H35    H     0.35821   0.55105   0.87940   0.00000  Uiso   1.00
H36    H     0.64070   0.53958   0.36881   0.00000  Uiso   1.00
H37    H     0.22285   0.31776   0.89228   0.00000  Uiso   1.00
O38    O     0.26059   0.53191   0.71071   0.00000  Uiso   1.00
O39    O     0.31924   0.51687   0.04085   0.00000  Uiso   1.00
O40    O     0.08301   0.53783   0.72763   0.00000  Uiso   1.00
N41    N     0.05321   0.65885   0.52960   0.00000  Uiso   1.00
N42    N     0.38239   0.64810   0.05223   0.00000  Uiso   1.00
N43    N     0.92662   0.37564   0.54161   0.00000  Uiso   1.00
N44    N     0.25368   0.59491   0.76681   0.00000  Uiso   1.00
N45    N     0.58286   0.58416   0.28944   0.00000  Uiso   1.00
N46    N     0.12709   0.31170   0.77882   0.00000  Uiso   1.00
C47    C     0.23017   0.89985   0.14635   0.00000  Uiso   1.00
C48    C     0.10307   0.81782   0.03988   0.00000  Uiso   1.00
C49    C     0.10788   0.78446   0.08250   0.00000  Uiso   1.00
C50    C     0.97996   0.70871   0.96811   0.00000  Uiso   1.00
C51    C     0.80212   0.58749   0.82587   0.00000  Uiso   1.00
C52    C     0.28795   0.81484   0.17145   0.00000  Uiso   1.00
C53    C     0.44822   0.77898   0.32469   0.00000  Uiso   1.00
C54    C     0.47592   0.70073   0.32105   0.00000  Uiso   1.00
C55    C     0.58514   0.57497   0.38307   0.00000  Uiso   1.00
C56    C     0.13795   0.01534   0.03657   0.00000  Uiso   1.00
C57    C     0.17211   0.14808   0.07642   0.00000  Uiso   1.00
C58    C     0.07355   0.23864   0.95922   0.00000  Uiso   1.00
C59    C     0.94986   0.42420   0.81183   0.00000  Uiso   1.00
C60    C     0.99443   0.82465   0.86740   0.00000  Uiso   1.00
C61    C     0.97503   0.77698   0.88836   0.00000  Uiso   1.00
C62    C     0.84705   0.70126   0.77387   0.00000  Uiso   1.00
C63    C     0.85167   0.66779   0.81632   0.00000  Uiso   1.00
C64    C     0.15991   0.77399   0.01994   0.00000  Uiso   1.00
C65    C     0.18739   0.69578   0.01606   0.00000  Uiso   1.00
C66    C     0.34765   0.65981   0.16926   0.00000  Uiso   1.00
C67    C     0.00990   0.97450   0.88505   0.00000  Uiso   1.00
C68    C     0.91127   0.06488   0.76778   0.00000  Uiso   1.00
C69    C     0.94527   0.19772   0.80744   0.00000  Uiso   1.00
H70    H     0.32987   0.93165   0.26431   0.00000  Uiso   1.00
H71    H     0.20701   0.81608   0.19978   0.00000  Uiso   1.00
H72    H     0.54729   0.81062   0.44192   0.00000  Uiso   1.00
H73    H     0.27121   0.17965   0.19368   0.00000  Uiso   1.00
H74    H     0.01435   0.66989   0.06143   0.00000  Uiso   1.00
H75    H     0.73185   0.65842   0.57201   0.00000  Uiso   1.00
H76    H     0.14971   0.43660   0.04855   0.00000  Uiso   1.00
H77    H     0.89473   0.79285   0.74943   0.00000  Uiso   1.00
H78    H     0.74798   0.66966   0.65663   0.00000  Uiso   1.00
H79    H     0.08827   0.66420   0.89879   0.00000  Uiso   1.00
H80    H     0.81219   0.03323   0.65054   0.00000  Uiso   1.00
H81    H     0.64179   0.55105   0.62060   0.00000  Uiso   1.00
H82    H     0.35930   0.53958   0.13119   0.00000  Uiso   1.00
H83    H     0.77715   0.31776   0.60772   0.00000  Uiso   1.00
O84    O     0.73941   0.53191   0.78929   0.00000  Uiso   1.00
O85    O     0.68076   0.51687   0.45915   0.00000  Uiso   1.00
O86    O     0.91699   0.53783   0.77237   0.00000  Uiso   1.00
N87    N     0.94679   0.65885   0.97040   0.00000  Uiso   1.00
N88    N     0.61761   0.64810   0.44777   0.00000  Uiso   1.00
N89    N     0.07338   0.37564   0.95839   0.00000  Uiso   1.00
N90    N     0.74632   0.59491   0.73319   0.00000  Uiso   1.00
N91    N     0.41714   0.58416   0.21056   0.00000  Uiso   1.00
N92    N     0.87291   0.31170   0.72118   0.00000  Uiso   1.00
C93    C     0.23017   0.10015   0.64635   0.00000  Uiso   1.00
C94    C     0.10307   0.18218   0.53988   0.00000  Uiso   1.00
C95    C     0.10788   0.21554   0.58250   0.00000  Uiso   1.00
C96    C     0.97996   0.29129   0.46811   0.00000  Uiso   1.00
C97    C     0.80212   0.41251   0.32587   0.00000  Uiso   1.00
C98    C     0.28795   0.18516   0.67145   0.00000  Uiso   1.00
C99    C     0.44822   0.22102   0.82469   0.00000  Uiso   1.00
C100   C     0.47592   0.29927   0.82105   0.00000  Uiso   1.00
C101   C     0.58514   0.42503   0.88307   0.00000  Uiso   1.00
C102   C     0.13795   0.98466   0.53657   0.00000  Uiso   1.00
C103   C     0.17211   0.85192   0.57642   0.00000  Uiso   1.00
C104   C     0.07355   0.76136   0.45922   0.00000  Uiso   1.00
C105   C     0.94986   0.57580   0.31183   0.00000  Uiso   1.00
C106   C     0.99443   0.17535   0.36740   0.00000  Uiso   1.00
C107   C     0.97503   0.22302   0.38836   0.00000  Uiso   1.00
C108   C     0.84705   0.29874   0.27387   0.00000  Uiso   1.00
C109   C     0.85167   0.33221   0.31632   0.00000  Uiso   1.00
C110   C     0.15991   0.22601   0.51994   0.00000  Uiso   1.00
C111   C     0.18739   0.30422   0.51606   0.00000  Uiso   1.00
C112   C     0.34765   0.34019   0.66926   0.00000  Uiso   1.00
C113   C     0.00990   0.02550   0.38505   0.00000  Uiso   1.00
C114   C     0.91127   0.93512   0.26778   0.00000  Uiso   1.00
C115   C     0.94527   0.80228   0.30744   0.00000  Uiso   1.00
H116   H     0.32987   0.06835   0.76431   0.00000  Uiso   1.00
H117   H     0.20701   0.18392   0.69978   0.00000  Uiso   1.00
H118   H     0.54729   0.18938   0.94192   0.00000  Uiso   1.00
H119   H     0.27121   0.82035   0.69368   0.00000  Uiso   1.00
H120   H     0.01435   0.33011   0.56143   0.00000  Uiso   1.00
H121   H     0.73185   0.34158   0.07201   0.00000  Uiso   1.00
H122   H     0.14971   0.56340   0.54855   0.00000  Uiso   1.00
H123   H     0.89473   0.20715   0.24943   0.00000  Uiso   1.00
H124   H     0.74798   0.33034   0.15663   0.00000  Uiso   1.00
H125   H     0.08827   0.33580   0.39879   0.00000  Uiso   1.00
H126   H     0.81219   0.96677   0.15054   0.00000  Uiso   1.00
H127   H     0.64179   0.44895   0.12060   0.00000  Uiso   1.00
H128   H     0.35930   0.46042   0.63119   0.00000  Uiso   1.00
H129   H     0.77715   0.68224   0.10772   0.00000  Uiso   1.00
O130   O     0.73941   0.46809   0.28929   0.00000  Uiso   1.00
O131   O     0.68076   0.48313   0.95915   0.00000  Uiso   1.00
O132   O     0.91699   0.46217   0.27237   0.00000  Uiso   1.00
N133   N     0.94679   0.34115   0.47040   0.00000  Uiso   1.00
N134   N     0.61761   0.35190   0.94777   0.00000  Uiso   1.00
N135   N     0.07338   0.62436   0.45839   0.00000  Uiso   1.00
N136   N     0.74632   0.40509   0.23319   0.00000  Uiso   1.00
N137   N     0.41714   0.41584   0.71056   0.00000  Uiso   1.00
N138   N     0.87291   0.68830   0.22118   0.00000  Uiso   1.00
C139   C     0.76983   0.10015   0.85365   0.00000  Uiso   1.00
C140   C     0.89693   0.18218   0.96012   0.00000  Uiso   1.00
C141   C     0.89212   0.21554   0.91750   0.00000  Uiso   1.00
C142   C     0.02004   0.29129   0.03189   0.00000  Uiso   1.00
C143   C     0.19788   0.41251   0.17413   0.00000  Uiso   1.00
C144   C     0.71205   0.18516   0.82855   0.00000  Uiso   1.00
C145   C     0.55178   0.22102   0.67531   0.00000  Uiso   1.00
C146   C     0.52408   0.29927   0.67895   0.00000  Uiso   1.00
C147   C     0.41486   0.42503   0.61693   0.00000  Uiso   1.00
C148   C     0.86205   0.98466   0.96343   0.00000  Uiso   1.00
C149   C     0.82789   0.85192   0.92358   0.00000  Uiso   1.00
C150   C     0.92645   0.76136   0.04078   0.00000  Uiso   1.00
C151   C     0.05014   0.57580   0.18817   0.00000  Uiso   1.00
C152   C     0.00557   0.17535   0.13260   0.00000  Uiso   1.00
C153   C     0.02497   0.22302   0.11164   0.00000  Uiso   1.00
C154   C     0.15295   0.29874   0.22613   0.00000  Uiso   1.00
C155   C     0.14833   0.33221   0.18368   0.00000  Uiso   1.00
C156   C     0.84009   0.22601   0.98006   0.00000  Uiso   1.00
C157   C     0.81261   0.30422   0.98394   0.00000  Uiso   1.00
C158   C     0.65235   0.34019   0.83074   0.00000  Uiso   1.00
C159   C     0.99010   0.02550   0.11495   0.00000  Uiso   1.00
C160   C     0.08873   0.93512   0.23222   0.00000  Uiso   1.00
C161   C     0.05473   0.80228   0.19256   0.00000  Uiso   1.00
H162   H     0.67013   0.06835   0.73569   0.00000  Uiso   1.00
H163   H     0.79299   0.18392   0.80022   0.00000  Uiso   1.00
H164   H     0.45271   0.18938   0.55808   0.00000  Uiso   1.00
H165   H     0.72879   0.82035   0.80632   0.00000  Uiso   1.00
H166   H     0.98565   0.33011   0.93857   0.00000  Uiso   1.00
H167   H     0.26815   0.34158   0.42799   0.00000  Uiso   1.00
H168   H     0.85029   0.56340   0.95145   0.00000  Uiso   1.00
H169   H     0.10527   0.20715   0.25057   0.00000  Uiso   1.00
H170   H     0.25202   0.33034   0.34337   0.00000  Uiso   1.00
H171   H     0.91173   0.33580   0.10121   0.00000  Uiso   1.00
H172   H     0.18781   0.96677   0.34946   0.00000  Uiso   1.00
H173   H     0.35821   0.44895   0.37940   0.00000  Uiso   1.00
H174   H     0.64070   0.46042   0.86881   0.00000  Uiso   1.00
H175   H     0.22285   0.68224   0.39228   0.00000  Uiso   1.00
O176   O     0.26059   0.46809   0.21071   0.00000  Uiso   1.00
O177   O     0.31924   0.48313   0.54085   0.00000  Uiso   1.00
O178   O     0.08301   0.46217   0.22763   0.00000  Uiso   1.00
N179   N     0.05321   0.34115   0.02960   0.00000  Uiso   1.00
N180   N     0.38239   0.35190   0.55223   0.00000  Uiso   1.00
N181   N     0.92662   0.62436   0.04161   0.00000  Uiso   1.00
N182   N     0.25368   0.40509   0.26681   0.00000  Uiso   1.00
N183   N     0.58286   0.41584   0.78944   0.00000  Uiso   1.00
N184   N     0.12709   0.68830   0.27882   0.00000  Uiso   1.00
