data_job_02842
_audit_creation_date              2018-12-19
_audit_creation_method            'Materials Studio'
_symmetry_space_group_name_H-M    'P1'
_symmetry_Int_Tables_number       1
_symmetry_cell_setting            triclinic
loop_
_symmetry_equiv_pos_as_xyz
  x,y,z
_cell_length_a                    16.5672
_cell_length_b                    9.9720
_cell_length_c                    25.2976
_cell_angle_alpha                 90.0000
_cell_angle_beta                  134.7660
_cell_angle_gamma                 90.0000
loop_
_atom_site_label
_atom_site_type_symbol
_atom_site_fract_x
_atom_site_fract_y
_atom_site_fract_z
_atom_site_U_iso_or_equiv
_atom_site_adp_type
_atom_site_occupancy
C1     C     0.21899   0.74946   0.50014   0.00000  Uiso   1.00
C2     C     0.25348   0.85068   0.47380   0.00000  Uiso   1.00
C3     C     0.19400   0.87766   0.40020   0.00000  Uiso   1.00
C4     C     0.23962   0.97375   0.38767   0.00000  Uiso   1.00
C5     C     0.27776   0.12073   0.33779   0.00000  Uiso   1.00
C6     C     0.31948   0.65402   0.55245   0.00000  Uiso   1.00
C7     C     0.31549   0.51566   0.54498   0.00000  Uiso   1.00
C8     C     0.41668   0.44622   0.59866   0.00000  Uiso   1.00
C9     C     0.55727   0.28789   0.67091   0.00000  Uiso   1.00
C10    C     0.21204   0.82773   0.54862   0.00000  Uiso   1.00
C11    C     0.11773   0.83539   0.53794   0.00000  Uiso   1.00
C12    C     0.12847   0.91217   0.58841   0.00000  Uiso   1.00
C13    C     0.10225   0.02354   0.65472   0.00000  Uiso   1.00
C14    C     0.40579   0.87214   0.60876   0.00000  Uiso   1.00
C15    C     0.35494   0.91731   0.53280   0.00000  Uiso   1.00
C16    C     0.40067   0.01339   0.52038   0.00000  Uiso   1.00
C17    C     0.34126   0.04051   0.44677   0.00000  Uiso   1.00
C18    C     0.42094   0.72065   0.61144   0.00000  Uiso   1.00
C19    C     0.52216   0.65140   0.66515   0.00000  Uiso   1.00
C20    C     0.51832   0.51297   0.65776   0.00000  Uiso   1.00
C21    C     0.31350   0.89437   0.60762   0.00000  Uiso   1.00
C22    C     0.32440   0.97113   0.65812   0.00000  Uiso   1.00
C23    C     0.23012   0.97892   0.64752   0.00000  Uiso   1.00
H24    H     0.14001   0.69757   0.45421   0.00000  Uiso   1.00
H25    H     0.11548   0.82606   0.35456   0.00000  Uiso   1.00
H26    H     0.23696   0.46412   0.49932   0.00000  Uiso   1.00
H27    H     0.03923   0.78381   0.49228   0.00000  Uiso   1.00
H28    H     0.13306   0.99786   0.27009   0.00000  Uiso   1.00
H29    H     0.38919   0.23470   0.57534   0.00000  Uiso   1.00
H30    H     0.97223   0.90882   0.56051   0.00000  Uiso   1.00
H31    H     0.48479   0.92401   0.65470   0.00000  Uiso   1.00
H32    H     0.47919   0.06494   0.56604   0.00000  Uiso   1.00
H33    H     0.60066   0.70300   0.71080   0.00000  Uiso   1.00
H34    H     0.40293   0.02268   0.70377   0.00000  Uiso   1.00
H35    H     0.42826   0.19174   0.44174   0.00000  Uiso   1.00
H36    H     0.68438   0.42857   0.74699   0.00000  Uiso   1.00
H37    H     0.26743   0.10269   0.73216   0.00000  Uiso   1.00
O38    O     0.27078   0.18338   0.29398   0.00000  Uiso   1.00
O39    O     0.60679   0.18214   0.69446   0.00000  Uiso   1.00
O40    O     0.05976   0.06657   0.67500   0.00000  Uiso   1.00
N41    N     0.20330   0.02417   0.32266   0.00000  Uiso   1.00
N42    N     0.44276   0.31066   0.60804   0.00000  Uiso   1.00
N43    N     0.05295   0.94087   0.59418   0.00000  Uiso   1.00
N44    N     0.36214   0.12849   0.41502   0.00000  Uiso   1.00
N45    N     0.60160   0.41499   0.70040   0.00000  Uiso   1.00
N46    N     0.21179   0.04520   0.68654   0.00000  Uiso   1.00
C47    C     0.78101   0.74946   0.99986   0.00000  Uiso   1.00
C48    C     0.74652   0.85068   0.02620   0.00000  Uiso   1.00
C49    C     0.80600   0.87766   0.09980   0.00000  Uiso   1.00
C50    C     0.76038   0.97375   0.11233   0.00000  Uiso   1.00
C51    C     0.72224   0.12073   0.16221   0.00000  Uiso   1.00
C52    C     0.68052   0.65402   0.94755   0.00000  Uiso   1.00
C53    C     0.68451   0.51566   0.95502   0.00000  Uiso   1.00
C54    C     0.58332   0.44622   0.90134   0.00000  Uiso   1.00
C55    C     0.44273   0.28789   0.82909   0.00000  Uiso   1.00
C56    C     0.78796   0.82773   0.95138   0.00000  Uiso   1.00
C57    C     0.88227   0.83539   0.96206   0.00000  Uiso   1.00
C58    C     0.87153   0.91217   0.91159   0.00000  Uiso   1.00
C59    C     0.89775   0.02354   0.84528   0.00000  Uiso   1.00
C60    C     0.59421   0.87214   0.89124   0.00000  Uiso   1.00
C61    C     0.64506   0.91731   0.96720   0.00000  Uiso   1.00
C62    C     0.59933   0.01339   0.97962   0.00000  Uiso   1.00
C63    C     0.65874   0.04051   0.05323   0.00000  Uiso   1.00
C64    C     0.57906   0.72065   0.88856   0.00000  Uiso   1.00
C65    C     0.47784   0.65140   0.83485   0.00000  Uiso   1.00
C66    C     0.48168   0.51297   0.84224   0.00000  Uiso   1.00
C67    C     0.68650   0.89437   0.89238   0.00000  Uiso   1.00
C68    C     0.67560   0.97113   0.84188   0.00000  Uiso   1.00
C69    C     0.76988   0.97892   0.85248   0.00000  Uiso   1.00
H70    H     0.85999   0.69757   0.04579   0.00000  Uiso   1.00
H71    H     0.88452   0.82606   0.14544   0.00000  Uiso   1.00
H72    H     0.76304   0.46412   0.00068   0.00000  Uiso   1.00
H73    H     0.96077   0.78381   0.00772   0.00000  Uiso   1.00
H74    H     0.86694   0.99786   0.22991   0.00000  Uiso   1.00
H75    H     0.61081   0.23470   0.92466   0.00000  Uiso   1.00
H76    H     0.02777   0.90882   0.93949   0.00000  Uiso   1.00
H77    H     0.51521   0.92401   0.84530   0.00000  Uiso   1.00
H78    H     0.52081   0.06494   0.93396   0.00000  Uiso   1.00
H79    H     0.39934   0.70300   0.78920   0.00000  Uiso   1.00
H80    H     0.59707   0.02268   0.79623   0.00000  Uiso   1.00
H81    H     0.57174   0.19174   0.05826   0.00000  Uiso   1.00
H82    H     0.31562   0.42857   0.75301   0.00000  Uiso   1.00
H83    H     0.73257   0.10269   0.76784   0.00000  Uiso   1.00
O84    O     0.72922   0.18338   0.20602   0.00000  Uiso   1.00
O85    O     0.39321   0.18214   0.80554   0.00000  Uiso   1.00
O86    O     0.94024   0.06657   0.82500   0.00000  Uiso   1.00
N87    N     0.79670   0.02417   0.17734   0.00000  Uiso   1.00
N88    N     0.55724   0.31066   0.89196   0.00000  Uiso   1.00
N89    N     0.94705   0.94087   0.90582   0.00000  Uiso   1.00
N90    N     0.63786   0.12849   0.08498   0.00000  Uiso   1.00
N91    N     0.39840   0.41499   0.79960   0.00000  Uiso   1.00
N92    N     0.78821   0.04520   0.81346   0.00000  Uiso   1.00
C93    C     0.78101   0.25054   0.49986   0.00000  Uiso   1.00
C94    C     0.74652   0.14932   0.52620   0.00000  Uiso   1.00
C95    C     0.80600   0.12234   0.59980   0.00000  Uiso   1.00
C96    C     0.76038   0.02625   0.61233   0.00000  Uiso   1.00
C97    C     0.72224   0.87927   0.66221   0.00000  Uiso   1.00
C98    C     0.68052   0.34598   0.44755   0.00000  Uiso   1.00
C99    C     0.68451   0.48434   0.45502   0.00000  Uiso   1.00
C100   C     0.58332   0.55378   0.40134   0.00000  Uiso   1.00
C101   C     0.44273   0.71211   0.32909   0.00000  Uiso   1.00
C102   C     0.78796   0.17227   0.45138   0.00000  Uiso   1.00
C103   C     0.88227   0.16461   0.46206   0.00000  Uiso   1.00
C104   C     0.87153   0.08783   0.41159   0.00000  Uiso   1.00
C105   C     0.89775   0.97646   0.34528   0.00000  Uiso   1.00
C106   C     0.59421   0.12786   0.39124   0.00000  Uiso   1.00
C107   C     0.64506   0.08269   0.46720   0.00000  Uiso   1.00
C108   C     0.59933   0.98661   0.47962   0.00000  Uiso   1.00
C109   C     0.65874   0.95949   0.55323   0.00000  Uiso   1.00
C110   C     0.57906   0.27935   0.38856   0.00000  Uiso   1.00
C111   C     0.47784   0.34860   0.33485   0.00000  Uiso   1.00
C112   C     0.48168   0.48703   0.34224   0.00000  Uiso   1.00
C113   C     0.68650   0.10563   0.39238   0.00000  Uiso   1.00
C114   C     0.67560   0.02887   0.34188   0.00000  Uiso   1.00
C115   C     0.76988   0.02108   0.35248   0.00000  Uiso   1.00
H116   H     0.85999   0.30243   0.54579   0.00000  Uiso   1.00
H117   H     0.88452   0.17394   0.64544   0.00000  Uiso   1.00
H118   H     0.76304   0.53588   0.50068   0.00000  Uiso   1.00
H119   H     0.96077   0.21619   0.50772   0.00000  Uiso   1.00
H120   H     0.86694   0.00214   0.72991   0.00000  Uiso   1.00
H121   H     0.61081   0.76530   0.42466   0.00000  Uiso   1.00
H122   H     0.02777   0.09118   0.43949   0.00000  Uiso   1.00
H123   H     0.51521   0.07599   0.34530   0.00000  Uiso   1.00
H124   H     0.52081   0.93506   0.43396   0.00000  Uiso   1.00
H125   H     0.39934   0.29700   0.28920   0.00000  Uiso   1.00
H126   H     0.59707   0.97732   0.29623   0.00000  Uiso   1.00
H127   H     0.57174   0.80826   0.55826   0.00000  Uiso   1.00
H128   H     0.31562   0.57143   0.25301   0.00000  Uiso   1.00
H129   H     0.73257   0.89731   0.26784   0.00000  Uiso   1.00
O130   O     0.72922   0.81662   0.70602   0.00000  Uiso   1.00
O131   O     0.39321   0.81786   0.30554   0.00000  Uiso   1.00
O132   O     0.94024   0.93343   0.32500   0.00000  Uiso   1.00
N133   N     0.79670   0.97583   0.67734   0.00000  Uiso   1.00
N134   N     0.55724   0.68934   0.39196   0.00000  Uiso   1.00
N135   N     0.94705   0.05913   0.40582   0.00000  Uiso   1.00
N136   N     0.63786   0.87151   0.58498   0.00000  Uiso   1.00
N137   N     0.39840   0.58501   0.29960   0.00000  Uiso   1.00
N138   N     0.78821   0.95480   0.31346   0.00000  Uiso   1.00
C139   C     0.21899   0.25054   0.00014   0.00000  Uiso   1.00
C140   C     0.25348   0.14932   0.97380   0.00000  Uiso   1.00
C141   C     0.19400   0.12234   0.90020   0.00000  Uiso   1.00
C142   C     0.23962   0.02625   0.88767   0.00000  Uiso   1.00
C143   C     0.27776   0.87927   0.83779   0.00000  Uiso   1.00
C144   C     0.31948   0.34598   0.05245   0.00000  Uiso   1.00
C145   C     0.31549   0.48434   0.04498   0.00000  Uiso   1.00
C146   C     0.41668   0.55378   0.09866   0.00000  Uiso   1.00
C147   C     0.55727   0.71211   0.17091   0.00000  Uiso   1.00
C148   C     0.21204   0.17227   0.04862   0.00000  Uiso   1.00
C149   C     0.11773   0.16461   0.03794   0.00000  Uiso   1.00
C150   C     0.12847   0.08783   0.08841   0.00000  Uiso   1.00
C151   C     0.10225   0.97646   0.15472   0.00000  Uiso   1.00
C152   C     0.40579   0.12786   0.10876   0.00000  Uiso   1.00
C153   C     0.35494   0.08269   0.03280   0.00000  Uiso   1.00
C154   C     0.40067   0.98661   0.02038   0.00000  Uiso   1.00
C155   C     0.34126   0.95949   0.94677   0.00000  Uiso   1.00
C156   C     0.42094   0.27935   0.11144   0.00000  Uiso   1.00
C157   C     0.52216   0.34860   0.16515   0.00000  Uiso   1.00
C158   C     0.51832   0.48703   0.15776   0.00000  Uiso   1.00
C159   C     0.31350   0.10563   0.10762   0.00000  Uiso   1.00
C160   C     0.32440   0.02887   0.15812   0.00000  Uiso   1.00
C161   C     0.23012   0.02108   0.14752   0.00000  Uiso   1.00
H162   H     0.14001   0.30243   0.95421   0.00000  Uiso   1.00
H163   H     0.11548   0.17394   0.85456   0.00000  Uiso   1.00
H164   H     0.23696   0.53588   0.99932   0.00000  Uiso   1.00
H165   H     0.03923   0.21619   0.99228   0.00000  Uiso   1.00
H166   H     0.13306   0.00214   0.77009   0.00000  Uiso   1.00
H167   H     0.38919   0.76530   0.07534   0.00000  Uiso   1.00
H168   H     0.97223   0.09118   0.06051   0.00000  Uiso   1.00
H169   H     0.48479   0.07599   0.15470   0.00000  Uiso   1.00
H170   H     0.47919   0.93506   0.06604   0.00000  Uiso   1.00
H171   H     0.60066   0.29700   0.21080   0.00000  Uiso   1.00
H172   H     0.40293   0.97732   0.20377   0.00000  Uiso   1.00
H173   H     0.42826   0.80826   0.94174   0.00000  Uiso   1.00
H174   H     0.68438   0.57143   0.24699   0.00000  Uiso   1.00
H175   H     0.26743   0.89731   0.23216   0.00000  Uiso   1.00
O176   O     0.27078   0.81662   0.79398   0.00000  Uiso   1.00
O177   O     0.60679   0.81786   0.19446   0.00000  Uiso   1.00
O178   O     0.05976   0.93343   0.17500   0.00000  Uiso   1.00
N179   N     0.20330   0.97583   0.82266   0.00000  Uiso   1.00
N180   N     0.44276   0.68934   0.10804   0.00000  Uiso   1.00
N181   N     0.05295   0.05913   0.09418   0.00000  Uiso   1.00
N182   N     0.36214   0.87151   0.91502   0.00000  Uiso   1.00
N183   N     0.60160   0.58501   0.20040   0.00000  Uiso   1.00
N184   N     0.21179   0.95480   0.18654   0.00000  Uiso   1.00
