data_job_06406
_audit_creation_date              2018-12-19
_audit_creation_method            'Materials Studio'
_symmetry_space_group_name_H-M    'P1'
_symmetry_Int_Tables_number       1
_symmetry_cell_setting            triclinic
loop_
_symmetry_equiv_pos_as_xyz
  x,y,z
_cell_length_a                    16.6024
_cell_length_b                    16.7142
_cell_length_c                    16.7514
_cell_angle_alpha                 105.6870
_cell_angle_beta                  106.0280
_cell_angle_gamma                 106.1100
loop_
_atom_site_label
_atom_site_type_symbol
_atom_site_fract_x
_atom_site_fract_y
_atom_site_fract_z
_atom_site_U_iso_or_equiv
_atom_site_adp_type
_atom_site_occupancy
C1     C     0.67631   0.07526   0.74313   0.00000  Uiso   1.00
C2     C     0.73859   0.07104   0.69144   0.00000  Uiso   1.00
C3     C     0.71884   0.06783   0.60428   0.00000  Uiso   1.00
C4     C     0.78478   0.06419   0.56895   0.00000  Uiso   1.00
C5     C     0.86888   0.05765   0.48106   0.00000  Uiso   1.00
C6     C     0.66456   0.99533   0.77239   0.00000  Uiso   1.00
C7     C     0.58256   0.92848   0.75329   0.00000  Uiso   1.00
C8     C     0.58619   0.86111   0.78611   0.00000  Uiso   1.00
C9     C     0.55535   0.73707   0.82394   0.00000  Uiso   1.00
C10    C     0.73011   0.15889   0.82879   0.00000  Uiso   1.00
C11    C     0.70322   0.22956   0.85712   0.00000  Uiso   1.00
C12    C     0.76202   0.29989   0.93744   0.00000  Uiso   1.00
C13    C     0.83296   0.42980   0.06284   0.00000  Uiso   1.00
C14    C     0.82854   0.07451   0.83540   0.00000  Uiso   1.00
C15    C     0.82127   0.07063   0.74156   0.00000  Uiso   1.00
C16    C     0.88726   0.06700   0.70636   0.00000  Uiso   1.00
C17    C     0.86761   0.06379   0.61916   0.00000  Uiso   1.00
C18    C     0.74724   0.99492   0.82250   0.00000  Uiso   1.00
C19    C     0.75098   0.92764   0.85537   0.00000  Uiso   1.00
C20    C     0.66902   0.86070   0.83632   0.00000  Uiso   1.00
C21    C     0.81279   0.15848   0.87890   0.00000  Uiso   1.00
C22    C     0.87164   0.22872   0.95920   0.00000  Uiso   1.00
C23    C     0.84485   0.29948   0.98765   0.00000  Uiso   1.00
H24    H     0.61194   0.07558   0.70412   0.00000  Uiso   1.00
H25    H     0.65484   0.06814   0.56552   0.00000  Uiso   1.00
H26    H     0.51859   0.92881   0.71451   0.00000  Uiso   1.00
H27    H     0.63923   0.22985   0.81832   0.00000  Uiso   1.00
H28    H     0.73886   0.05968   0.43394   0.00000  Uiso   1.00
H29    H     0.45156   0.76592   0.74813   0.00000  Uiso   1.00
H30    H     0.70595   0.40071   0.96704   0.00000  Uiso   1.00
H31    H     0.89292   0.07419   0.87442   0.00000  Uiso   1.00
H32    H     0.95124   0.06668   0.74516   0.00000  Uiso   1.00
H33    H     0.81498   0.92735   0.89415   0.00000  Uiso   1.00
H34    H     0.93562   0.22838   0.99796   0.00000  Uiso   1.00
H35    H     0.97942   0.05849   0.57974   0.00000  Uiso   1.00
H36    H     0.69212   0.76473   0.89394   0.00000  Uiso   1.00
H37    H     0.94652   0.39952   0.11285   0.00000  Uiso   1.00
O38    O     0.89242   0.05414   0.41873   0.00000  Uiso   1.00
O39    O     0.51550   0.66875   0.83095   0.00000  Uiso   1.00
O40    O     0.84926   0.50158   0.11815   0.00000  Uiso   1.00
N41    N     0.78748   0.06045   0.48600   0.00000  Uiso   1.00
N42    N     0.51887   0.78580   0.77974   0.00000  Uiso   1.00
N43    N     0.75669   0.37926   0.98441   0.00000  Uiso   1.00
N44    N     0.91692   0.05981   0.56446   0.00000  Uiso   1.00
N45    N     0.64832   0.78516   0.85819   0.00000  Uiso   1.00
N46    N     0.88614   0.37862   0.06287   0.00000  Uiso   1.00
C47    C     0.74204   0.67749   0.07508   0.00000  Uiso   1.00
C48    C     0.68951   0.73894   0.07018   0.00000  Uiso   1.00
C49    C     0.60135   0.71894   0.06654   0.00000  Uiso   1.00
C50    C     0.56538   0.78410   0.06231   0.00000  Uiso   1.00
C51    C     0.47613   0.86701   0.05475   0.00000  Uiso   1.00
C52    C     0.77165   0.66624   0.99563   0.00000  Uiso   1.00
C53    C     0.75256   0.58510   0.92931   0.00000  Uiso   1.00
C54    C     0.78573   0.58906   0.86233   0.00000  Uiso   1.00
C55    C     0.82406   0.55908   0.73906   0.00000  Uiso   1.00
C56    C     0.82860   0.73097   0.15871   0.00000  Uiso   1.00
C57    C     0.85741   0.70426   0.22950   0.00000  Uiso   1.00
C58    C     0.93855   0.76272   0.29982   0.00000  Uiso   1.00
C59    C     0.06530   0.83326   0.42976   0.00000  Uiso   1.00
C60    C     0.83492   0.82880   0.07406   0.00000  Uiso   1.00
C61    C     0.73997   0.82113   0.06963   0.00000  Uiso   1.00
C62    C     0.70411   0.88635   0.06542   0.00000  Uiso   1.00
C63    C     0.61591   0.86644   0.06176   0.00000  Uiso   1.00
C64    C     0.82210   0.74842   0.99508   0.00000  Uiso   1.00
C65    C     0.85532   0.75251   0.92819   0.00000  Uiso   1.00
C66    C     0.83627   0.67140   0.86178   0.00000  Uiso   1.00
C67    C     0.87905   0.81316   0.15816   0.00000  Uiso   1.00
C68    C     0.96017   0.87167   0.22838   0.00000  Uiso   1.00
C69    C     0.98909   0.84505   0.29927   0.00000  Uiso   1.00
H70    H     0.70277   0.61350   0.07550   0.00000  Uiso   1.00
H71    H     0.56233   0.65532   0.06696   0.00000  Uiso   1.00
H72    H     0.71352   0.52151   0.92976   0.00000  Uiso   1.00
H73    H     0.81836   0.64066   0.22990   0.00000  Uiso   1.00
H74    H     0.42887   0.73792   0.05721   0.00000  Uiso   1.00
H75    H     0.74769   0.45576   0.76793   0.00000  Uiso   1.00
H76    H     0.96876   0.70700   0.40085   0.00000  Uiso   1.00
H77    H     0.87420   0.89279   0.07363   0.00000  Uiso   1.00
H78    H     0.74317   0.94994   0.06499   0.00000  Uiso   1.00
H79    H     0.89436   0.81612   0.92778   0.00000  Uiso   1.00
H80    H     0.99919   0.93527   0.22793   0.00000  Uiso   1.00
H81    H     0.57564   0.97704   0.05561   0.00000  Uiso   1.00
H82    H     0.89446   0.69488   0.76633   0.00000  Uiso   1.00
H83    H     0.11553   0.94612   0.39925   0.00000  Uiso   1.00
O84    O     0.41296   0.89003   0.05072   0.00000  Uiso   1.00
O85    O     0.83125   0.51984   0.67121   0.00000  Uiso   1.00
O86    O     0.12128   0.84947   0.50159   0.00000  Uiso   1.00
N87    N     0.48140   0.78636   0.05804   0.00000  Uiso   1.00
N88    N     0.77946   0.52256   0.78757   0.00000  Uiso   1.00
N89    N     0.98616   0.75744   0.37929   0.00000  Uiso   1.00
N90    N     0.56038   0.91503   0.05717   0.00000  Uiso   1.00
N91    N     0.85844   0.65123   0.78671   0.00000  Uiso   1.00
N92    N     0.06513   0.88611   0.37843   0.00000  Uiso   1.00
C93    C     0.07694   0.74341   0.67821   0.00000  Uiso   1.00
C94    C     0.07220   0.69115   0.73975   0.00000  Uiso   1.00
C95    C     0.06879   0.60384   0.72028   0.00000  Uiso   1.00
C96    C     0.06467   0.56797   0.78543   0.00000  Uiso   1.00
C97    C     0.05736   0.47924   0.86854   0.00000  Uiso   1.00
C98    C     0.99642   0.77237   0.66632   0.00000  Uiso   1.00
C99    C     0.92931   0.75336   0.58510   0.00000  Uiso   1.00
C100   C     0.86141   0.78588   0.58843   0.00000  Uiso   1.00
C101   C     0.73650   0.82331   0.55754   0.00000  Uiso   1.00
C102   C     0.16133   0.82944   0.73160   0.00000  Uiso   1.00
C103   C     0.23287   0.85844   0.70525   0.00000  Uiso   1.00
C104   C     0.30381   0.93902   0.76354   0.00000  Uiso   1.00
C105   C     0.43494   0.06506   0.83399   0.00000  Uiso   1.00
C106   C     0.07568   0.83497   0.82856   0.00000  Uiso   1.00
C107   C     0.07151   0.74088   0.82141   0.00000  Uiso   1.00
C108   C     0.06740   0.70514   0.88661   0.00000  Uiso   1.00
C109   C     0.06399   0.61779   0.86724   0.00000  Uiso   1.00
C110   C     0.99574   0.82211   0.74797   0.00000  Uiso   1.00
C111   C     0.92792   0.85466   0.75143   0.00000  Uiso   1.00
C112   C     0.86073   0.83570   0.67024   0.00000  Uiso   1.00
C113   C     0.16065   0.87918   0.81326   0.00000  Uiso   1.00
C114   C     0.23148   0.95973   0.87159   0.00000  Uiso   1.00
C115   C     0.30312   0.98884   0.84534   0.00000  Uiso   1.00
H116   H     0.07747   0.70469   0.61463   0.00000  Uiso   1.00
H117   H     0.06931   0.56537   0.65707   0.00000  Uiso   1.00
H118   H     0.92986   0.71488   0.52191   0.00000  Uiso   1.00
H119   H     0.23338   0.81993   0.64205   0.00000  Uiso   1.00
H120   H     0.05994   0.43282   0.74011   0.00000  Uiso   1.00
H121   H     0.76592   0.74811   0.45513   0.00000  Uiso   1.00
H122   H     0.40594   0.96963   0.70846   0.00000  Uiso   1.00
H123   H     0.07515   0.87369   0.89213   0.00000  Uiso   1.00
H124   H     0.06687   0.74364   0.94980   0.00000  Uiso   1.00
H125   H     0.92742   0.89315   0.81464   0.00000  Uiso   1.00
H126   H     0.23094   0.99820   0.93478   0.00000  Uiso   1.00
H127   H     0.05795   0.57751   0.97770   0.00000  Uiso   1.00
H128   H     0.76393   0.89280   0.69271   0.00000  Uiso   1.00
H129   H     0.40395   0.11432   0.94605   0.00000  Uiso   1.00
O130   O     0.05351   0.41656   0.89182   0.00000  Uiso   1.00
O131   O     0.66778   0.83021   0.51793   0.00000  Uiso   1.00
O132   O     0.50747   0.12084   0.85030   0.00000  Uiso   1.00
N133   N     0.06062   0.48473   0.78812   0.00000  Uiso   1.00
N134   N     0.78573   0.77949   0.52168   0.00000  Uiso   1.00
N135   N     0.38408   0.98661   0.75851   0.00000  Uiso   1.00
N136   N     0.05956   0.56259   0.91597   0.00000  Uiso   1.00
N137   N     0.78466   0.85735   0.64953   0.00000  Uiso   1.00
N138   N     0.38301   0.06446   0.88636   0.00000  Uiso   1.00
C139   C     0.17644   0.24261   0.57467   0.00000  Uiso   1.00
C140   C     0.23865   0.19079   0.57038   0.00000  Uiso   1.00
C141   C     0.21878   0.10337   0.56710   0.00000  Uiso   1.00
C142   C     0.28467   0.06797   0.56341   0.00000  Uiso   1.00
C143   C     0.36866   0.97985   0.55676   0.00000  Uiso   1.00
C144   C     0.16485   0.27203   0.49501   0.00000  Uiso   1.00
C145   C     0.08292   0.25292   0.42836   0.00000  Uiso   1.00
C146   C     0.08669   0.28592   0.36123   0.00000  Uiso   1.00
C147   C     0.05609   0.32398   0.23759   0.00000  Uiso   1.00
C148   C     0.23024   0.32844   0.65813   0.00000  Uiso   1.00
C149   C     0.20329   0.35677   0.72863   0.00000  Uiso   1.00
C150   C     0.26211   0.43727   0.79883   0.00000  Uiso   1.00
C151   C     0.33304   0.56291   0.92848   0.00000  Uiso   1.00
C152   C     0.32881   0.33519   0.57397   0.00000  Uiso   1.00
C153   C     0.32141   0.24109   0.57000   0.00000  Uiso   1.00
C154   C     0.38735   0.20581   0.56632   0.00000  Uiso   1.00
C155   C     0.36758   0.11835   0.56303   0.00000  Uiso   1.00
C156   C     0.24760   0.32232   0.49463   0.00000  Uiso   1.00
C157   C     0.25149   0.35536   0.42758   0.00000  Uiso   1.00
C158   C     0.16960   0.33630   0.36084   0.00000  Uiso   1.00
C159   C     0.31300   0.37873   0.65776   0.00000  Uiso   1.00
C160   C     0.37187   0.45920   0.72786   0.00000  Uiso   1.00
C161   C     0.34501   0.48765   0.79845   0.00000  Uiso   1.00
H162   H     0.11201   0.20345   0.57496   0.00000  Uiso   1.00
H163   H     0.15472   0.06447   0.56738   0.00000  Uiso   1.00
H164   H     0.01889   0.21401   0.42867   0.00000  Uiso   1.00
H165   H     0.13924   0.31784   0.72890   0.00000  Uiso   1.00
H166   H     0.23856   0.93255   0.55878   0.00000  Uiso   1.00
H167   H     0.95214   0.24788   0.26632   0.00000  Uiso   1.00
H168   H     0.20593   0.46682   0.89941   0.00000  Uiso   1.00
H169   H     0.39324   0.37435   0.57367   0.00000  Uiso   1.00
H170   H     0.45139   0.24474   0.56603   0.00000  Uiso   1.00
H171   H     0.31555   0.39428   0.42731   0.00000  Uiso   1.00
H172   H     0.43590   0.49810   0.72754   0.00000  Uiso   1.00
H173   H     0.47934   0.07886   0.55767   0.00000  Uiso   1.00
H174   H     0.19292   0.39420   0.26521   0.00000  Uiso   1.00
H175   H     0.44671   0.61313   0.89830   0.00000  Uiso   1.00
O176   O     0.39212   0.91735   0.55319   0.00000  Uiso   1.00
O177   O     0.01634   0.33107   0.16950   0.00000  Uiso   1.00
O178   O     0.34931   0.61831   0.00010   0.00000  Uiso   1.00
N179   N     0.28726   0.98478   0.55959   0.00000  Uiso   1.00
N180   N     0.01947   0.27958   0.28614   0.00000  Uiso   1.00
N181   N     0.25673   0.48429   0.87802   0.00000  Uiso   1.00
N182   N     0.41682   0.06351   0.55899   0.00000  Uiso   1.00
N183   N     0.14903   0.35831   0.28555   0.00000  Uiso   1.00
N184   N     0.38630   0.56302   0.87743   0.00000  Uiso   1.00
C185   C     0.24209   0.57585   0.17787   0.00000  Uiso   1.00
C186   C     0.18947   0.57086   0.23915   0.00000  Uiso   1.00
C187   C     0.10133   0.56719   0.21923   0.00000  Uiso   1.00
C188   C     0.06525   0.56287   0.28421   0.00000  Uiso   1.00
C189   C     0.97587   0.55517   0.36690   0.00000  Uiso   1.00
C190   C     0.27160   0.49619   0.16655   0.00000  Uiso   1.00
C191   C     0.25253   0.42976   0.08558   0.00000  Uiso   1.00
C192   C     0.28560   0.36259   0.08945   0.00000  Uiso   1.00
C193   C     0.32379   0.23901   0.05941   0.00000  Uiso   1.00
C194   C     0.32870   0.65970   0.23126   0.00000  Uiso   1.00
C195   C     0.35765   0.73073   0.20469   0.00000  Uiso   1.00
C196   C     0.43881   0.80122   0.26303   0.00000  Uiso   1.00
C197   C     0.56565   0.93151   0.33346   0.00000  Uiso   1.00
C198   C     0.33475   0.57470   0.32870   0.00000  Uiso   1.00
C199   C     0.23980   0.57023   0.32108   0.00000  Uiso   1.00
C200   C     0.20385   0.56592   0.38612   0.00000  Uiso   1.00
C201   C     0.11567   0.56225   0.36629   0.00000  Uiso   1.00
C202   C     0.32193   0.49556   0.24847   0.00000  Uiso   1.00
C203   C     0.35505   0.42848   0.25246   0.00000  Uiso   1.00
C204   C     0.33602   0.36196   0.17152   0.00000  Uiso   1.00
C205   C     0.37903   0.65907   0.31319   0.00000  Uiso   1.00
C206   C     0.46016   0.72946   0.37158   0.00000  Uiso   1.00
C207   C     0.48923   0.80059   0.34511   0.00000  Uiso   1.00
H208   H     0.20291   0.57633   0.11408   0.00000  Uiso   1.00
H209   H     0.06240   0.56767   0.15581   0.00000  Uiso   1.00
H210   H     0.21359   0.43027   0.02219   0.00000  Uiso   1.00
H211   H     0.31869   0.73119   0.14128   0.00000  Uiso   1.00
H212   H     0.92881   0.55776   0.23821   0.00000  Uiso   1.00
H213   H     0.24762   0.26805   0.95644   0.00000  Uiso   1.00
H214   H     0.46924   0.90262   0.20758   0.00000  Uiso   1.00
H215   H     0.37394   0.57421   0.39249   0.00000  Uiso   1.00
H216   H     0.24281   0.56543   0.44951   0.00000  Uiso   1.00
H217   H     0.39399   0.42802   0.31588   0.00000  Uiso   1.00
H218   H     0.49909   0.72895   0.43497   0.00000  Uiso   1.00
H219   H     0.07523   0.55594   0.47658   0.00000  Uiso   1.00
H220   H     0.39404   0.26623   0.19481   0.00000  Uiso   1.00
H221   H     0.61566   0.90080   0.44595   0.00000  Uiso   1.00
O222   O     0.91267   0.55108   0.38986   0.00000  Uiso   1.00
O223   O     0.33094   0.17101   0.02020   0.00000  Uiso   1.00
O224   O     0.62170   0.00355   0.34969   0.00000  Uiso   1.00
N225   N     0.98127   0.55855   0.28649   0.00000  Uiso   1.00
N226   N     0.27932   0.28768   0.02306   0.00000  Uiso   1.00
N227   N     0.48653   0.88094   0.25784   0.00000  Uiso   1.00
N228   N     0.06006   0.55757   0.41476   0.00000  Uiso   1.00
N229   N     0.35811   0.28670   0.15132   0.00000  Uiso   1.00
N230   N     0.56532   0.87996   0.38610   0.00000  Uiso   1.00
C231   C     0.57676   0.17771   0.24388   0.00000  Uiso   1.00
C232   C     0.57218   0.23948   0.19184   0.00000  Uiso   1.00
C233   C     0.56887   0.22004   0.10477   0.00000  Uiso   1.00
C234   C     0.56490   0.28542   0.06907   0.00000  Uiso   1.00
C235   C     0.55784   0.36888   0.98070   0.00000  Uiso   1.00
C236   C     0.49618   0.16572   0.27278   0.00000  Uiso   1.00
C237   C     0.42898   0.08426   0.25375   0.00000  Uiso   1.00
C238   C     0.36104   0.08755   0.28620   0.00000  Uiso   1.00
C239   C     0.23602   0.05647   0.32353   0.00000  Uiso   1.00
C240   C     0.66110   0.23118   0.32970   0.00000  Uiso   1.00
C241   C     0.73256   0.20475   0.35855   0.00000  Uiso   1.00
C242   C     0.80347   0.26314   0.43894   0.00000  Uiso   1.00
C243   C     0.93452   0.33371   0.56464   0.00000  Uiso   1.00
C244   C     0.57559   0.32839   0.33534   0.00000  Uiso   1.00
C245   C     0.57154   0.32132   0.24152   0.00000  Uiso   1.00
C246   C     0.56758   0.38676   0.20595   0.00000  Uiso   1.00
C247   C     0.56427   0.36742   0.11884   0.00000  Uiso   1.00
C248   C     0.49554   0.24756   0.32245   0.00000  Uiso   1.00
C249   C     0.42769   0.25097   0.35494   0.00000  Uiso   1.00
C250   C     0.36040   0.16954   0.33597   0.00000  Uiso   1.00
C251   C     0.66047   0.31302   0.37938   0.00000  Uiso   1.00
C252   C     0.73127   0.37146   0.45974   0.00000  Uiso   1.00
C253   C     0.80283   0.34513   0.48870   0.00000  Uiso   1.00
H254   H     0.57725   0.11398   0.20521   0.00000  Uiso   1.00
H255   H     0.56936   0.15669   0.06634   0.00000  Uiso   1.00
H256   H     0.42950   0.02093   0.21532   0.00000  Uiso   1.00
H257   H     0.73303   0.14141   0.32009   0.00000  Uiso   1.00
H258   H     0.56029   0.24012   0.93428   0.00000  Uiso   1.00
H259   H     0.26540   0.95386   0.24842   0.00000  Uiso   1.00
H260   H     0.90547   0.20790   0.46937   0.00000  Uiso   1.00
H261   H     0.57509   0.39211   0.37402   0.00000  Uiso   1.00
H262   H     0.56709   0.45008   0.24441   0.00000  Uiso   1.00
H263   H     0.42722   0.31432   0.39339   0.00000  Uiso   1.00
H264   H     0.73076   0.43479   0.49816   0.00000  Uiso   1.00
H265   H     0.55845   0.47825   0.07881   0.00000  Uiso   1.00
H266   H     0.26355   0.19198   0.39296   0.00000  Uiso   1.00
H267   H     0.90362   0.44603   0.61389   0.00000  Uiso   1.00
O268   O     0.55411   0.39229   0.91823   0.00000  Uiso   1.00
O269   O     0.16724   0.01672   0.33039   0.00000  Uiso   1.00
O270   O     0.00699   0.35002   0.62025   0.00000  Uiso   1.00
N271   N     0.56098   0.28822   0.98609   0.00000  Uiso   1.00
N272   N     0.28526   0.02058   0.27978   0.00000  Uiso   1.00
N273   N     0.88366   0.25808   0.48635   0.00000  Uiso   1.00
N274   N     0.55998   0.41635   0.06386   0.00000  Uiso   1.00
N275   N     0.28427   0.14871   0.35755   0.00000  Uiso   1.00
N276   N     0.88267   0.38621   0.56412   0.00000  Uiso   1.00
