data_job_03022
_audit_creation_date              2018-12-19
_audit_creation_method            'Materials Studio'
_symmetry_space_group_name_H-M    'P1'
_symmetry_Int_Tables_number       1
_symmetry_cell_setting            triclinic
loop_
_symmetry_equiv_pos_as_xyz
  x,y,z
_cell_length_a                    9.0585
_cell_length_b                    14.5661
_cell_length_c                    15.9173
_cell_angle_alpha                 90.0000
_cell_angle_beta                  90.0000
_cell_angle_gamma                 90.0000
loop_
_atom_site_label
_atom_site_type_symbol
_atom_site_fract_x
_atom_site_fract_y
_atom_site_fract_z
_atom_site_U_iso_or_equiv
_atom_site_adp_type
_atom_site_occupancy
C1     C     0.89332   0.79396   0.72784   0.00000  Uiso   1.00
C2     C     0.83698   0.69604   0.71687   0.00000  Uiso   1.00
C3     C     0.70084   0.67124   0.68395   0.00000  Uiso   1.00
C4     C     0.67004   0.57802   0.67918   0.00000  Uiso   1.00
C5     C     0.56704   0.43601   0.65806   0.00000  Uiso   1.00
C6     C     0.93209   0.80384   0.82062   0.00000  Uiso   1.00
C7     C     0.87594   0.86970   0.87493   0.00000  Uiso   1.00
C8     C     0.92522   0.86723   0.95749   0.00000  Uiso   1.00
C9     C     0.96997   0.89263   0.09743   0.00000  Uiso   1.00
C10    C     0.03930   0.79876   0.68033   0.00000  Uiso   1.00
C11    C     0.07331   0.86035   0.61669   0.00000  Uiso   1.00
C12    C     0.21287   0.85361   0.58116   0.00000  Uiso   1.00
C13    C     0.42408   0.87112   0.50327   0.00000  Uiso   1.00
C14    C     0.08072   0.67249   0.77791   0.00000  Uiso   1.00
C15    C     0.93877   0.63006   0.74407   0.00000  Uiso   1.00
C16    C     0.90817   0.53685   0.73935   0.00000  Uiso   1.00
C17    C     0.77201   0.51192   0.70642   0.00000  Uiso   1.00
C18    C     0.03388   0.73787   0.84782   0.00000  Uiso   1.00
C19    C     0.08326   0.73530   0.93032   0.00000  Uiso   1.00
C20    C     0.02719   0.80113   0.98474   0.00000  Uiso   1.00
C21    C     0.14109   0.73277   0.70753   0.00000  Uiso   1.00
C22    C     0.28063   0.72595   0.67209   0.00000  Uiso   1.00
C23    C     0.31484   0.78752   0.60840   0.00000  Uiso   1.00
H24    H     0.81408   0.84533   0.70667   0.00000  Uiso   1.00
H25    H     0.62210   0.72233   0.66292   0.00000  Uiso   1.00
H26    H     0.79718   0.92076   0.85386   0.00000  Uiso   1.00
H27    H     0.99452   0.91140   0.59566   0.00000  Uiso   1.00
H28    H     0.45411   0.55686   0.62643   0.00000  Uiso   1.00
H29    H     0.82332   0.97527   0.02904   0.00000  Uiso   1.00
H30    H     0.23945   0.95556   0.48459   0.00000  Uiso   1.00
H31    H     0.15997   0.62112   0.79908   0.00000  Uiso   1.00
H32    H     0.98696   0.48580   0.76040   0.00000  Uiso   1.00
H33    H     0.16204   0.68423   0.95135   0.00000  Uiso   1.00
H34    H     0.35937   0.67488   0.69315   0.00000  Uiso   1.00
H35    H     0.75024   0.36489   0.70556   0.00000  Uiso   1.00
H36    H     0.11946   0.78331   0.10817   0.00000  Uiso   1.00
H37    H     0.53558   0.76358   0.56371   0.00000  Uiso   1.00
O38    O     0.48211   0.37591   0.63891   0.00000  Uiso   1.00
O39    O     0.96652   0.92487   0.16711   0.00000  Uiso   1.00
O40    O     0.51246   0.89899   0.45279   0.00000  Uiso   1.00
N41    N     0.54756   0.53025   0.65035   0.00000  Uiso   1.00
N42    N     0.89273   0.92143   0.02677   0.00000  Uiso   1.00
N43    N     0.28179   0.90301   0.51776   0.00000  Uiso   1.00
N44    N     0.70691   0.42695   0.69292   0.00000  Uiso   1.00
N45    N     0.05208   0.81813   0.06934   0.00000  Uiso   1.00
N46    N     0.44114   0.79971   0.56034   0.00000  Uiso   1.00
C47    C     0.60668   0.20604   0.22784   0.00000  Uiso   1.00
C48    C     0.66302   0.30396   0.21687   0.00000  Uiso   1.00
C49    C     0.79916   0.32876   0.18395   0.00000  Uiso   1.00
C50    C     0.82996   0.42198   0.17918   0.00000  Uiso   1.00
C51    C     0.93296   0.56399   0.15806   0.00000  Uiso   1.00
C52    C     0.56791   0.19616   0.32062   0.00000  Uiso   1.00
C53    C     0.62406   0.13030   0.37493   0.00000  Uiso   1.00
C54    C     0.57478   0.13277   0.45749   0.00000  Uiso   1.00
C55    C     0.53003   0.10737   0.59743   0.00000  Uiso   1.00
C56    C     0.46070   0.20124   0.18033   0.00000  Uiso   1.00
C57    C     0.42669   0.13965   0.11669   0.00000  Uiso   1.00
C58    C     0.28713   0.14639   0.08116   0.00000  Uiso   1.00
C59    C     0.07592   0.12888   0.00327   0.00000  Uiso   1.00
C60    C     0.41928   0.32751   0.27791   0.00000  Uiso   1.00
C61    C     0.56123   0.36994   0.24407   0.00000  Uiso   1.00
C62    C     0.59183   0.46315   0.23935   0.00000  Uiso   1.00
C63    C     0.72799   0.48808   0.20642   0.00000  Uiso   1.00
C64    C     0.46612   0.26213   0.34782   0.00000  Uiso   1.00
C65    C     0.41674   0.26470   0.43032   0.00000  Uiso   1.00
C66    C     0.47281   0.19887   0.48474   0.00000  Uiso   1.00
C67    C     0.35891   0.26723   0.20753   0.00000  Uiso   1.00
C68    C     0.21937   0.27405   0.17209   0.00000  Uiso   1.00
C69    C     0.18516   0.21248   0.10840   0.00000  Uiso   1.00
H70    H     0.68592   0.15467   0.20667   0.00000  Uiso   1.00
H71    H     0.87790   0.27767   0.16292   0.00000  Uiso   1.00
H72    H     0.70282   0.07924   0.35386   0.00000  Uiso   1.00
H73    H     0.50548   0.08860   0.09566   0.00000  Uiso   1.00
H74    H     0.04589   0.44314   0.12643   0.00000  Uiso   1.00
H75    H     0.67668   0.02473   0.52904   0.00000  Uiso   1.00
H76    H     0.26055   0.04444   0.98459   0.00000  Uiso   1.00
H77    H     0.34003   0.37888   0.29908   0.00000  Uiso   1.00
H78    H     0.51304   0.51420   0.26040   0.00000  Uiso   1.00
H79    H     0.33796   0.31577   0.45135   0.00000  Uiso   1.00
H80    H     0.14063   0.32512   0.19315   0.00000  Uiso   1.00
H81    H     0.74976   0.63511   0.20556   0.00000  Uiso   1.00
H82    H     0.38054   0.21669   0.60817   0.00000  Uiso   1.00
H83    H     0.96442   0.23642   0.06371   0.00000  Uiso   1.00
O84    O     0.01789   0.62409   0.13891   0.00000  Uiso   1.00
O85    O     0.53348   0.07513   0.66711   0.00000  Uiso   1.00
O86    O     0.98754   0.10101   0.95279   0.00000  Uiso   1.00
N87    N     0.95244   0.46975   0.15035   0.00000  Uiso   1.00
N88    N     0.60727   0.07857   0.52677   0.00000  Uiso   1.00
N89    N     0.21821   0.09699   0.01776   0.00000  Uiso   1.00
N90    N     0.79309   0.57305   0.19292   0.00000  Uiso   1.00
N91    N     0.44792   0.18187   0.56934   0.00000  Uiso   1.00
N92    N     0.05886   0.20029   0.06034   0.00000  Uiso   1.00
C93    C     0.10668   0.29396   0.77216   0.00000  Uiso   1.00
C94    C     0.16302   0.19604   0.78313   0.00000  Uiso   1.00
C95    C     0.29916   0.17124   0.81605   0.00000  Uiso   1.00
C96    C     0.32996   0.07802   0.82082   0.00000  Uiso   1.00
C97    C     0.43296   0.93601   0.84194   0.00000  Uiso   1.00
C98    C     0.06791   0.30384   0.67938   0.00000  Uiso   1.00
C99    C     0.12406   0.36970   0.62507   0.00000  Uiso   1.00
C100   C     0.07478   0.36723   0.54251   0.00000  Uiso   1.00
C101   C     0.03003   0.39263   0.40257   0.00000  Uiso   1.00
C102   C     0.96070   0.29876   0.81967   0.00000  Uiso   1.00
C103   C     0.92669   0.36035   0.88331   0.00000  Uiso   1.00
C104   C     0.78713   0.35361   0.91884   0.00000  Uiso   1.00
C105   C     0.57592   0.37112   0.99673   0.00000  Uiso   1.00
C106   C     0.91928   0.17249   0.72209   0.00000  Uiso   1.00
C107   C     0.06123   0.13006   0.75593   0.00000  Uiso   1.00
C108   C     0.09183   0.03685   0.76065   0.00000  Uiso   1.00
C109   C     0.22799   0.01192   0.79358   0.00000  Uiso   1.00
C110   C     0.96612   0.23787   0.65218   0.00000  Uiso   1.00
C111   C     0.91674   0.23530   0.56968   0.00000  Uiso   1.00
C112   C     0.97281   0.30113   0.51526   0.00000  Uiso   1.00
C113   C     0.85891   0.23277   0.79247   0.00000  Uiso   1.00
C114   C     0.71937   0.22595   0.82791   0.00000  Uiso   1.00
C115   C     0.68516   0.28752   0.89160   0.00000  Uiso   1.00
H116   H     0.18592   0.34533   0.79333   0.00000  Uiso   1.00
H117   H     0.37790   0.22233   0.83708   0.00000  Uiso   1.00
H118   H     0.20282   0.42076   0.64614   0.00000  Uiso   1.00
H119   H     0.00548   0.41140   0.90434   0.00000  Uiso   1.00
H120   H     0.54589   0.05686   0.87357   0.00000  Uiso   1.00
H121   H     0.17668   0.47527   0.47096   0.00000  Uiso   1.00
H122   H     0.76055   0.45556   0.01541   0.00000  Uiso   1.00
H123   H     0.84003   0.12112   0.70092   0.00000  Uiso   1.00
H124   H     0.01304   0.98580   0.73960   0.00000  Uiso   1.00
H125   H     0.83796   0.18423   0.54865   0.00000  Uiso   1.00
H126   H     0.64063   0.17488   0.80685   0.00000  Uiso   1.00
H127   H     0.24976   0.86489   0.79444   0.00000  Uiso   1.00
H128   H     0.88054   0.28331   0.39183   0.00000  Uiso   1.00
H129   H     0.46442   0.26358   0.93629   0.00000  Uiso   1.00
O130   O     0.51789   0.87591   0.86109   0.00000  Uiso   1.00
O131   O     0.03348   0.42487   0.33289   0.00000  Uiso   1.00
O132   O     0.48754   0.39899   0.04721   0.00000  Uiso   1.00
N133   N     0.45244   0.03025   0.84965   0.00000  Uiso   1.00
N134   N     0.10727   0.42143   0.47323   0.00000  Uiso   1.00
N135   N     0.71821   0.40301   0.98224   0.00000  Uiso   1.00
N136   N     0.29309   0.92695   0.80708   0.00000  Uiso   1.00
N137   N     0.94792   0.31813   0.43066   0.00000  Uiso   1.00
N138   N     0.55886   0.29971   0.93966   0.00000  Uiso   1.00
C139   C     0.39332   0.70604   0.27216   0.00000  Uiso   1.00
C140   C     0.33698   0.80396   0.28313   0.00000  Uiso   1.00
C141   C     0.20084   0.82876   0.31605   0.00000  Uiso   1.00
C142   C     0.17004   0.92198   0.32082   0.00000  Uiso   1.00
C143   C     0.06704   0.06399   0.34194   0.00000  Uiso   1.00
C144   C     0.43209   0.69616   0.17938   0.00000  Uiso   1.00
C145   C     0.37594   0.63030   0.12507   0.00000  Uiso   1.00
C146   C     0.42522   0.63277   0.04251   0.00000  Uiso   1.00
C147   C     0.46997   0.60737   0.90257   0.00000  Uiso   1.00
C148   C     0.53930   0.70124   0.31967   0.00000  Uiso   1.00
C149   C     0.57331   0.63965   0.38331   0.00000  Uiso   1.00
C150   C     0.71287   0.64639   0.41884   0.00000  Uiso   1.00
C151   C     0.92408   0.62888   0.49673   0.00000  Uiso   1.00
C152   C     0.58072   0.82751   0.22209   0.00000  Uiso   1.00
C153   C     0.43877   0.86994   0.25593   0.00000  Uiso   1.00
C154   C     0.40817   0.96315   0.26065   0.00000  Uiso   1.00
C155   C     0.27201   0.98808   0.29358   0.00000  Uiso   1.00
C156   C     0.53388   0.76213   0.15218   0.00000  Uiso   1.00
C157   C     0.58326   0.76470   0.06968   0.00000  Uiso   1.00
C158   C     0.52719   0.69887   0.01526   0.00000  Uiso   1.00
C159   C     0.64109   0.76723   0.29247   0.00000  Uiso   1.00
C160   C     0.78063   0.77405   0.32791   0.00000  Uiso   1.00
C161   C     0.81484   0.71248   0.39160   0.00000  Uiso   1.00
H162   H     0.31408   0.65467   0.29333   0.00000  Uiso   1.00
H163   H     0.12210   0.77767   0.33708   0.00000  Uiso   1.00
H164   H     0.29718   0.57924   0.14614   0.00000  Uiso   1.00
H165   H     0.49452   0.58860   0.40434   0.00000  Uiso   1.00
H166   H     0.95411   0.94314   0.37357   0.00000  Uiso   1.00
H167   H     0.32332   0.52473   0.97096   0.00000  Uiso   1.00
H168   H     0.73945   0.54444   0.51541   0.00000  Uiso   1.00
H169   H     0.65997   0.87888   0.20092   0.00000  Uiso   1.00
H170   H     0.48696   0.01420   0.23960   0.00000  Uiso   1.00
H171   H     0.66204   0.81577   0.04865   0.00000  Uiso   1.00
H172   H     0.85937   0.82512   0.30685   0.00000  Uiso   1.00
H173   H     0.25024   0.13511   0.29444   0.00000  Uiso   1.00
H174   H     0.61946   0.71669   0.89183   0.00000  Uiso   1.00
H175   H     0.03558   0.73642   0.43629   0.00000  Uiso   1.00
O176   O     0.98211   0.12409   0.36109   0.00000  Uiso   1.00
O177   O     0.46652   0.57513   0.83289   0.00000  Uiso   1.00
O178   O     0.01246   0.60101   0.54721   0.00000  Uiso   1.00
N179   N     0.04756   0.96975   0.34965   0.00000  Uiso   1.00
N180   N     0.39273   0.57857   0.97323   0.00000  Uiso   1.00
N181   N     0.78179   0.59699   0.48224   0.00000  Uiso   1.00
N182   N     0.20691   0.07305   0.30708   0.00000  Uiso   1.00
N183   N     0.55208   0.68187   0.93066   0.00000  Uiso   1.00
N184   N     0.94114   0.70029   0.43966   0.00000  Uiso   1.00
