data_job_01595
_audit_creation_date              2018-12-19
_audit_creation_method            'Materials Studio'
_symmetry_space_group_name_H-M    'P1'
_symmetry_Int_Tables_number       1
_symmetry_cell_setting            triclinic
loop_
_symmetry_equiv_pos_as_xyz
  x,y,z
_cell_length_a                    25.2560
_cell_length_b                    14.0284
_cell_length_c                    23.5399
_cell_angle_alpha                 90.0000
_cell_angle_beta                  90.0000
_cell_angle_gamma                 90.0000
loop_
_atom_site_label
_atom_site_type_symbol
_atom_site_fract_x
_atom_site_fract_y
_atom_site_fract_z
_atom_site_U_iso_or_equiv
_atom_site_adp_type
_atom_site_occupancy
C1     C     0.11794   0.03988   0.09442   0.00000  Uiso   1.00
C2     C     0.06293   0.08402   0.09912   0.00000  Uiso   1.00
C3     C     0.01572   0.03410   0.10404   0.00000  Uiso   1.00
C4     C     0.96959   0.08757   0.10781   0.00000  Uiso   1.00
C5     C     0.88401   0.14091   0.11525   0.00000  Uiso   1.00
C6     C     0.14194   0.07930   0.03981   0.00000  Uiso   1.00
C7     C     0.16117   0.02540   0.99487   0.00000  Uiso   1.00
C8     C     0.18156   0.07490   0.94872   0.00000  Uiso   1.00
C9     C     0.21868   0.12091   0.86411   0.00000  Uiso   1.00
C10    C     0.15034   0.08224   0.14290   0.00000  Uiso   1.00
C11    C     0.17663   0.03083   0.18463   0.00000  Uiso   1.00
C12    C     0.20410   0.08281   0.22526   0.00000  Uiso   1.00
C13    C     0.25426   0.13340   0.30070   0.00000  Uiso   1.00
C14    C     0.11999   0.22361   0.09235   0.00000  Uiso   1.00
C15    C     0.06405   0.18381   0.09800   0.00000  Uiso   1.00
C16    C     0.01798   0.23737   0.10176   0.00000  Uiso   1.00
C17    C     0.97070   0.18754   0.10669   0.00000  Uiso   1.00
C18    C     0.14306   0.17908   0.03869   0.00000  Uiso   1.00
C19    C     0.16343   0.22867   0.99260   0.00000  Uiso   1.00
C20    C     0.18267   0.17487   0.94760   0.00000  Uiso   1.00
C21    C     0.15145   0.18203   0.14178   0.00000  Uiso   1.00
C22    C     0.17889   0.23410   0.18235   0.00000  Uiso   1.00
C23    C     0.20522   0.18278   0.22414   0.00000  Uiso   1.00
H24    H     0.11707   0.96220   0.09528   0.00000  Uiso   1.00
H25    H     0.01487   0.95687   0.10490   0.00000  Uiso   1.00
H26    H     0.16030   0.94818   0.99576   0.00000  Uiso   1.00
H27    H     0.17576   0.95361   0.18548   0.00000  Uiso   1.00
H28    H     0.90205   0.99498   0.11504   0.00000  Uiso   1.00
H29    H     0.20872   0.97665   0.88492   0.00000  Uiso   1.00
H30    H     0.24132   0.98810   0.28499   0.00000  Uiso   1.00
H31    H     0.12085   0.30130   0.09148   0.00000  Uiso   1.00
H32    H     0.01885   0.31459   0.10089   0.00000  Uiso   1.00
H33    H     0.16429   0.30589   0.99175   0.00000  Uiso   1.00
H34    H     0.17974   0.31132   0.18147   0.00000  Uiso   1.00
H35    H     0.90528   0.28532   0.11179   0.00000  Uiso   1.00
H36    H     0.21195   0.26699   0.88166   0.00000  Uiso   1.00
H37    H     0.24455   0.27844   0.28174   0.00000  Uiso   1.00
O38    O     0.83650   0.14277   0.11966   0.00000  Uiso   1.00
O39    O     0.23884   0.11872   0.81774   0.00000  Uiso   1.00
O40    O     0.28161   0.13374   0.34263   0.00000  Uiso   1.00
N41    N     0.91681   0.06149   0.11300   0.00000  Uiso   1.00
N42    N     0.20352   0.04435   0.89784   0.00000  Uiso   1.00
N43    N     0.23401   0.05506   0.27187   0.00000  Uiso   1.00
N44    N     0.91855   0.21771   0.11125   0.00000  Uiso   1.00
N45    N     0.20526   0.20058   0.89609   0.00000  Uiso   1.00
N46    N     0.23575   0.21128   0.27011   0.00000  Uiso   1.00
C47    C     0.38206   0.46012   0.59442   0.00000  Uiso   1.00
C48    C     0.43707   0.41598   0.59912   0.00000  Uiso   1.00
C49    C     0.48428   0.46590   0.60404   0.00000  Uiso   1.00
C50    C     0.53041   0.41243   0.60781   0.00000  Uiso   1.00
C51    C     0.61599   0.35909   0.61525   0.00000  Uiso   1.00
C52    C     0.35806   0.42070   0.53981   0.00000  Uiso   1.00
C53    C     0.33883   0.47460   0.49487   0.00000  Uiso   1.00
C54    C     0.31844   0.42510   0.44872   0.00000  Uiso   1.00
C55    C     0.28132   0.37909   0.36411   0.00000  Uiso   1.00
C56    C     0.34966   0.41776   0.64290   0.00000  Uiso   1.00
C57    C     0.32337   0.46917   0.68463   0.00000  Uiso   1.00
C58    C     0.29590   0.41719   0.72526   0.00000  Uiso   1.00
C59    C     0.24574   0.36660   0.80070   0.00000  Uiso   1.00
C60    C     0.38001   0.27639   0.59235   0.00000  Uiso   1.00
C61    C     0.43595   0.31619   0.59800   0.00000  Uiso   1.00
C62    C     0.48202   0.26263   0.60176   0.00000  Uiso   1.00
C63    C     0.52930   0.31246   0.60669   0.00000  Uiso   1.00
C64    C     0.35694   0.32092   0.53869   0.00000  Uiso   1.00
C65    C     0.33657   0.27133   0.49260   0.00000  Uiso   1.00
C66    C     0.31733   0.32513   0.44760   0.00000  Uiso   1.00
C67    C     0.34855   0.31797   0.64178   0.00000  Uiso   1.00
C68    C     0.32111   0.26590   0.68235   0.00000  Uiso   1.00
C69    C     0.29478   0.31722   0.72414   0.00000  Uiso   1.00
H70    H     0.38293   0.53780   0.59528   0.00000  Uiso   1.00
H71    H     0.48513   0.54313   0.60490   0.00000  Uiso   1.00
H72    H     0.33970   0.55182   0.49576   0.00000  Uiso   1.00
H73    H     0.32424   0.54639   0.68548   0.00000  Uiso   1.00
H74    H     0.59795   0.50502   0.61504   0.00000  Uiso   1.00
H75    H     0.29128   0.52335   0.38492   0.00000  Uiso   1.00
H76    H     0.25868   0.51190   0.78499   0.00000  Uiso   1.00
H77    H     0.37915   0.19870   0.59148   0.00000  Uiso   1.00
H78    H     0.48115   0.18541   0.60089   0.00000  Uiso   1.00
H79    H     0.33571   0.19411   0.49175   0.00000  Uiso   1.00
H80    H     0.32026   0.18868   0.68147   0.00000  Uiso   1.00
H81    H     0.59472   0.21468   0.61179   0.00000  Uiso   1.00
H82    H     0.28805   0.23301   0.38166   0.00000  Uiso   1.00
H83    H     0.25545   0.22156   0.78174   0.00000  Uiso   1.00
O84    O     0.66350   0.35723   0.61966   0.00000  Uiso   1.00
O85    O     0.26116   0.38128   0.31774   0.00000  Uiso   1.00
O86    O     0.21839   0.36626   0.84263   0.00000  Uiso   1.00
N87    N     0.58319   0.43851   0.61300   0.00000  Uiso   1.00
N88    N     0.29648   0.45565   0.39784   0.00000  Uiso   1.00
N89    N     0.26599   0.44494   0.77187   0.00000  Uiso   1.00
N90    N     0.58145   0.28229   0.61125   0.00000  Uiso   1.00
N91    N     0.29474   0.29942   0.39609   0.00000  Uiso   1.00
N92    N     0.26425   0.28872   0.77011   0.00000  Uiso   1.00
C93    C     0.88206   0.03988   0.40558   0.00000  Uiso   1.00
C94    C     0.93707   0.08402   0.40088   0.00000  Uiso   1.00
C95    C     0.98428   0.03410   0.39596   0.00000  Uiso   1.00
C96    C     0.03041   0.08757   0.39219   0.00000  Uiso   1.00
C97    C     0.11599   0.14091   0.38475   0.00000  Uiso   1.00
C98    C     0.85806   0.07930   0.46019   0.00000  Uiso   1.00
C99    C     0.83883   0.02540   0.50513   0.00000  Uiso   1.00
C100   C     0.81844   0.07490   0.55128   0.00000  Uiso   1.00
C101   C     0.78132   0.12091   0.63589   0.00000  Uiso   1.00
C102   C     0.84966   0.08224   0.35710   0.00000  Uiso   1.00
C103   C     0.82337   0.03083   0.31537   0.00000  Uiso   1.00
C104   C     0.79590   0.08281   0.27474   0.00000  Uiso   1.00
C105   C     0.74574   0.13340   0.19930   0.00000  Uiso   1.00
C106   C     0.88001   0.22361   0.40765   0.00000  Uiso   1.00
C107   C     0.93595   0.18381   0.40200   0.00000  Uiso   1.00
C108   C     0.98202   0.23737   0.39824   0.00000  Uiso   1.00
C109   C     0.02930   0.18754   0.39331   0.00000  Uiso   1.00
C110   C     0.85694   0.17908   0.46131   0.00000  Uiso   1.00
C111   C     0.83657   0.22867   0.50740   0.00000  Uiso   1.00
C112   C     0.81733   0.17487   0.55240   0.00000  Uiso   1.00
C113   C     0.84855   0.18203   0.35822   0.00000  Uiso   1.00
C114   C     0.82111   0.23410   0.31765   0.00000  Uiso   1.00
C115   C     0.79478   0.18278   0.27586   0.00000  Uiso   1.00
H116   H     0.88293   0.96220   0.40472   0.00000  Uiso   1.00
H117   H     0.98513   0.95687   0.39510   0.00000  Uiso   1.00
H118   H     0.83970   0.94818   0.50424   0.00000  Uiso   1.00
H119   H     0.82424   0.95361   0.31452   0.00000  Uiso   1.00
H120   H     0.09795   0.99498   0.38496   0.00000  Uiso   1.00
H121   H     0.79128   0.97665   0.61508   0.00000  Uiso   1.00
H122   H     0.75868   0.98810   0.21501   0.00000  Uiso   1.00
H123   H     0.87915   0.30130   0.40852   0.00000  Uiso   1.00
H124   H     0.98115   0.31459   0.39911   0.00000  Uiso   1.00
H125   H     0.83571   0.30589   0.50825   0.00000  Uiso   1.00
H126   H     0.82026   0.31132   0.31853   0.00000  Uiso   1.00
H127   H     0.09472   0.28532   0.38821   0.00000  Uiso   1.00
H128   H     0.78805   0.26699   0.61834   0.00000  Uiso   1.00
H129   H     0.75545   0.27844   0.21826   0.00000  Uiso   1.00
O130   O     0.16350   0.14277   0.38034   0.00000  Uiso   1.00
O131   O     0.76116   0.11872   0.68226   0.00000  Uiso   1.00
O132   O     0.71839   0.13374   0.15737   0.00000  Uiso   1.00
N133   N     0.08319   0.06149   0.38700   0.00000  Uiso   1.00
N134   N     0.79648   0.04435   0.60216   0.00000  Uiso   1.00
N135   N     0.76599   0.05506   0.22813   0.00000  Uiso   1.00
N136   N     0.08145   0.21771   0.38875   0.00000  Uiso   1.00
N137   N     0.79474   0.20058   0.60391   0.00000  Uiso   1.00
N138   N     0.76425   0.21128   0.22989   0.00000  Uiso   1.00
C139   C     0.61794   0.46012   0.90558   0.00000  Uiso   1.00
C140   C     0.56293   0.41598   0.90088   0.00000  Uiso   1.00
C141   C     0.51572   0.46590   0.89596   0.00000  Uiso   1.00
C142   C     0.46959   0.41243   0.89219   0.00000  Uiso   1.00
C143   C     0.38401   0.35909   0.88475   0.00000  Uiso   1.00
C144   C     0.64194   0.42070   0.96019   0.00000  Uiso   1.00
C145   C     0.66117   0.47460   0.00513   0.00000  Uiso   1.00
C146   C     0.68156   0.42510   0.05128   0.00000  Uiso   1.00
C147   C     0.71868   0.37909   0.13589   0.00000  Uiso   1.00
C148   C     0.65034   0.41776   0.85710   0.00000  Uiso   1.00
C149   C     0.67663   0.46917   0.81537   0.00000  Uiso   1.00
C150   C     0.70410   0.41719   0.77474   0.00000  Uiso   1.00
C151   C     0.75426   0.36660   0.69930   0.00000  Uiso   1.00
C152   C     0.61999   0.27639   0.90765   0.00000  Uiso   1.00
C153   C     0.56405   0.31619   0.90200   0.00000  Uiso   1.00
C154   C     0.51798   0.26263   0.89824   0.00000  Uiso   1.00
C155   C     0.47070   0.31246   0.89331   0.00000  Uiso   1.00
C156   C     0.64306   0.32092   0.96131   0.00000  Uiso   1.00
C157   C     0.66343   0.27133   0.00740   0.00000  Uiso   1.00
C158   C     0.68267   0.32513   0.05240   0.00000  Uiso   1.00
C159   C     0.65145   0.31797   0.85822   0.00000  Uiso   1.00
C160   C     0.67889   0.26590   0.81765   0.00000  Uiso   1.00
C161   C     0.70522   0.31722   0.77586   0.00000  Uiso   1.00
H162   H     0.61707   0.53780   0.90472   0.00000  Uiso   1.00
H163   H     0.51487   0.54313   0.89510   0.00000  Uiso   1.00
H164   H     0.66030   0.55182   0.00424   0.00000  Uiso   1.00
H165   H     0.67576   0.54639   0.81452   0.00000  Uiso   1.00
H166   H     0.40205   0.50502   0.88496   0.00000  Uiso   1.00
H167   H     0.70872   0.52335   0.11508   0.00000  Uiso   1.00
H168   H     0.74132   0.51190   0.71501   0.00000  Uiso   1.00
H169   H     0.62085   0.19870   0.90852   0.00000  Uiso   1.00
H170   H     0.51885   0.18541   0.89911   0.00000  Uiso   1.00
H171   H     0.66429   0.19411   0.00825   0.00000  Uiso   1.00
H172   H     0.67974   0.18868   0.81853   0.00000  Uiso   1.00
H173   H     0.40528   0.21468   0.88821   0.00000  Uiso   1.00
H174   H     0.71195   0.23301   0.11834   0.00000  Uiso   1.00
H175   H     0.74455   0.22156   0.71826   0.00000  Uiso   1.00
O176   O     0.33650   0.35723   0.88034   0.00000  Uiso   1.00
O177   O     0.73884   0.38128   0.18226   0.00000  Uiso   1.00
O178   O     0.78161   0.36626   0.65737   0.00000  Uiso   1.00
N179   N     0.41681   0.43851   0.88700   0.00000  Uiso   1.00
N180   N     0.70352   0.45565   0.10216   0.00000  Uiso   1.00
N181   N     0.73401   0.44494   0.72813   0.00000  Uiso   1.00
N182   N     0.41855   0.28229   0.88875   0.00000  Uiso   1.00
N183   N     0.70526   0.29942   0.10391   0.00000  Uiso   1.00
N184   N     0.73575   0.28872   0.72989   0.00000  Uiso   1.00
C185   C     0.88206   0.96012   0.90558   0.00000  Uiso   1.00
C186   C     0.93707   0.91598   0.90088   0.00000  Uiso   1.00
C187   C     0.98428   0.96590   0.89596   0.00000  Uiso   1.00
C188   C     0.03041   0.91243   0.89219   0.00000  Uiso   1.00
C189   C     0.11599   0.85909   0.88475   0.00000  Uiso   1.00
C190   C     0.85806   0.92070   0.96019   0.00000  Uiso   1.00
C191   C     0.83883   0.97460   0.00513   0.00000  Uiso   1.00
C192   C     0.81844   0.92510   0.05128   0.00000  Uiso   1.00
C193   C     0.78132   0.87909   0.13589   0.00000  Uiso   1.00
C194   C     0.84966   0.91776   0.85710   0.00000  Uiso   1.00
C195   C     0.82337   0.96917   0.81537   0.00000  Uiso   1.00
C196   C     0.79590   0.91719   0.77474   0.00000  Uiso   1.00
C197   C     0.74574   0.86660   0.69930   0.00000  Uiso   1.00
C198   C     0.88001   0.77639   0.90765   0.00000  Uiso   1.00
C199   C     0.93595   0.81619   0.90200   0.00000  Uiso   1.00
C200   C     0.98202   0.76263   0.89824   0.00000  Uiso   1.00
C201   C     0.02930   0.81246   0.89331   0.00000  Uiso   1.00
C202   C     0.85694   0.82092   0.96131   0.00000  Uiso   1.00
C203   C     0.83657   0.77133   0.00740   0.00000  Uiso   1.00
C204   C     0.81733   0.82513   0.05240   0.00000  Uiso   1.00
C205   C     0.84855   0.81797   0.85822   0.00000  Uiso   1.00
C206   C     0.82111   0.76590   0.81765   0.00000  Uiso   1.00
C207   C     0.79478   0.81722   0.77586   0.00000  Uiso   1.00
H208   H     0.88293   0.03780   0.90472   0.00000  Uiso   1.00
H209   H     0.98513   0.04313   0.89510   0.00000  Uiso   1.00
H210   H     0.83970   0.05182   0.00424   0.00000  Uiso   1.00
H211   H     0.82424   0.04639   0.81452   0.00000  Uiso   1.00
H212   H     0.09795   0.00502   0.88496   0.00000  Uiso   1.00
H213   H     0.79128   0.02335   0.11508   0.00000  Uiso   1.00
H214   H     0.75868   0.01190   0.71501   0.00000  Uiso   1.00
H215   H     0.87915   0.69870   0.90852   0.00000  Uiso   1.00
H216   H     0.98115   0.68541   0.89911   0.00000  Uiso   1.00
H217   H     0.83571   0.69411   0.00825   0.00000  Uiso   1.00
H218   H     0.82026   0.68868   0.81853   0.00000  Uiso   1.00
H219   H     0.09472   0.71468   0.88821   0.00000  Uiso   1.00
H220   H     0.78805   0.73301   0.11834   0.00000  Uiso   1.00
H221   H     0.75545   0.72156   0.71826   0.00000  Uiso   1.00
O222   O     0.16350   0.85723   0.88034   0.00000  Uiso   1.00
O223   O     0.76116   0.88128   0.18226   0.00000  Uiso   1.00
O224   O     0.71839   0.86626   0.65737   0.00000  Uiso   1.00
N225   N     0.08319   0.93851   0.88700   0.00000  Uiso   1.00
N226   N     0.79648   0.95565   0.10216   0.00000  Uiso   1.00
N227   N     0.76599   0.94494   0.72813   0.00000  Uiso   1.00
N228   N     0.08145   0.78229   0.88875   0.00000  Uiso   1.00
N229   N     0.79474   0.79942   0.10391   0.00000  Uiso   1.00
N230   N     0.76425   0.78872   0.72989   0.00000  Uiso   1.00
C231   C     0.61794   0.53988   0.40558   0.00000  Uiso   1.00
C232   C     0.56293   0.58402   0.40088   0.00000  Uiso   1.00
C233   C     0.51572   0.53410   0.39596   0.00000  Uiso   1.00
C234   C     0.46959   0.58757   0.39219   0.00000  Uiso   1.00
C235   C     0.38401   0.64091   0.38475   0.00000  Uiso   1.00
C236   C     0.64194   0.57930   0.46019   0.00000  Uiso   1.00
C237   C     0.66117   0.52540   0.50513   0.00000  Uiso   1.00
C238   C     0.68156   0.57490   0.55128   0.00000  Uiso   1.00
C239   C     0.71868   0.62091   0.63589   0.00000  Uiso   1.00
C240   C     0.65034   0.58224   0.35710   0.00000  Uiso   1.00
C241   C     0.67663   0.53083   0.31537   0.00000  Uiso   1.00
C242   C     0.70410   0.58281   0.27474   0.00000  Uiso   1.00
C243   C     0.75426   0.63340   0.19930   0.00000  Uiso   1.00
C244   C     0.61999   0.72361   0.40765   0.00000  Uiso   1.00
C245   C     0.56405   0.68381   0.40200   0.00000  Uiso   1.00
C246   C     0.51798   0.73737   0.39824   0.00000  Uiso   1.00
C247   C     0.47070   0.68754   0.39331   0.00000  Uiso   1.00
C248   C     0.64306   0.67908   0.46131   0.00000  Uiso   1.00
C249   C     0.66343   0.72867   0.50740   0.00000  Uiso   1.00
C250   C     0.68267   0.67487   0.55240   0.00000  Uiso   1.00
C251   C     0.65145   0.68203   0.35822   0.00000  Uiso   1.00
C252   C     0.67889   0.73410   0.31765   0.00000  Uiso   1.00
C253   C     0.70522   0.68278   0.27586   0.00000  Uiso   1.00
H254   H     0.61707   0.46220   0.40472   0.00000  Uiso   1.00
H255   H     0.51487   0.45687   0.39510   0.00000  Uiso   1.00
H256   H     0.66030   0.44818   0.50424   0.00000  Uiso   1.00
H257   H     0.67576   0.45361   0.31452   0.00000  Uiso   1.00
H258   H     0.40205   0.49498   0.38496   0.00000  Uiso   1.00
H259   H     0.70872   0.47665   0.61508   0.00000  Uiso   1.00
H260   H     0.74132   0.48810   0.21501   0.00000  Uiso   1.00
H261   H     0.62085   0.80130   0.40852   0.00000  Uiso   1.00
H262   H     0.51885   0.81459   0.39911   0.00000  Uiso   1.00
H263   H     0.66429   0.80589   0.50825   0.00000  Uiso   1.00
H264   H     0.67974   0.81132   0.31853   0.00000  Uiso   1.00
H265   H     0.40528   0.78532   0.38821   0.00000  Uiso   1.00
H266   H     0.71195   0.76699   0.61834   0.00000  Uiso   1.00
H267   H     0.74455   0.77844   0.21826   0.00000  Uiso   1.00
O268   O     0.33650   0.64277   0.38034   0.00000  Uiso   1.00
O269   O     0.73884   0.61872   0.68226   0.00000  Uiso   1.00
O270   O     0.78161   0.63374   0.15737   0.00000  Uiso   1.00
N271   N     0.41681   0.56149   0.38700   0.00000  Uiso   1.00
N272   N     0.70352   0.54435   0.60216   0.00000  Uiso   1.00
N273   N     0.73401   0.55506   0.22813   0.00000  Uiso   1.00
N274   N     0.41855   0.71771   0.38875   0.00000  Uiso   1.00
N275   N     0.70526   0.70058   0.60391   0.00000  Uiso   1.00
N276   N     0.73575   0.71128   0.22989   0.00000  Uiso   1.00
C277   C     0.11794   0.96012   0.59442   0.00000  Uiso   1.00
C278   C     0.06293   0.91598   0.59912   0.00000  Uiso   1.00
C279   C     0.01572   0.96590   0.60404   0.00000  Uiso   1.00
C280   C     0.96959   0.91243   0.60781   0.00000  Uiso   1.00
C281   C     0.88401   0.85909   0.61525   0.00000  Uiso   1.00
C282   C     0.14194   0.92070   0.53981   0.00000  Uiso   1.00
C283   C     0.16117   0.97460   0.49487   0.00000  Uiso   1.00
C284   C     0.18156   0.92510   0.44872   0.00000  Uiso   1.00
C285   C     0.21868   0.87909   0.36411   0.00000  Uiso   1.00
C286   C     0.15034   0.91776   0.64290   0.00000  Uiso   1.00
C287   C     0.17663   0.96917   0.68463   0.00000  Uiso   1.00
C288   C     0.20410   0.91719   0.72526   0.00000  Uiso   1.00
C289   C     0.25426   0.86660   0.80070   0.00000  Uiso   1.00
C290   C     0.11999   0.77639   0.59235   0.00000  Uiso   1.00
C291   C     0.06405   0.81619   0.59800   0.00000  Uiso   1.00
C292   C     0.01798   0.76263   0.60176   0.00000  Uiso   1.00
C293   C     0.97070   0.81246   0.60669   0.00000  Uiso   1.00
C294   C     0.14306   0.82092   0.53869   0.00000  Uiso   1.00
C295   C     0.16343   0.77133   0.49260   0.00000  Uiso   1.00
C296   C     0.18267   0.82513   0.44760   0.00000  Uiso   1.00
C297   C     0.15145   0.81797   0.64178   0.00000  Uiso   1.00
C298   C     0.17889   0.76590   0.68235   0.00000  Uiso   1.00
C299   C     0.20522   0.81722   0.72414   0.00000  Uiso   1.00
H300   H     0.11707   0.03780   0.59528   0.00000  Uiso   1.00
H301   H     0.01487   0.04313   0.60490   0.00000  Uiso   1.00
H302   H     0.16030   0.05182   0.49576   0.00000  Uiso   1.00
H303   H     0.17576   0.04639   0.68548   0.00000  Uiso   1.00
H304   H     0.90205   0.00502   0.61504   0.00000  Uiso   1.00
H305   H     0.20872   0.02335   0.38492   0.00000  Uiso   1.00
H306   H     0.24132   0.01190   0.78499   0.00000  Uiso   1.00
H307   H     0.12085   0.69870   0.59148   0.00000  Uiso   1.00
H308   H     0.01885   0.68541   0.60089   0.00000  Uiso   1.00
H309   H     0.16429   0.69411   0.49175   0.00000  Uiso   1.00
H310   H     0.17974   0.68868   0.68147   0.00000  Uiso   1.00
H311   H     0.90528   0.71468   0.61179   0.00000  Uiso   1.00
H312   H     0.21195   0.73301   0.38166   0.00000  Uiso   1.00
H313   H     0.24455   0.72156   0.78174   0.00000  Uiso   1.00
O314   O     0.83650   0.85723   0.61966   0.00000  Uiso   1.00
O315   O     0.23884   0.88128   0.31774   0.00000  Uiso   1.00
O316   O     0.28161   0.86626   0.84263   0.00000  Uiso   1.00
N317   N     0.91681   0.93851   0.61300   0.00000  Uiso   1.00
N318   N     0.20352   0.95565   0.39784   0.00000  Uiso   1.00
N319   N     0.23401   0.94494   0.77187   0.00000  Uiso   1.00
N320   N     0.91855   0.78229   0.61125   0.00000  Uiso   1.00
N321   N     0.20526   0.79942   0.39609   0.00000  Uiso   1.00
N322   N     0.23575   0.78872   0.77011   0.00000  Uiso   1.00
C323   C     0.38206   0.53988   0.09442   0.00000  Uiso   1.00
C324   C     0.43707   0.58402   0.09912   0.00000  Uiso   1.00
C325   C     0.48428   0.53410   0.10404   0.00000  Uiso   1.00
C326   C     0.53041   0.58757   0.10781   0.00000  Uiso   1.00
C327   C     0.61599   0.64091   0.11525   0.00000  Uiso   1.00
C328   C     0.35806   0.57930   0.03981   0.00000  Uiso   1.00
C329   C     0.33883   0.52540   0.99487   0.00000  Uiso   1.00
C330   C     0.31844   0.57490   0.94872   0.00000  Uiso   1.00
C331   C     0.28132   0.62091   0.86411   0.00000  Uiso   1.00
C332   C     0.34966   0.58224   0.14290   0.00000  Uiso   1.00
C333   C     0.32337   0.53083   0.18463   0.00000  Uiso   1.00
C334   C     0.29590   0.58281   0.22526   0.00000  Uiso   1.00
C335   C     0.24574   0.63340   0.30070   0.00000  Uiso   1.00
C336   C     0.38001   0.72361   0.09235   0.00000  Uiso   1.00
C337   C     0.43595   0.68381   0.09800   0.00000  Uiso   1.00
C338   C     0.48202   0.73737   0.10176   0.00000  Uiso   1.00
C339   C     0.52930   0.68754   0.10669   0.00000  Uiso   1.00
C340   C     0.35694   0.67908   0.03869   0.00000  Uiso   1.00
C341   C     0.33657   0.72867   0.99260   0.00000  Uiso   1.00
C342   C     0.31733   0.67487   0.94760   0.00000  Uiso   1.00
C343   C     0.34855   0.68203   0.14178   0.00000  Uiso   1.00
C344   C     0.32111   0.73410   0.18235   0.00000  Uiso   1.00
C345   C     0.29478   0.68278   0.22414   0.00000  Uiso   1.00
H346   H     0.38293   0.46220   0.09528   0.00000  Uiso   1.00
H347   H     0.48513   0.45687   0.10490   0.00000  Uiso   1.00
H348   H     0.33970   0.44818   0.99576   0.00000  Uiso   1.00
H349   H     0.32424   0.45361   0.18548   0.00000  Uiso   1.00
H350   H     0.59795   0.49498   0.11504   0.00000  Uiso   1.00
H351   H     0.29128   0.47665   0.88492   0.00000  Uiso   1.00
H352   H     0.25868   0.48810   0.28499   0.00000  Uiso   1.00
H353   H     0.37915   0.80130   0.09148   0.00000  Uiso   1.00
H354   H     0.48115   0.81459   0.10089   0.00000  Uiso   1.00
H355   H     0.33571   0.80589   0.99175   0.00000  Uiso   1.00
H356   H     0.32026   0.81132   0.18147   0.00000  Uiso   1.00
H357   H     0.59472   0.78532   0.11179   0.00000  Uiso   1.00
H358   H     0.28805   0.76699   0.88166   0.00000  Uiso   1.00
H359   H     0.25545   0.77844   0.28174   0.00000  Uiso   1.00
O360   O     0.66350   0.64277   0.11966   0.00000  Uiso   1.00
O361   O     0.26116   0.61872   0.81774   0.00000  Uiso   1.00
O362   O     0.21839   0.63374   0.34263   0.00000  Uiso   1.00
N363   N     0.58319   0.56149   0.11300   0.00000  Uiso   1.00
N364   N     0.29648   0.54435   0.89784   0.00000  Uiso   1.00
N365   N     0.26599   0.55506   0.27187   0.00000  Uiso   1.00
N366   N     0.58145   0.71771   0.11125   0.00000  Uiso   1.00
N367   N     0.29474   0.70058   0.89609   0.00000  Uiso   1.00
N368   N     0.26425   0.71128   0.27011   0.00000  Uiso   1.00
