data_job_06909
_audit_creation_date              2018-12-19
_audit_creation_method            'Materials Studio'
_symmetry_space_group_name_H-M    'P1'
_symmetry_Int_Tables_number       1
_symmetry_cell_setting            triclinic
loop_
_symmetry_equiv_pos_as_xyz
  x,y,z
_cell_length_a                    20.3032
_cell_length_b                    23.7053
_cell_length_c                    21.3543
_cell_angle_alpha                 76.5037
_cell_angle_beta                  80.6950
_cell_angle_gamma                 75.8705
loop_
_atom_site_label
_atom_site_type_symbol
_atom_site_fract_x
_atom_site_fract_y
_atom_site_fract_z
_atom_site_U_iso_or_equiv
_atom_site_adp_type
_atom_site_occupancy
C1     C     0.13538   0.27969   0.58344   0.00000  Uiso   1.00
C2     C     0.10444   0.30819   0.52003   0.00000  Uiso   1.00
C3     C     0.10807   0.36426   0.48351   0.00000  Uiso   1.00
C4     C     0.07646   0.38223   0.42698   0.00000  Uiso   1.00
C5     C     0.03356   0.43209   0.33146   0.00000  Uiso   1.00
C6     C     0.07654   0.26346   0.63315   0.00000  Uiso   1.00
C7     C     0.05672   0.28193   0.69175   0.00000  Uiso   1.00
C8     C     0.00163   0.26225   0.73045   0.00000  Uiso   1.00
C9     C     0.91545   0.24264   0.81057   0.00000  Uiso   1.00
C10    C     0.18225   0.22097   0.57285   0.00000  Uiso   1.00
C11    C     0.25130   0.20369   0.58077   0.00000  Uiso   1.00
C12    C     0.28520   0.14822   0.56872   0.00000  Uiso   1.00
C13    C     0.36315   0.06263   0.55522   0.00000  Uiso   1.00
C14    C     0.07278   0.21189   0.54799   0.00000  Uiso   1.00
C15    C     0.07044   0.27136   0.50077   0.00000  Uiso   1.00
C16    C     0.03882   0.28925   0.44428   0.00000  Uiso   1.00
C17    C     0.04240   0.34534   0.40769   0.00000  Uiso   1.00
C18    C     0.04254   0.22664   0.61390   0.00000  Uiso   1.00
C19    C     0.98747   0.20692   0.65252   0.00000  Uiso   1.00
C20    C     0.96757   0.22536   0.71116   0.00000  Uiso   1.00
C21    C     0.14825   0.18414   0.55359   0.00000  Uiso   1.00
C22    C     0.18205   0.12868   0.54154   0.00000  Uiso   1.00
C23    C     0.25114   0.11133   0.54943   0.00000  Uiso   1.00
H24    H     0.16184   0.30836   0.59844   0.00000  Uiso   1.00
H25    H     0.13438   0.39275   0.49843   0.00000  Uiso   1.00
H26    H     0.08305   0.31043   0.70664   0.00000  Uiso   1.00
H27    H     0.27759   0.23220   0.59567   0.00000  Uiso   1.00
H28    H     0.08892   0.47007   0.37908   0.00000  Uiso   1.00
H29    H     0.98069   0.29648   0.81810   0.00000  Uiso   1.00
H30    H     0.39094   0.13152   0.58411   0.00000  Uiso   1.00
H31    H     0.04631   0.18322   0.53300   0.00000  Uiso   1.00
H32    H     0.01251   0.26074   0.42939   0.00000  Uiso   1.00
H33    H     0.96117   0.17842   0.63760   0.00000  Uiso   1.00
H34    H     0.15572   0.10020   0.52664   0.00000  Uiso   1.00
H35    H     0.99000   0.36293   0.32305   0.00000  Uiso   1.00
H36    H     0.88177   0.18934   0.76207   0.00000  Uiso   1.00
H37    H     0.29202   0.02438   0.52808   0.00000  Uiso   1.00
O38    O     0.01929   0.46977   0.28410   0.00000  Uiso   1.00
O39    O     0.87731   0.24201   0.86009   0.00000  Uiso   1.00
O40    O     0.41554   0.02559   0.55309   0.00000  Uiso   1.00
N41    N     0.07029   0.43422   0.38010   0.00000  Uiso   1.00
N42    N     0.96909   0.27192   0.79056   0.00000  Uiso   1.00
N43    N     0.35264   0.11770   0.57181   0.00000  Uiso   1.00
N44    N     0.01706   0.37656   0.34995   0.00000  Uiso   1.00
N45    N     0.91587   0.21427   0.76041   0.00000  Uiso   1.00
N46    N     0.29941   0.06004   0.54166   0.00000  Uiso   1.00
C47    C     0.64185   0.06907   0.27379   0.00000  Uiso   1.00
C48    C     0.56466   0.07492   0.28763   0.00000  Uiso   1.00
C49    C     0.52985   0.05253   0.34603   0.00000  Uiso   1.00
C50    C     0.45923   0.06257   0.34892   0.00000  Uiso   1.00
C51    C     0.34464   0.06687   0.37857   0.00000  Uiso   1.00
C52    C     0.66410   0.03958   0.21527   0.00000  Uiso   1.00
C53    C     0.71289   0.98746   0.21282   0.00000  Uiso   1.00
C54    C     0.72599   0.96775   0.15479   0.00000  Uiso   1.00
C55    C     0.76580   0.91720   0.07208   0.00000  Uiso   1.00
C56    C     0.65326   0.13222   0.25081   0.00000  Uiso   1.00
C57    C     0.69296   0.15799   0.27823   0.00000  Uiso   1.00
C58    C     0.69695   0.21628   0.25010   0.00000  Uiso   1.00
C59    C     0.71994   0.30957   0.22257   0.00000  Uiso   1.00
C60    C     0.57835   0.12673   0.17507   0.00000  Uiso   1.00
C61    C     0.53018   0.10624   0.23401   0.00000  Uiso   1.00
C62    C     0.45960   0.11633   0.23681   0.00000  Uiso   1.00
C63    C     0.42468   0.09395   0.29521   0.00000  Uiso   1.00
C64    C     0.62961   0.07090   0.16165   0.00000  Uiso   1.00
C65    C     0.64264   0.05126   0.10361   0.00000  Uiso   1.00
C66    C     0.69144   0.99913   0.10107   0.00000  Uiso   1.00
C67    C     0.61878   0.16354   0.19719   0.00000  Uiso   1.00
C68    C     0.62271   0.22180   0.16901   0.00000  Uiso   1.00
C69    C     0.66240   0.24766   0.19639   0.00000  Uiso   1.00
H70    H     0.66870   0.04468   0.31553   0.00000  Uiso   1.00
H71    H     0.55655   0.02828   0.38751   0.00000  Uiso   1.00
H72    H     0.73957   0.96324   0.25432   0.00000  Uiso   1.00
H73    H     0.71964   0.13374   0.31972   0.00000  Uiso   1.00
H74    H     0.41702   0.02390   0.44367   0.00000  Uiso   1.00
H75    H     0.80294   0.88675   0.16282   0.00000  Uiso   1.00
H76    H     0.76092   0.24630   0.30072   0.00000  Uiso   1.00
H77    H     0.55150   0.15112   0.13332   0.00000  Uiso   1.00
H78    H     0.43292   0.14057   0.19531   0.00000  Uiso   1.00
H79    H     0.61595   0.07552   0.06212   0.00000  Uiso   1.00
H80    H     0.59601   0.24602   0.12752   0.00000  Uiso   1.00
H81    H     0.31667   0.11503   0.28767   0.00000  Uiso   1.00
H82    H     0.70260   0.97788   0.00682   0.00000  Uiso   1.00
H83    H     0.66057   0.33743   0.14473   0.00000  Uiso   1.00
O84    O     0.29096   0.06058   0.40973   0.00000  Uiso   1.00
O85    O     0.79729   0.88066   0.04127   0.00000  Uiso   1.00
O86    O     0.74215   0.35237   0.22219   0.00000  Uiso   1.00
N87    N     0.40967   0.04680   0.39845   0.00000  Uiso   1.00
N88    N     0.77048   0.91858   0.13588   0.00000  Uiso   1.00
N89    N     0.73121   0.25472   0.26480   0.00000  Uiso   1.00
N90    N     0.35568   0.09584   0.31451   0.00000  Uiso   1.00
N91    N     0.71649   0.96761   0.05194   0.00000  Uiso   1.00
N92    N     0.67721   0.30375   0.18086   0.00000  Uiso   1.00
C93    C     0.28600   0.63002   0.07828   0.00000  Uiso   1.00
C94    C     0.34146   0.57318   0.08534   0.00000  Uiso   1.00
C95    C     0.40812   0.56832   0.09696   0.00000  Uiso   1.00
C96    C     0.45106   0.51243   0.10182   0.00000  Uiso   1.00
C97    C     0.54069   0.43167   0.11374   0.00000  Uiso   1.00
C98    C     0.26099   0.63813   0.01249   0.00000  Uiso   1.00
C99    C     0.25999   0.68789   0.96287   0.00000  Uiso   1.00
C100   C     0.23519   0.68667   0.90641   0.00000  Uiso   1.00
C101   C     0.19984   0.70677   0.80525   0.00000  Uiso   1.00
C102   C     0.22656   0.61664   0.12876   0.00000  Uiso   1.00
C103   C     0.19660   0.64833   0.17689   0.00000  Uiso   1.00
C104   C     0.14279   0.62902   0.21832   0.00000  Uiso   1.00
C105   C     0.05399   0.61574   0.29768   0.00000  Uiso   1.00
C106   C     0.24372   0.53939   0.06624   0.00000  Uiso   1.00
C107   C     0.31849   0.52396   0.07879   0.00000  Uiso   1.00
C108   C     0.36134   0.46806   0.08364   0.00000  Uiso   1.00
C109   C     0.42806   0.46311   0.09527   0.00000  Uiso   1.00
C110   C     0.23803   0.58891   0.00594   0.00000  Uiso   1.00
C111   C     0.21322   0.58763   0.94954   0.00000  Uiso   1.00
C112   C     0.21218   0.63736   0.89985   0.00000  Uiso   1.00
C113   C     0.20360   0.56741   0.12222   0.00000  Uiso   1.00
C114   C     0.14983   0.54806   0.16357   0.00000  Uiso   1.00
C115   C     0.11979   0.57971   0.21176   0.00000  Uiso   1.00
H116   H     0.30387   0.66834   0.08337   0.00000  Uiso   1.00
H117   H     0.42587   0.60643   0.10202   0.00000  Uiso   1.00
H118   H     0.27776   0.72598   0.96795   0.00000  Uiso   1.00
H119   H     0.21438   0.68641   0.18194   0.00000  Uiso   1.00
H120   H     0.55101   0.51608   0.11978   0.00000  Uiso   1.00
H121   H     0.23869   0.76817   0.83710   0.00000  Uiso   1.00
H122   H     0.10504   0.68474   0.28834   0.00000  Uiso   1.00
H123   H     0.22584   0.50107   0.06114   0.00000  Uiso   1.00
H124   H     0.34356   0.42997   0.07857   0.00000  Uiso   1.00
H125   H     0.19545   0.54953   0.94450   0.00000  Uiso   1.00
H126   H     0.13207   0.50996   0.15849   0.00000  Uiso   1.00
H127   H     0.48421   0.37286   0.10075   0.00000  Uiso   1.00
H128   H     0.17188   0.62495   0.81807   0.00000  Uiso   1.00
H129   H     0.03823   0.54153   0.26931   0.00000  Uiso   1.00
O130   O     0.59647   0.40072   0.12211   0.00000  Uiso   1.00
O131   O     0.18670   0.73146   0.75125   0.00000  Uiso   1.00
O132   O     0.01136   0.62201   0.34327   0.00000  Uiso   1.00
N133   N     0.51913   0.49213   0.11292   0.00000  Uiso   1.00
N134   N     0.22714   0.72781   0.84863   0.00000  Uiso   1.00
N135   N     0.10217   0.64983   0.27049   0.00000  Uiso   1.00
N136   N     0.48318   0.41506   0.10268   0.00000  Uiso   1.00
N137   N     0.19119   0.65075   0.83839   0.00000  Uiso   1.00
N138   N     0.06622   0.57276   0.26025   0.00000  Uiso   1.00
C139   C     0.67457   0.04759   0.67791   0.00000  Uiso   1.00
C140   C     0.64971   0.99074   0.70966   0.00000  Uiso   1.00
C141   C     0.64417   0.96638   0.77552   0.00000  Uiso   1.00
C142   C     0.62035   0.91413   0.79491   0.00000  Uiso   1.00
C143   C     0.58440   0.82996   0.85104   0.00000  Uiso   1.00
C144   C     0.61745   0.08781   0.63960   0.00000  Uiso   1.00
C145   C     0.58481   0.14506   0.64656   0.00000  Uiso   1.00
C146   C     0.53385   0.17452   0.60697   0.00000  Uiso   1.00
C147   C     0.44786   0.24106   0.55432   0.00000  Uiso   1.00
C148   C     0.73428   0.03034   0.62779   0.00000  Uiso   1.00
C149   C     0.79987   0.03927   0.62481   0.00000  Uiso   1.00
C150   C     0.84726   0.02036   0.57526   0.00000  Uiso   1.00
C151   C     0.94266   0.99767   0.50426   0.00000  Uiso   1.00
C152   C     0.64210   0.99813   0.59521   0.00000  Uiso   1.00
C153   C     0.63207   0.96388   0.66474   0.00000  Uiso   1.00
C154   C     0.60826   0.91166   0.68403   0.00000  Uiso   1.00
C155   C     0.60269   0.88722   0.74991   0.00000  Uiso   1.00
C156   C     0.59982   0.06095   0.59469   0.00000  Uiso   1.00
C157   C     0.54890   0.09033   0.55507   0.00000  Uiso   1.00
C158   C     0.51618   0.14761   0.56197   0.00000  Uiso   1.00
C159   C     0.71665   0.00347   0.58287   0.00000  Uiso   1.00
C160   C     0.76395   0.98455   0.53332   0.00000  Uiso   1.00
C161   C     0.82959   0.99345   0.53026   0.00000  Uiso   1.00
H162   H     0.68829   0.06851   0.71287   0.00000  Uiso   1.00
H163   H     0.65782   0.98719   0.81027   0.00000  Uiso   1.00
H164   H     0.59847   0.16583   0.68132   0.00000  Uiso   1.00
H165   H     0.81349   0.06007   0.65957   0.00000  Uiso   1.00
H166   H     0.61623   0.88519   0.89844   0.00000  Uiso   1.00
H167   H     0.49112   0.26188   0.62654   0.00000  Uiso   1.00
H168   H     0.94453   0.03885   0.58067   0.00000  Uiso   1.00
H169   H     0.62837   0.97722   0.56024   0.00000  Uiso   1.00
H170   H     0.59462   0.89088   0.64926   0.00000  Uiso   1.00
H171   H     0.53527   0.06953   0.52032   0.00000  Uiso   1.00
H172   H     0.75029   0.96376   0.49857   0.00000  Uiso   1.00
H173   H     0.56493   0.80702   0.76776   0.00000  Uiso   1.00
H174   H     0.43982   0.18372   0.49586   0.00000  Uiso   1.00
H175   H     0.89323   0.96069   0.44999   0.00000  Uiso   1.00
O176   O     0.56944   0.79096   0.89442   0.00000  Uiso   1.00
O177   O     0.40530   0.28518   0.53769   0.00000  Uiso   1.00
O178   O     0.00016   0.99257   0.47752   0.00000  Uiso   1.00
N179   N     0.60881   0.87863   0.85547   0.00000  Uiso   1.00
N180   N     0.49182   0.23082   0.60126   0.00000  Uiso   1.00
N181   N     0.91572   0.02232   0.55837   0.00000  Uiso   1.00
N182   N     0.58120   0.83657   0.78515   0.00000  Uiso   1.00
N183   N     0.46422   0.18876   0.53095   0.00000  Uiso   1.00
N184   N     0.88811   0.98026   0.48806   0.00000  Uiso   1.00
C185   C     0.17394   0.78083   0.44649   0.00000  Uiso   1.00
C186   C     0.10637   0.80614   0.41747   0.00000  Uiso   1.00
C187   C     0.07292   0.86547   0.40638   0.00000  Uiso   1.00
C188   C     0.01166   0.87965   0.37945   0.00000  Uiso   1.00
C189   C     0.91084   0.92559   0.33669   0.00000  Uiso   1.00
C190   C     0.22174   0.74826   0.39727   0.00000  Uiso   1.00
C191   C     0.28529   0.75892   0.36921   0.00000  Uiso   1.00
C192   C     0.32115   0.72437   0.32528   0.00000  Uiso   1.00
C193   C     0.39945   0.68042   0.25120   0.00000  Uiso   1.00
C194   C     0.15994   0.73304   0.50544   0.00000  Uiso   1.00
C195   C     0.17153   0.73089   0.56833   0.00000  Uiso   1.00
C196   C     0.15537   0.68351   0.61547   0.00000  Uiso   1.00
C197   C     0.13772   0.61593   0.70934   0.00000  Uiso   1.00
C198   C     0.12465   0.70049   0.41837   0.00000  Uiso   1.00
C199   C     0.07960   0.76250   0.40220   0.00000  Uiso   1.00
C200   C     0.01838   0.77659   0.37528   0.00000  Uiso   1.00
C201   C     0.98484   0.83594   0.36415   0.00000  Uiso   1.00
C202   C     0.19497   0.70463   0.38200   0.00000  Uiso   1.00
C203   C     0.23074   0.67004   0.33811   0.00000  Uiso   1.00
C204   C     0.29432   0.68065   0.30999   0.00000  Uiso   1.00
C205   C     0.13316   0.68940   0.49018   0.00000  Uiso   1.00
C206   C     0.11698   0.64201   0.53723   0.00000  Uiso   1.00
C207   C     0.12855   0.63980   0.60018   0.00000  Uiso   1.00
H208   H     0.19480   0.81480   0.45837   0.00000  Uiso   1.00
H209   H     0.09366   0.89923   0.41820   0.00000  Uiso   1.00
H210   H     0.30600   0.79269   0.38104   0.00000  Uiso   1.00
H211   H     0.19226   0.76467   0.58013   0.00000  Uiso   1.00
H212   H     0.96974   0.97360   0.36691   0.00000  Uiso   1.00
H213   H     0.41747   0.74894   0.28858   0.00000  Uiso   1.00
H214   H     0.17763   0.68984   0.70839   0.00000  Uiso   1.00
H215   H     0.10380   0.66652   0.40649   0.00000  Uiso   1.00
H216   H     0.99767   0.74281   0.36347   0.00000  Uiso   1.00
H217   H     0.21001   0.63628   0.32631   0.00000  Uiso   1.00
H218   H     0.09626   0.60825   0.52539   0.00000  Uiso   1.00
H219   H     0.89183   0.84665   0.32248   0.00000  Uiso   1.00
H220   H     0.33957   0.62199   0.24415   0.00000  Uiso   1.00
H221   H     0.09972   0.56289   0.66396   0.00000  Uiso   1.00
O222   O     0.86263   0.96299   0.31731   0.00000  Uiso   1.00
O223   O     0.45004   0.66824   0.21455   0.00000  Uiso   1.00
O224   O     0.13536   0.59071   0.76534   0.00000  Uiso   1.00
N225   N     0.96596   0.93325   0.36237   0.00000  Uiso   1.00
N226   N     0.38456   0.72321   0.28912   0.00000  Uiso   1.00
N227   N     0.16035   0.66795   0.68161   0.00000  Uiso   1.00
N228   N     0.92404   0.86494   0.33846   0.00000  Uiso   1.00
N229   N     0.34264   0.65490   0.26522   0.00000  Uiso   1.00
N230   N     0.11842   0.59964   0.65771   0.00000  Uiso   1.00
C231   C     0.91706   0.59622   0.00016   0.00000  Uiso   1.00
C232   C     0.92932   0.57079   0.93891   0.00000  Uiso   1.00
C233   C     0.98789   0.56841   0.89506   0.00000  Uiso   1.00
C234   C     0.98917   0.54343   0.84207   0.00000  Uiso   1.00
C235   C     0.01663   0.50724   0.74832   0.00000  Uiso   1.00
C236   C     0.90074   0.54650   0.05593   0.00000  Uiso   1.00
C237   C     0.93528   0.52369   0.11048   0.00000  Uiso   1.00
C238   C     0.91249   0.47827   0.15600   0.00000  Uiso   1.00
C239   C     0.89556   0.40438   0.24395   0.00000  Uiso   1.00
C240   C     0.85129   0.64387   0.99457   0.00000  Uiso   1.00
C241   C     0.84425   0.70294   0.99755   0.00000  Uiso   1.00
C242   C     0.77983   0.73949   0.99143   0.00000  Uiso   1.00
C243   C     0.68613   0.81680   0.98411   0.00000  Uiso   1.00
C244   C     0.81516   0.55610   0.98401   0.00000  Uiso   1.00
C245   C     0.87397   0.54900   0.93014   0.00000  Uiso   1.00
C246   C     0.87516   0.52402   0.87720   0.00000  Uiso   1.00
C247   C     0.93372   0.52160   0.83328   0.00000  Uiso   1.00
C248   C     0.84540   0.52470   0.04716   0.00000  Uiso   1.00
C249   C     0.82255   0.47930   0.09261   0.00000  Uiso   1.00
C250   C     0.85705   0.45643   0.14721   0.00000  Uiso   1.00
C251   C     0.79595   0.62208   0.98580   0.00000  Uiso   1.00
C252   C     0.73152   0.65855   0.97968   0.00000  Uiso   1.00
C253   C     0.72439   0.71766   0.98264   0.00000  Uiso   1.00
H254   H     0.96014   0.61318   0.00699   0.00000  Uiso   1.00
H255   H     0.03071   0.58527   0.90187   0.00000  Uiso   1.00
H256   H     0.97810   0.54057   0.11725   0.00000  Uiso   1.00
H257   H     0.88709   0.71979   0.00434   0.00000  Uiso   1.00
H258   H     0.08455   0.54470   0.78147   0.00000  Uiso   1.00
H259   H     0.97361   0.45045   0.23563   0.00000  Uiso   1.00
H260   H     0.78170   0.82837   0.99753   0.00000  Uiso   1.00
H261   H     0.77207   0.53913   0.97718   0.00000  Uiso   1.00
H262   H     0.83232   0.50716   0.87042   0.00000  Uiso   1.00
H263   H     0.77972   0.46245   0.08581   0.00000  Uiso   1.00
H264   H     0.68870   0.64167   0.97289   0.00000  Uiso   1.00
H265   H     0.92353   0.48130   0.75595   0.00000  Uiso   1.00
H266   H     0.81259   0.38705   0.21011   0.00000  Uiso   1.00
H267   H     0.62068   0.76497   0.97200   0.00000  Uiso   1.00
O268   O     0.04708   0.49329   0.69903   0.00000  Uiso   1.00
O269   O     0.90152   0.36964   0.29488   0.00000  Uiso   1.00
O270   O     0.64974   0.86546   0.98248   0.00000  Uiso   1.00
N271   N     0.03838   0.53418   0.79011   0.00000  Uiso   1.00
N272   N     0.93467   0.44605   0.21472   0.00000  Uiso   1.00
N273   N     0.75524   0.79937   0.99213   0.00000  Uiso   1.00
N274   N     0.95174   0.50006   0.77638   0.00000  Uiso   1.00
N275   N     0.84802   0.41194   0.20098   0.00000  Uiso   1.00
N276   N     0.66860   0.76526   0.97839   0.00000  Uiso   1.00
C277   C     0.82265   0.61893   0.27459   0.00000  Uiso   1.00
C278   C     0.84760   0.58445   0.33920   0.00000  Uiso   1.00
C279   C     0.86439   0.52305   0.35815   0.00000  Uiso   1.00
C280   C     0.88620   0.50010   0.41916   0.00000  Uiso   1.00
C281   C     0.92424   0.44091   0.51329   0.00000  Uiso   1.00
C282   C     0.87207   0.65965   0.24455   0.00000  Uiso   1.00
C283   C     0.90943   0.66147   0.18391   0.00000  Uiso   1.00
C284   C     0.95182   0.70182   0.16524   0.00000  Uiso   1.00
C285   C     0.02781   0.75940   0.11240   0.00000  Uiso   1.00
C286   C     0.75436   0.65959   0.29120   0.00000  Uiso   1.00
C287   C     0.69275   0.66138   0.26978   0.00000  Uiso   1.00
C288   C     0.63604   0.70170   0.29039   0.00000  Uiso   1.00
C289   C     0.52927   0.75919   0.30999   0.00000  Uiso   1.00
C290   C     0.83151   0.68736   0.34926   0.00000  Uiso   1.00
C291   C     0.85242   0.62162   0.37975   0.00000  Uiso   1.00
C292   C     0.87420   0.59875   0.44075   0.00000  Uiso   1.00
C293   C     0.89102   0.53733   0.45979   0.00000  Uiso   1.00
C294   C     0.87689   0.69681   0.28510   0.00000  Uiso   1.00
C295   C     0.91923   0.73717   0.26651   0.00000  Uiso   1.00
C296   C     0.95664   0.73906   0.20587   0.00000  Uiso   1.00
C297   C     0.75917   0.69676   0.33176   0.00000  Uiso   1.00
C298   C     0.70255   0.73708   0.35240   0.00000  Uiso   1.00
C299   C     0.64086   0.73893   0.33102   0.00000  Uiso   1.00
H300   H     0.81891   0.59000   0.24302   0.00000  Uiso   1.00
H301   H     0.86067   0.49431   0.32674   0.00000  Uiso   1.00
H302   H     0.90569   0.63271   0.15253   0.00000  Uiso   1.00
H303   H     0.68904   0.63262   0.23840   0.00000  Uiso   1.00
H304   H     0.90911   0.40460   0.43745   0.00000  Uiso   1.00
H305   H     0.00402   0.69644   0.07010   0.00000  Uiso   1.00
H306   H     0.54718   0.69625   0.25117   0.00000  Uiso   1.00
H307   H     0.83526   0.71629   0.38083   0.00000  Uiso   1.00
H308   H     0.87792   0.62752   0.47213   0.00000  Uiso   1.00
H309   H     0.92294   0.76593   0.29791   0.00000  Uiso   1.00
H310   H     0.70629   0.76584   0.38378   0.00000  Uiso   1.00
H311   H     0.92312   0.51273   0.55544   0.00000  Uiso   1.00
H312   H     0.01802   0.80457   0.18809   0.00000  Uiso   1.00
H313   H     0.56118   0.80438   0.36916   0.00000  Uiso   1.00
O314   O     0.94390   0.39799   0.55401   0.00000  Uiso   1.00
O315   O     0.06840   0.78088   0.07205   0.00000  Uiso   1.00
O316   O     0.46905   0.78063   0.30961   0.00000  Uiso   1.00
N317   N     0.90654   0.44223   0.45269   0.00000  Uiso   1.00
N318   N     0.99528   0.71508   0.10925   0.00000  Uiso   1.00
N319   N     0.56818   0.71491   0.27852   0.00000  Uiso   1.00
N320   N     0.91408   0.50041   0.51619   0.00000  Uiso   1.00
N321   N     0.00282   0.77326   0.17274   0.00000  Uiso   1.00
N322   N     0.57571   0.77309   0.34201   0.00000  Uiso   1.00
C323   C     0.32017   0.82887   0.52682   0.00000  Uiso   1.00
C324   C     0.38604   0.85187   0.50905   0.00000  Uiso   1.00
C325   C     0.42325   0.85858   0.44827   0.00000  Uiso   1.00
C326   C     0.48211   0.88032   0.44190   0.00000  Uiso   1.00
C327   C     0.58121   0.91386   0.40631   0.00000  Uiso   1.00
C328   C     0.26720   0.87706   0.55466   0.00000  Uiso   1.00
C329   C     0.20448   0.90494   0.53223   0.00000  Uiso   1.00
C330   C     0.16329   0.94789   0.56426   0.00000  Uiso   1.00
C331   C     0.07786   0.02050   0.59951   0.00000  Uiso   1.00
C332   C     0.33354   0.77597   0.58306   0.00000  Uiso   1.00
C333   C     0.32660   0.71885   0.58453   0.00000  Uiso   1.00
C334   C     0.34125   0.67668   0.64048   0.00000  Uiso   1.00
C335   C     0.35884   0.59233   0.71983   0.00000  Uiso   1.00
C336   C     0.35853   0.85554   0.62359   0.00000  Uiso   1.00
C337   C     0.40687   0.86636   0.56161   0.00000  Uiso   1.00
C338   C     0.46569   0.88809   0.55534   0.00000  Uiso   1.00
C339   C     0.50299   0.89483   0.49456   0.00000  Uiso   1.00
C340   C     0.28803   0.89155   0.60722   0.00000  Uiso   1.00
C341   C     0.24692   0.93445   0.63930   0.00000  Uiso   1.00
C342   C     0.18417   0.96240   0.61692   0.00000  Uiso   1.00
C343   C     0.35438   0.79045   0.63563   0.00000  Uiso   1.00
C344   C     0.36904   0.74836   0.69159   0.00000  Uiso   1.00
C345   C     0.36212   0.69120   0.69314   0.00000  Uiso   1.00
H346   H     0.30394   0.81760   0.48590   0.00000  Uiso   1.00
H347   H     0.40711   0.84737   0.40760   0.00000  Uiso   1.00
H348   H     0.18837   0.89372   0.49156   0.00000  Uiso   1.00
H349   H     0.31047   0.70766   0.54384   0.00000  Uiso   1.00
H350   H     0.53066   0.88679   0.34397   0.00000  Uiso   1.00
H351   H     0.06943   0.98451   0.52101   0.00000  Uiso   1.00
H352   H     0.32690   0.59216   0.63126   0.00000  Uiso   1.00
H353   H     0.37475   0.86682   0.66452   0.00000  Uiso   1.00
H354   H     0.48181   0.89930   0.59602   0.00000  Uiso   1.00
H355   H     0.26306   0.94565   0.67997   0.00000  Uiso   1.00
H356   H     0.38516   0.75959   0.73226   0.00000  Uiso   1.00
H357   H     0.59129   0.92894   0.49690   0.00000  Uiso   1.00
H358   H     0.13005   0.02666   0.67393   0.00000  Uiso   1.00
H359   H     0.38753   0.63431   0.78419   0.00000  Uiso   1.00
O360   O     0.63011   0.92836   0.37215   0.00000  Uiso   1.00
O361   O     0.02499   0.05655   0.60442   0.00000  Uiso   1.00
O362   O     0.36279   0.54180   0.74907   0.00000  Uiso   1.00
N363   N     0.53025   0.89224   0.38937   0.00000  Uiso   1.00
N364   N     0.09903   0.98361   0.55488   0.00000  Uiso   1.00
N365   N     0.33972   0.61680   0.65796   0.00000  Uiso   1.00
N366   N     0.56287   0.91493   0.47166   0.00000  Uiso   1.00
N367   N     0.13165   0.00629   0.63716   0.00000  Uiso   1.00
N368   N     0.37235   0.63948   0.74025   0.00000  Uiso   1.00
C369   C     0.61126   0.30723   0.72296   0.00000  Uiso   1.00
C370   C     0.59570   0.35970   0.75687   0.00000  Uiso   1.00
C371   C     0.53499   0.40206   0.75803   0.00000  Uiso   1.00
C372   C     0.53081   0.44655   0.79171   0.00000  Uiso   1.00
C373   C     0.49832   0.52769   0.83962   0.00000  Uiso   1.00
C374   C     0.63101   0.25183   0.77497   0.00000  Uiso   1.00
C375   C     0.59999   0.20349   0.79134   0.00000  Uiso   1.00
C376   C     0.62554   0.15717   0.84026   0.00000  Uiso   1.00
C377   C     0.64791   0.07082   0.91624   0.00000  Uiso   1.00
C378   C     0.67598   0.31270   0.67662   0.00000  Uiso   1.00
C379   C     0.68278   0.31552   0.61030   0.00000  Uiso   1.00
C380   C     0.74620   0.32044   0.57642   0.00000  Uiso   1.00
C381   C     0.83839   0.32860   0.49970   0.00000  Uiso   1.00
C382   C     0.71181   0.31092   0.78071   0.00000  Uiso   1.00
C383   C     0.65031   0.36170   0.78824   0.00000  Uiso   1.00
C384   C     0.64623   0.40614   0.82193   0.00000  Uiso   1.00
C385   C     0.58552   0.44856   0.82314   0.00000  Uiso   1.00
C386   C     0.68562   0.25383   0.80634   0.00000  Uiso   1.00
C387   C     0.71123   0.20757   0.85524   0.00000  Uiso   1.00
C388   C     0.68025   0.15917   0.87169   0.00000  Uiso   1.00
C389   C     0.73060   0.31470   0.70799   0.00000  Uiso   1.00
C390   C     0.79402   0.31961   0.67420   0.00000  Uiso   1.00
C391   C     0.80092   0.32244   0.60785   0.00000  Uiso   1.00
H392   H     0.56875   0.30567   0.69854   0.00000  Uiso   1.00
H393   H     0.49273   0.40049   0.73375   0.00000  Uiso   1.00
H394   H     0.55773   0.20195   0.76705   0.00000  Uiso   1.00
H395   H     0.64051   0.31397   0.58605   0.00000  Uiso   1.00
H396   H     0.43253   0.50648   0.78665   0.00000  Uiso   1.00
H397   H     0.56960   0.08784   0.85685   0.00000  Uiso   1.00
H398   H     0.74415   0.32406   0.47516   0.00000  Uiso   1.00
H399   H     0.75433   0.31248   0.80514   0.00000  Uiso   1.00
H400   H     0.68850   0.40767   0.84620   0.00000  Uiso   1.00
H401   H     0.75350   0.20913   0.87950   0.00000  Uiso   1.00
H402   H     0.83627   0.32115   0.69849   0.00000  Uiso   1.00
H403   H     0.59142   0.51231   0.87792   0.00000  Uiso   1.00
H404   H     0.72849   0.09367   0.94812   0.00000  Uiso   1.00
H405   H     0.90304   0.32989   0.56643   0.00000  Uiso   1.00
O406   O     0.46531   0.57189   0.85739   0.00000  Uiso   1.00
O407   O     0.64515   0.02264   0.94948   0.00000  Uiso   1.00
O408   O     0.87415   0.33256   0.44872   0.00000  Uiso   1.00
N409   N     0.47896   0.49480   0.80248   0.00000  Uiso   1.00
N410   N     0.60711   0.10340   0.86813   0.00000  Uiso   1.00
N411   N     0.77031   0.32423   0.51128   0.00000  Uiso   1.00
N412   N     0.56446   0.49794   0.85159   0.00000  Uiso   1.00
N413   N     0.69261   0.10653   0.91724   0.00000  Uiso   1.00
N414   N     0.85580   0.32737   0.56039   0.00000  Uiso   1.00
C415   C     0.37009   0.80765   0.96339   0.00000  Uiso   1.00
C416   C     0.40584   0.85953   0.94984   0.00000  Uiso   1.00
C417   C     0.40328   0.90433   0.89471   0.00000  Uiso   1.00
C418   C     0.43950   0.94778   0.89150   0.00000  Uiso   1.00
C419   C     0.48936   0.02854   0.86281   0.00000  Uiso   1.00
C420   C     0.42598   0.75147   0.97572   0.00000  Uiso   1.00
C421   C     0.44033   0.70541   0.94234   0.00000  Uiso   1.00
C422   C     0.49350   0.65790   0.96092   0.00000  Uiso   1.00
C423   C     0.57458   0.57086   0.97243   0.00000  Uiso   1.00
C424   C     0.32567   0.81023   0.02790   0.00000  Uiso   1.00
C425   C     0.25569   0.81356   0.03840   0.00000  Uiso   1.00
C426   C     0.22441   0.81550   0.10092   0.00000  Uiso   1.00
C427   C     0.14975   0.81971   0.19346   0.00000  Uiso   1.00
C428   C     0.43899   0.80517   0.05574   0.00000  Uiso   1.00
C429   C     0.44327   0.85818   0.00001   0.00000  Uiso   1.00
C430   C     0.47951   0.90159   0.99688   0.00000  Uiso   1.00
C431   C     0.47700   0.94644   0.94175   0.00000  Uiso   1.00
C432   C     0.46341   0.75012   0.02588   0.00000  Uiso   1.00
C433   C     0.51657   0.70267   0.04451   0.00000  Uiso   1.00
C434   C     0.53100   0.65654   0.01117   0.00000  Uiso   1.00
C435   C     0.36310   0.80889   0.07806   0.00000  Uiso   1.00
C436   C     0.33192   0.81082   0.14057   0.00000  Uiso   1.00
C437   C     0.26190   0.81415   0.15117   0.00000  Uiso   1.00
H438   H     0.34095   0.80869   0.92434   0.00000  Uiso   1.00
H439   H     0.37431   0.90535   0.85589   0.00000  Uiso   1.00
H440   H     0.41135   0.70646   0.90353   0.00000  Uiso   1.00
H441   H     0.22674   0.81460   0.99957   0.00000  Uiso   1.00
H442   H     0.42782   0.01191   0.80212   0.00000  Uiso   1.00
H443   H     0.50591   0.59253   0.90257   0.00000  Uiso   1.00
H444   H     0.11662   0.82056   0.10510   0.00000  Uiso   1.00
H445   H     0.46813   0.80412   0.09480   0.00000  Uiso   1.00
H446   H     0.50847   0.90053   0.03571   0.00000  Uiso   1.00
H447   H     0.54552   0.70164   0.08333   0.00000  Uiso   1.00
H448   H     0.36090   0.80978   0.17938   0.00000  Uiso   1.00
H449   H     0.53671   0.00800   0.94806   0.00000  Uiso   1.00
H450   H     0.61480   0.58861   0.04851   0.00000  Uiso   1.00
H451   H     0.22551   0.81664   0.25104   0.00000  Uiso   1.00
O452   O     0.50652   0.07345   0.83313   0.00000  Uiso   1.00
O453   O     0.60897   0.52323   0.96492   0.00000  Uiso   1.00
O454   O     0.09822   0.82241   0.23064   0.00000  Uiso   1.00
N455   N     0.44790   0.99777   0.84458   0.00000  Uiso   1.00
N456   N     0.52092   0.60567   0.93849   0.00000  Uiso   1.00
N457   N     0.15696   0.81885   0.12784   0.00000  Uiso   1.00
N458   N     0.50649   0.99566   0.92311   0.00000  Uiso   1.00
N459   N     0.57951   0.60357   0.01702   0.00000  Uiso   1.00
N460   N     0.21556   0.81674   0.20637   0.00000  Uiso   1.00
C461   C     0.95628   0.11989   0.26649   0.00000  Uiso   1.00
C462   C     0.02583   0.08787   0.28894   0.00000  Uiso   1.00
C463   C     0.05956   0.03062   0.28297   0.00000  Uiso   1.00
C464   C     0.12274   0.00935   0.30654   0.00000  Uiso   1.00
C465   C     0.22640   0.95434   0.33709   0.00000  Uiso   1.00
C466   C     0.91153   0.13830   0.32604   0.00000  Uiso   1.00
C467   C     0.84915   0.12346   0.35126   0.00000  Uiso   1.00
C468   C     0.81611   0.14464   0.40606   0.00000  Uiso   1.00
C469   C     0.74229   0.16796   0.49419   0.00000  Uiso   1.00
C470   C     0.96728   0.17737   0.22045   0.00000  Uiso   1.00
C471   C     0.95176   0.19538   0.15688   0.00000  Uiso   1.00
C472   C     0.96564   0.24947   0.12279   0.00000  Uiso   1.00
C473   C     0.97838   0.33344   0.04697   0.00000  Uiso   1.00
C474   C     0.00850   0.18392   0.31896   0.00000  Uiso   1.00
C475   C     0.05419   0.12265   0.31744   0.00000  Uiso   1.00
C476   C     0.11734   0.10146   0.34103   0.00000  Uiso   1.00
C477   C     0.15116   0.04419   0.33509   0.00000  Uiso   1.00
C478   C     0.93989   0.17308   0.35455   0.00000  Uiso   1.00
C479   C     0.90693   0.19430   0.40932   0.00000  Uiso   1.00
C480   C     0.84453   0.17949   0.43462   0.00000  Uiso   1.00
C481   C     0.99564   0.21215   0.24895   0.00000  Uiso   1.00
C482   C     0.00954   0.26622   0.21495   0.00000  Uiso   1.00
C483   C     0.99406   0.28431   0.15134   0.00000  Uiso   1.00
H484   H     0.93420   0.09281   0.24430   0.00000  Uiso   1.00
H485   H     0.03759   0.00372   0.26091   0.00000  Uiso   1.00
H486   H     0.82722   0.09655   0.32919   0.00000  Uiso   1.00
H487   H     0.92981   0.16846   0.13484   0.00000  Uiso   1.00
H488   H     0.16472   0.92027   0.29192   0.00000  Uiso   1.00
H489   H     0.72112   0.11602   0.43588   0.00000  Uiso   1.00
H490   H     0.93746   0.26766   0.02606   0.00000  Uiso   1.00
H491   H     0.03059   0.21100   0.34116   0.00000  Uiso   1.00
H492   H     0.13927   0.12839   0.36308   0.00000  Uiso   1.00
H493   H     0.92889   0.22121   0.43136   0.00000  Uiso   1.00
H494   H     0.03149   0.29312   0.23702   0.00000  Uiso   1.00
H495   H     0.24725   0.02145   0.37485   0.00000  Uiso   1.00
H496   H     0.80364   0.21721   0.51881   0.00000  Uiso   1.00
H497   H     0.01999   0.36884   0.10899   0.00000  Uiso   1.00
O498   O     0.27573   0.91438   0.34608   0.00000  Uiso   1.00
O499   O     0.69374   0.17120   0.53494   0.00000  Uiso   1.00
O500   O     0.97758   0.37015   0.99727   0.00000  Uiso   1.00
N501   N     0.16923   0.95543   0.30842   0.00000  Uiso   1.00
N502   N     0.75450   0.13843   0.44301   0.00000  Uiso   1.00
N503   N     0.95674   0.28021   0.05988   0.00000  Uiso   1.00
N504   N     0.21364   0.00987   0.35304   0.00000  Uiso   1.00
N505   N     0.79890   0.19288   0.48764   0.00000  Uiso   1.00
N506   N     0.00115   0.33465   0.10450   0.00000  Uiso   1.00
C507   C     0.20526   0.35726   0.74622   0.00000  Uiso   1.00
C508   C     0.19931   0.37236   0.81280   0.00000  Uiso   1.00
C509   C     0.13907   0.38516   0.85301   0.00000  Uiso   1.00
C510   C     0.14441   0.39787   0.91202   0.00000  Uiso   1.00
C511   C     0.12553   0.42136   0.01265   0.00000  Uiso   1.00
C512   C     0.24153   0.40215   0.69927   0.00000  Uiso   1.00
C513   C     0.21680   0.43998   0.64402   0.00000  Uiso   1.00
C514   C     0.25770   0.47775   0.60746   0.00000  Uiso   1.00
C515   C     0.30439   0.54746   0.53180   0.00000  Uiso   1.00
C516   C     0.25485   0.29715   0.74939   0.00000  Uiso   1.00
C517   C     0.24132   0.24670   0.73626   0.00000  Uiso   1.00
C518   C     0.29343   0.19608   0.74187   0.00000  Uiso   1.00
C519   C     0.36079   0.10276   0.74403   0.00000  Uiso   1.00
C520   C     0.32186   0.35707   0.77951   0.00000  Uiso   1.00
C521   C     0.26264   0.37226   0.83088   0.00000  Uiso   1.00
C522   C     0.26808   0.38495   0.88985   0.00000  Uiso   1.00
C523   C     0.20786   0.39776   0.93014   0.00000  Uiso   1.00
C524   C     0.30487   0.40205   0.71736   0.00000  Uiso   1.00
C525   C     0.34581   0.43977   0.68086   0.00000  Uiso   1.00
C526   C     0.32114   0.47765   0.62558   0.00000  Uiso   1.00
C527   C     0.31818   0.29705   0.76747   0.00000  Uiso   1.00
C528   C     0.37032   0.24649   0.77310   0.00000  Uiso   1.00
C529   C     0.35688   0.19597   0.75999   0.00000  Uiso   1.00
H530   H     0.15595   0.35735   0.73213   0.00000  Uiso   1.00
H531   H     0.09007   0.38524   0.83900   0.00000  Uiso   1.00
H532   H     0.16779   0.44005   0.63004   0.00000  Uiso   1.00
H533   H     0.19230   0.24680   0.72227   0.00000  Uiso   1.00
H534   H     0.04494   0.41614   0.96544   0.00000  Uiso   1.00
H535   H     0.20884   0.53169   0.52483   0.00000  Uiso   1.00
H536   H     0.26053   0.12419   0.71930   0.00000  Uiso   1.00
H537   H     0.37117   0.35699   0.79359   0.00000  Uiso   1.00
H538   H     0.31709   0.38487   0.90383   0.00000  Uiso   1.00
H539   H     0.39482   0.43967   0.69487   0.00000  Uiso   1.00
H540   H     0.41933   0.24643   0.78710   0.00000  Uiso   1.00
H541   H     0.22921   0.41584   0.01806   0.00000  Uiso   1.00
H542   H     0.39311   0.53139   0.57745   0.00000  Uiso   1.00
H543   H     0.44479   0.12389   0.77192   0.00000  Uiso   1.00
O544   O     0.09762   0.43435   0.06315   0.00000  Uiso   1.00
O545   O     0.31265   0.58594   0.48508   0.00000  Uiso   1.00
O546   O     0.38046   0.05131   0.74023   0.00000  Uiso   1.00
N547   N     0.09573   0.41223   0.96270   0.00000  Uiso   1.00
N548   N     0.24896   0.52027   0.55076   0.00000  Uiso   1.00
N549   N     0.29729   0.13930   0.73256   0.00000  Uiso   1.00
N550   N     0.19488   0.41207   0.99102   0.00000  Uiso   1.00
N551   N     0.34811   0.52011   0.57908   0.00000  Uiso   1.00
N552   N     0.39644   0.13914   0.76088   0.00000  Uiso   1.00
