data_job_04691
_audit_creation_date              2018-12-19
_audit_creation_method            'Materials Studio'
_symmetry_space_group_name_H-M    'P1'
_symmetry_Int_Tables_number       1
_symmetry_cell_setting            triclinic
loop_
_symmetry_equiv_pos_as_xyz
  x,y,z
_cell_length_a                    28.1174
_cell_length_b                    8.3880
_cell_length_c                    52.6231
_cell_angle_alpha                 90.0000
_cell_angle_beta                  157.7629
_cell_angle_gamma                 90.0000
loop_
_atom_site_label
_atom_site_type_symbol
_atom_site_fract_x
_atom_site_fract_y
_atom_site_fract_z
_atom_site_U_iso_or_equiv
_atom_site_adp_type
_atom_site_occupancy
C1     C     0.08873   0.23929   0.73191   0.00000  Uiso   1.00
C2     C     0.02342   0.24293   0.67382   0.00000  Uiso   1.00
C3     C     0.00472   0.37742   0.64969   0.00000  Uiso   1.00
C4     C     0.94293   0.35586   0.59615   0.00000  Uiso   1.00
C5     C     0.84779   0.38445   0.51024   0.00000  Uiso   1.00
C6     C     0.99475   0.16561   0.70389   0.00000  Uiso   1.00
C7     C     0.95196   0.23508   0.70504   0.00000  Uiso   1.00
C8     C     0.86605   0.14841   0.67682   0.00000  Uiso   1.00
C9     C     0.72647   0.05691   0.63764   0.00000  Uiso   1.00
C10    C     0.19560   0.11919   0.78227   0.00000  Uiso   1.00
C11    C     0.32167   0.14960   0.84932   0.00000  Uiso   1.00
C12    C     0.40486   0.02384   0.88709   0.00000  Uiso   1.00
C13    C     0.57712   0.86026   0.96960   0.00000  Uiso   1.00
C14    C     0.01227   0.96183   0.67975   0.00000  Uiso   1.00
C15    C     0.98189   0.09223   0.64549   0.00000  Uiso   1.00
C16    C     0.92012   0.07045   0.59198   0.00000  Uiso   1.00
C17    C     0.90133   0.20488   0.56776   0.00000  Uiso   1.00
C18    C     0.95322   0.01491   0.67556   0.00000  Uiso   1.00
C19    C     0.86737   0.92811   0.64734   0.00000  Uiso   1.00
C20    C     0.82444   0.99744   0.64844   0.00000  Uiso   1.00
C21    C     0.15407   0.96848   0.75394   0.00000  Uiso   1.00
C22    C     0.23707   0.84264   0.79161   0.00000  Uiso   1.00
C23    C     0.36325   0.87286   0.85871   0.00000  Uiso   1.00
H24    H     0.12106   0.35661   0.75397   0.00000  Uiso   1.00
H25    H     0.03686   0.49403   0.67162   0.00000  Uiso   1.00
H26    H     0.98412   0.35170   0.72698   0.00000  Uiso   1.00
H27    H     0.35377   0.26624   0.87123   0.00000  Uiso   1.00
H28    H     0.92516   0.57993   0.56781   0.00000  Uiso   1.00
H29    H     0.81399   0.27980   0.68456   0.00000  Uiso   1.00
H30    H     0.59347   0.09959   0.98874   0.00000  Uiso   1.00
H31    H     0.97993   0.84450   0.65769   0.00000  Uiso   1.00
H32    H     0.88799   0.95382   0.57006   0.00000  Uiso   1.00
H33    H     0.83525   0.81149   0.62542   0.00000  Uiso   1.00
H34    H     0.20490   0.72603   0.76967   0.00000  Uiso   1.00
H35    H     0.80433   0.14148   0.48539   0.00000  Uiso   1.00
H36    H     0.69316   0.84135   0.60213   0.00000  Uiso   1.00
H37    H     0.47264   0.66114   0.90632   0.00000  Uiso   1.00
O38    O     0.80677   0.44186   0.47068   0.00000  Uiso   1.00
O39    O     0.66095   0.04809   0.62385   0.00000  Uiso   1.00
O40    O     0.68360   0.81167   0.02293   0.00000  Uiso   1.00
N41    N     0.90936   0.46173   0.56045   0.00000  Uiso   1.00
N42    N     0.80541   0.18114   0.66959   0.00000  Uiso   1.00
N43    N     0.53416   0.01265   0.95398   0.00000  Uiso   1.00
N44    N     0.84435   0.22580   0.51610   0.00000  Uiso   1.00
N45    N     0.74039   0.94521   0.62523   0.00000  Uiso   1.00
N46    N     0.46914   0.77672   0.90963   0.00000  Uiso   1.00
C47    C     0.59389   0.50421   0.23449   0.00000  Uiso   1.00
C48    C     0.52934   0.50910   0.17671   0.00000  Uiso   1.00
C49    C     0.51181   0.64413   0.15322   0.00000  Uiso   1.00
C50    C     0.45056   0.62370   0.09985   0.00000  Uiso   1.00
C51    C     0.35669   0.65414   0.01449   0.00000  Uiso   1.00
C52    C     0.49898   0.43092   0.20586   0.00000  Uiso   1.00
C53    C     0.45594   0.50021   0.20688   0.00000  Uiso   1.00
C54    C     0.36915   0.41395   0.17807   0.00000  Uiso   1.00
C55    C     0.22822   0.32296   0.13800   0.00000  Uiso   1.00
C56    C     0.70015   0.38321   0.28459   0.00000  Uiso   1.00
C57    C     0.82626   0.41237   0.35183   0.00000  Uiso   1.00
C58    C     0.90883   0.28594   0.38931   0.00000  Uiso   1.00
C59    C     0.08024   0.12089   0.47150   0.00000  Uiso   1.00
C60    C     0.51629   0.22782   0.18150   0.00000  Uiso   1.00
C61    C     0.48719   0.35897   0.14792   0.00000  Uiso   1.00
C62    C     0.42595   0.33834   0.09459   0.00000  Uiso   1.00
C63    C     0.40834   0.47331   0.07102   0.00000  Uiso   1.00
C64    C     0.45683   0.28080   0.17707   0.00000  Uiso   1.00
C65    C     0.37009   0.19442   0.14825   0.00000  Uiso   1.00
C66    C     0.32692   0.26356   0.14923   0.00000  Uiso   1.00
C67    C     0.65800   0.23309   0.25581   0.00000  Uiso   1.00
C68    C     0.74040   0.10658   0.29320   0.00000  Uiso   1.00
C69    C     0.86660   0.13555   0.36048   0.00000  Uiso   1.00
H70    H     0.62670   0.62108   0.25690   0.00000  Uiso   1.00
H71    H     0.54443   0.76029   0.17550   0.00000  Uiso   1.00
H72    H     0.48859   0.61637   0.22917   0.00000  Uiso   1.00
H73    H     0.85884   0.52856   0.37409   0.00000  Uiso   1.00
H74    H     0.43459   0.84842   0.07254   0.00000  Uiso   1.00
H75    H     0.31687   0.54496   0.18572   0.00000  Uiso   1.00
H76    H     0.09763   0.35978   0.49132   0.00000  Uiso   1.00
H77    H     0.48347   0.11094   0.15909   0.00000  Uiso   1.00
H78    H     0.39334   0.22215   0.07232   0.00000  Uiso   1.00
H79    H     0.33750   0.07824   0.12599   0.00000  Uiso   1.00
H80    H     0.70775   0.99043   0.27091   0.00000  Uiso   1.00
H81    H     0.31196   0.41165   0.98880   0.00000  Uiso   1.00
H82    H     0.19424   0.10818   0.10198   0.00000  Uiso   1.00
H83    H     0.97499   0.92301   0.40758   0.00000  Uiso   1.00
O84    O     0.31654   0.71241   0.97534   0.00000  Uiso   1.00
O85    O     0.16212   0.31426   0.12384   0.00000  Uiso   1.00
O86    O     0.18644   0.07132   0.52477   0.00000  Uiso   1.00
N87    N     0.41812   0.73036   0.06475   0.00000  Uiso   1.00
N88    N     0.30805   0.44665   0.17056   0.00000  Uiso   1.00
N89    N     0.03798   0.27352   0.45627   0.00000  Uiso   1.00
N90    N     0.35214   0.49534   0.01969   0.00000  Uiso   1.00
N91    N     0.24206   0.21163   0.12549   0.00000  Uiso   1.00
N92    N     0.97199   0.03849   0.41121   0.00000  Uiso   1.00
C93    C     0.91127   0.73929   0.76809   0.00000  Uiso   1.00
C94    C     0.97658   0.74293   0.82618   0.00000  Uiso   1.00
C95    C     0.99528   0.87742   0.85031   0.00000  Uiso   1.00
C96    C     0.05707   0.85586   0.90385   0.00000  Uiso   1.00
C97    C     0.15221   0.88445   0.98976   0.00000  Uiso   1.00
C98    C     0.00525   0.66561   0.79611   0.00000  Uiso   1.00
C99    C     0.04804   0.73508   0.79496   0.00000  Uiso   1.00
C100   C     0.13395   0.64841   0.82318   0.00000  Uiso   1.00
C101   C     0.27353   0.55691   0.86236   0.00000  Uiso   1.00
C102   C     0.80440   0.61919   0.71773   0.00000  Uiso   1.00
C103   C     0.67833   0.64960   0.65068   0.00000  Uiso   1.00
C104   C     0.59514   0.52384   0.61291   0.00000  Uiso   1.00
C105   C     0.42288   0.36026   0.53040   0.00000  Uiso   1.00
C106   C     0.98773   0.46183   0.82025   0.00000  Uiso   1.00
C107   C     0.01811   0.59223   0.85451   0.00000  Uiso   1.00
C108   C     0.07988   0.57045   0.90802   0.00000  Uiso   1.00
C109   C     0.09867   0.70488   0.93224   0.00000  Uiso   1.00
C110   C     0.04678   0.51491   0.82444   0.00000  Uiso   1.00
C111   C     0.13263   0.42811   0.85266   0.00000  Uiso   1.00
C112   C     0.17556   0.49744   0.85156   0.00000  Uiso   1.00
C113   C     0.84593   0.46848   0.74606   0.00000  Uiso   1.00
C114   C     0.76293   0.34264   0.70839   0.00000  Uiso   1.00
C115   C     0.63675   0.37286   0.64129   0.00000  Uiso   1.00
H116   H     0.87894   0.85661   0.74603   0.00000  Uiso   1.00
H117   H     0.96314   0.99403   0.82838   0.00000  Uiso   1.00
H118   H     0.01588   0.85170   0.77302   0.00000  Uiso   1.00
H119   H     0.64623   0.76624   0.62877   0.00000  Uiso   1.00
H120   H     0.07484   0.07993   0.93219   0.00000  Uiso   1.00
H121   H     0.18601   0.77980   0.81544   0.00000  Uiso   1.00
H122   H     0.40653   0.59959   0.51126   0.00000  Uiso   1.00
H123   H     0.02007   0.34450   0.84231   0.00000  Uiso   1.00
H124   H     0.11201   0.45382   0.92994   0.00000  Uiso   1.00
H125   H     0.16475   0.31149   0.87458   0.00000  Uiso   1.00
H126   H     0.79510   0.22603   0.73033   0.00000  Uiso   1.00
H127   H     0.19567   0.64148   0.01461   0.00000  Uiso   1.00
H128   H     0.30684   0.34135   0.89787   0.00000  Uiso   1.00
H129   H     0.52736   0.16114   0.59368   0.00000  Uiso   1.00
O130   O     0.19323   0.94186   0.02932   0.00000  Uiso   1.00
O131   O     0.33905   0.54809   0.87615   0.00000  Uiso   1.00
O132   O     0.31640   0.31167   0.47707   0.00000  Uiso   1.00
N133   N     0.09064   0.96173   0.93955   0.00000  Uiso   1.00
N134   N     0.19459   0.68114   0.83041   0.00000  Uiso   1.00
N135   N     0.46584   0.51265   0.54602   0.00000  Uiso   1.00
N136   N     0.15565   0.72580   0.98390   0.00000  Uiso   1.00
N137   N     0.25961   0.44521   0.87477   0.00000  Uiso   1.00
N138   N     0.53086   0.27672   0.59037   0.00000  Uiso   1.00
C139   C     0.40611   0.00421   0.26551   0.00000  Uiso   1.00
C140   C     0.47066   0.00910   0.32329   0.00000  Uiso   1.00
C141   C     0.48819   0.14413   0.34678   0.00000  Uiso   1.00
C142   C     0.54944   0.12370   0.40015   0.00000  Uiso   1.00
C143   C     0.64331   0.15414   0.48551   0.00000  Uiso   1.00
C144   C     0.50102   0.93092   0.29414   0.00000  Uiso   1.00
C145   C     0.54406   0.00021   0.29312   0.00000  Uiso   1.00
C146   C     0.63085   0.91395   0.32193   0.00000  Uiso   1.00
C147   C     0.77178   0.82296   0.36200   0.00000  Uiso   1.00
C148   C     0.29985   0.88321   0.21541   0.00000  Uiso   1.00
C149   C     0.17374   0.91237   0.14817   0.00000  Uiso   1.00
C150   C     0.09117   0.78594   0.11069   0.00000  Uiso   1.00
C151   C     0.91976   0.62089   0.02850   0.00000  Uiso   1.00
C152   C     0.48371   0.72782   0.31850   0.00000  Uiso   1.00
C153   C     0.51281   0.85897   0.35208   0.00000  Uiso   1.00
C154   C     0.57405   0.83834   0.40541   0.00000  Uiso   1.00
C155   C     0.59166   0.97331   0.42898   0.00000  Uiso   1.00
C156   C     0.54317   0.78080   0.32293   0.00000  Uiso   1.00
C157   C     0.62991   0.69442   0.35175   0.00000  Uiso   1.00
C158   C     0.67308   0.76356   0.35077   0.00000  Uiso   1.00
C159   C     0.34200   0.73309   0.24419   0.00000  Uiso   1.00
C160   C     0.25960   0.60658   0.20680   0.00000  Uiso   1.00
C161   C     0.13340   0.63555   0.13952   0.00000  Uiso   1.00
H162   H     0.37330   0.12108   0.24310   0.00000  Uiso   1.00
H163   H     0.45557   0.26029   0.32450   0.00000  Uiso   1.00
H164   H     0.51141   0.11637   0.27083   0.00000  Uiso   1.00
H165   H     0.14116   0.02856   0.12591   0.00000  Uiso   1.00
H166   H     0.56541   0.34842   0.42746   0.00000  Uiso   1.00
H167   H     0.68313   0.04496   0.31428   0.00000  Uiso   1.00
H168   H     0.90237   0.85978   0.00868   0.00000  Uiso   1.00
H169   H     0.51653   0.61094   0.34091   0.00000  Uiso   1.00
H170   H     0.60666   0.72215   0.42768   0.00000  Uiso   1.00
H171   H     0.66250   0.57824   0.37401   0.00000  Uiso   1.00
H172   H     0.29225   0.49043   0.22909   0.00000  Uiso   1.00
H173   H     0.68804   0.91165   0.51120   0.00000  Uiso   1.00
H174   H     0.80576   0.60818   0.39802   0.00000  Uiso   1.00
H175   H     0.02501   0.42301   0.09242   0.00000  Uiso   1.00
O176   O     0.68346   0.21241   0.52466   0.00000  Uiso   1.00
O177   O     0.83788   0.81426   0.37616   0.00000  Uiso   1.00
O178   O     0.81356   0.57132   0.97523   0.00000  Uiso   1.00
N179   N     0.58188   0.23036   0.43525   0.00000  Uiso   1.00
N180   N     0.69195   0.94665   0.32944   0.00000  Uiso   1.00
N181   N     0.96202   0.77352   0.04373   0.00000  Uiso   1.00
N182   N     0.64786   0.99534   0.48031   0.00000  Uiso   1.00
N183   N     0.75794   0.71163   0.37451   0.00000  Uiso   1.00
N184   N     0.02801   0.53849   0.08879   0.00000  Uiso   1.00
C185   C     0.91127   0.76071   0.26809   0.00000  Uiso   1.00
C186   C     0.97658   0.75707   0.32618   0.00000  Uiso   1.00
C187   C     0.99528   0.62258   0.35031   0.00000  Uiso   1.00
C188   C     0.05707   0.64414   0.40385   0.00000  Uiso   1.00
C189   C     0.15221   0.61555   0.48976   0.00000  Uiso   1.00
C190   C     0.00525   0.83439   0.29611   0.00000  Uiso   1.00
C191   C     0.04804   0.76492   0.29496   0.00000  Uiso   1.00
C192   C     0.13395   0.85159   0.32318   0.00000  Uiso   1.00
C193   C     0.27353   0.94309   0.36236   0.00000  Uiso   1.00
C194   C     0.80440   0.88081   0.21773   0.00000  Uiso   1.00
C195   C     0.67833   0.85040   0.15068   0.00000  Uiso   1.00
C196   C     0.59514   0.97616   0.11291   0.00000  Uiso   1.00
C197   C     0.42288   0.13974   0.03040   0.00000  Uiso   1.00
C198   C     0.98773   0.03817   0.32025   0.00000  Uiso   1.00
C199   C     0.01811   0.90777   0.35451   0.00000  Uiso   1.00
C200   C     0.07988   0.92955   0.40802   0.00000  Uiso   1.00
C201   C     0.09867   0.79512   0.43224   0.00000  Uiso   1.00
C202   C     0.04678   0.98509   0.32444   0.00000  Uiso   1.00
C203   C     0.13263   0.07189   0.35266   0.00000  Uiso   1.00
C204   C     0.17556   0.00256   0.35156   0.00000  Uiso   1.00
C205   C     0.84593   0.03152   0.24606   0.00000  Uiso   1.00
C206   C     0.76293   0.15736   0.20839   0.00000  Uiso   1.00
C207   C     0.63675   0.12714   0.14129   0.00000  Uiso   1.00
H208   H     0.87894   0.64339   0.24603   0.00000  Uiso   1.00
H209   H     0.96314   0.50597   0.32838   0.00000  Uiso   1.00
H210   H     0.01588   0.64830   0.27302   0.00000  Uiso   1.00
H211   H     0.64623   0.73376   0.12877   0.00000  Uiso   1.00
H212   H     0.07484   0.42007   0.43219   0.00000  Uiso   1.00
H213   H     0.18601   0.72020   0.31544   0.00000  Uiso   1.00
H214   H     0.40653   0.90041   0.01126   0.00000  Uiso   1.00
H215   H     0.02007   0.15550   0.34231   0.00000  Uiso   1.00
H216   H     0.11201   0.04618   0.42994   0.00000  Uiso   1.00
H217   H     0.16475   0.18851   0.37458   0.00000  Uiso   1.00
H218   H     0.79510   0.27397   0.23033   0.00000  Uiso   1.00
H219   H     0.19567   0.85852   0.51461   0.00000  Uiso   1.00
H220   H     0.30684   0.15865   0.39787   0.00000  Uiso   1.00
H221   H     0.52736   0.33886   0.09368   0.00000  Uiso   1.00
O222   O     0.19323   0.55814   0.52932   0.00000  Uiso   1.00
O223   O     0.33905   0.95191   0.37615   0.00000  Uiso   1.00
O224   O     0.31640   0.18833   0.97707   0.00000  Uiso   1.00
N225   N     0.09064   0.53827   0.43955   0.00000  Uiso   1.00
N226   N     0.19459   0.81886   0.33041   0.00000  Uiso   1.00
N227   N     0.46584   0.98735   0.04602   0.00000  Uiso   1.00
N228   N     0.15565   0.77420   0.48390   0.00000  Uiso   1.00
N229   N     0.25961   0.05479   0.37477   0.00000  Uiso   1.00
N230   N     0.53086   0.22328   0.09037   0.00000  Uiso   1.00
C231   C     0.40611   0.49579   0.76551   0.00000  Uiso   1.00
C232   C     0.47066   0.49090   0.82329   0.00000  Uiso   1.00
C233   C     0.48819   0.35587   0.84678   0.00000  Uiso   1.00
C234   C     0.54944   0.37630   0.90015   0.00000  Uiso   1.00
C235   C     0.64331   0.34586   0.98551   0.00000  Uiso   1.00
C236   C     0.50102   0.56908   0.79414   0.00000  Uiso   1.00
C237   C     0.54406   0.49979   0.79312   0.00000  Uiso   1.00
C238   C     0.63085   0.58605   0.82193   0.00000  Uiso   1.00
C239   C     0.77178   0.67704   0.86200   0.00000  Uiso   1.00
C240   C     0.29985   0.61679   0.71541   0.00000  Uiso   1.00
C241   C     0.17374   0.58763   0.64817   0.00000  Uiso   1.00
C242   C     0.09117   0.71406   0.61069   0.00000  Uiso   1.00
C243   C     0.91976   0.87911   0.52850   0.00000  Uiso   1.00
C244   C     0.48371   0.77218   0.81850   0.00000  Uiso   1.00
C245   C     0.51281   0.64103   0.85208   0.00000  Uiso   1.00
C246   C     0.57405   0.66166   0.90541   0.00000  Uiso   1.00
C247   C     0.59166   0.52669   0.92898   0.00000  Uiso   1.00
C248   C     0.54317   0.71920   0.82293   0.00000  Uiso   1.00
C249   C     0.62991   0.80558   0.85175   0.00000  Uiso   1.00
C250   C     0.67308   0.73644   0.85077   0.00000  Uiso   1.00
C251   C     0.34200   0.76691   0.74419   0.00000  Uiso   1.00
C252   C     0.25960   0.89342   0.70680   0.00000  Uiso   1.00
C253   C     0.13340   0.86445   0.63952   0.00000  Uiso   1.00
H254   H     0.37330   0.37892   0.74310   0.00000  Uiso   1.00
H255   H     0.45557   0.23971   0.82450   0.00000  Uiso   1.00
H256   H     0.51141   0.38363   0.77083   0.00000  Uiso   1.00
H257   H     0.14116   0.47144   0.62591   0.00000  Uiso   1.00
H258   H     0.56541   0.15158   0.92746   0.00000  Uiso   1.00
H259   H     0.68313   0.45504   0.81428   0.00000  Uiso   1.00
H260   H     0.90237   0.64022   0.50868   0.00000  Uiso   1.00
H261   H     0.51653   0.88906   0.84091   0.00000  Uiso   1.00
H262   H     0.60666   0.77785   0.92768   0.00000  Uiso   1.00
H263   H     0.66250   0.92176   0.87401   0.00000  Uiso   1.00
H264   H     0.29225   0.00957   0.72909   0.00000  Uiso   1.00
H265   H     0.68804   0.58835   0.01120   0.00000  Uiso   1.00
H266   H     0.80576   0.89182   0.89802   0.00000  Uiso   1.00
H267   H     0.02501   0.07699   0.59242   0.00000  Uiso   1.00
O268   O     0.68346   0.28759   0.02466   0.00000  Uiso   1.00
O269   O     0.83788   0.68574   0.87616   0.00000  Uiso   1.00
O270   O     0.81356   0.92868   0.47523   0.00000  Uiso   1.00
N271   N     0.58188   0.26964   0.93525   0.00000  Uiso   1.00
N272   N     0.69195   0.55335   0.82944   0.00000  Uiso   1.00
N273   N     0.96202   0.72648   0.54373   0.00000  Uiso   1.00
N274   N     0.64786   0.50466   0.98031   0.00000  Uiso   1.00
N275   N     0.75794   0.78837   0.87451   0.00000  Uiso   1.00
N276   N     0.02801   0.96151   0.58879   0.00000  Uiso   1.00
C277   C     0.08873   0.26071   0.23191   0.00000  Uiso   1.00
C278   C     0.02342   0.25707   0.17382   0.00000  Uiso   1.00
C279   C     0.00472   0.12258   0.14969   0.00000  Uiso   1.00
C280   C     0.94293   0.14414   0.09615   0.00000  Uiso   1.00
C281   C     0.84779   0.11555   0.01024   0.00000  Uiso   1.00
C282   C     0.99475   0.33439   0.20389   0.00000  Uiso   1.00
C283   C     0.95196   0.26492   0.20504   0.00000  Uiso   1.00
C284   C     0.86605   0.35159   0.17682   0.00000  Uiso   1.00
C285   C     0.72647   0.44309   0.13764   0.00000  Uiso   1.00
C286   C     0.19560   0.38081   0.28227   0.00000  Uiso   1.00
C287   C     0.32167   0.35040   0.34932   0.00000  Uiso   1.00
C288   C     0.40486   0.47616   0.38709   0.00000  Uiso   1.00
C289   C     0.57712   0.63974   0.46960   0.00000  Uiso   1.00
C290   C     0.01227   0.53817   0.17975   0.00000  Uiso   1.00
C291   C     0.98189   0.40777   0.14549   0.00000  Uiso   1.00
C292   C     0.92012   0.42955   0.09198   0.00000  Uiso   1.00
C293   C     0.90133   0.29512   0.06776   0.00000  Uiso   1.00
C294   C     0.95322   0.48509   0.17556   0.00000  Uiso   1.00
C295   C     0.86737   0.57189   0.14734   0.00000  Uiso   1.00
C296   C     0.82444   0.50256   0.14844   0.00000  Uiso   1.00
C297   C     0.15407   0.53152   0.25394   0.00000  Uiso   1.00
C298   C     0.23707   0.65736   0.29161   0.00000  Uiso   1.00
C299   C     0.36325   0.62714   0.35871   0.00000  Uiso   1.00
H300   H     0.12106   0.14339   0.25397   0.00000  Uiso   1.00
H301   H     0.03686   0.00597   0.17162   0.00000  Uiso   1.00
H302   H     0.98412   0.14830   0.22698   0.00000  Uiso   1.00
H303   H     0.35377   0.23376   0.37123   0.00000  Uiso   1.00
H304   H     0.92516   0.92007   0.06781   0.00000  Uiso   1.00
H305   H     0.81399   0.22020   0.18456   0.00000  Uiso   1.00
H306   H     0.59347   0.40041   0.48874   0.00000  Uiso   1.00
H307   H     0.97993   0.65550   0.15769   0.00000  Uiso   1.00
H308   H     0.88799   0.54618   0.07006   0.00000  Uiso   1.00
H309   H     0.83525   0.68851   0.12542   0.00000  Uiso   1.00
H310   H     0.20490   0.77397   0.26967   0.00000  Uiso   1.00
H311   H     0.80433   0.35852   0.98539   0.00000  Uiso   1.00
H312   H     0.69316   0.65865   0.10213   0.00000  Uiso   1.00
H313   H     0.47264   0.83886   0.40632   0.00000  Uiso   1.00
O314   O     0.80677   0.05814   0.97068   0.00000  Uiso   1.00
O315   O     0.66095   0.45191   0.12385   0.00000  Uiso   1.00
O316   O     0.68360   0.68833   0.52293   0.00000  Uiso   1.00
N317   N     0.90936   0.03827   0.06045   0.00000  Uiso   1.00
N318   N     0.80541   0.31886   0.16959   0.00000  Uiso   1.00
N319   N     0.53416   0.48735   0.45398   0.00000  Uiso   1.00
N320   N     0.84435   0.27420   0.01610   0.00000  Uiso   1.00
N321   N     0.74039   0.55479   0.12523   0.00000  Uiso   1.00
N322   N     0.46914   0.72328   0.40963   0.00000  Uiso   1.00
C323   C     0.59389   0.99579   0.73449   0.00000  Uiso   1.00
C324   C     0.52934   0.99090   0.67671   0.00000  Uiso   1.00
C325   C     0.51181   0.85587   0.65322   0.00000  Uiso   1.00
C326   C     0.45056   0.87630   0.59985   0.00000  Uiso   1.00
C327   C     0.35669   0.84586   0.51449   0.00000  Uiso   1.00
C328   C     0.49898   0.06908   0.70586   0.00000  Uiso   1.00
C329   C     0.45594   0.99979   0.70688   0.00000  Uiso   1.00
C330   C     0.36915   0.08605   0.67807   0.00000  Uiso   1.00
C331   C     0.22822   0.17704   0.63800   0.00000  Uiso   1.00
C332   C     0.70015   0.11679   0.78459   0.00000  Uiso   1.00
C333   C     0.82626   0.08763   0.85183   0.00000  Uiso   1.00
C334   C     0.90883   0.21406   0.88931   0.00000  Uiso   1.00
C335   C     0.08024   0.37911   0.97150   0.00000  Uiso   1.00
C336   C     0.51629   0.27218   0.68150   0.00000  Uiso   1.00
C337   C     0.48719   0.14103   0.64792   0.00000  Uiso   1.00
C338   C     0.42595   0.16166   0.59459   0.00000  Uiso   1.00
C339   C     0.40834   0.02669   0.57102   0.00000  Uiso   1.00
C340   C     0.45683   0.21920   0.67707   0.00000  Uiso   1.00
C341   C     0.37009   0.30558   0.64825   0.00000  Uiso   1.00
C342   C     0.32692   0.23644   0.64923   0.00000  Uiso   1.00
C343   C     0.65800   0.26691   0.75581   0.00000  Uiso   1.00
C344   C     0.74040   0.39342   0.79320   0.00000  Uiso   1.00
C345   C     0.86660   0.36445   0.86048   0.00000  Uiso   1.00
H346   H     0.62670   0.87892   0.75690   0.00000  Uiso   1.00
H347   H     0.54443   0.73971   0.67550   0.00000  Uiso   1.00
H348   H     0.48859   0.88363   0.72917   0.00000  Uiso   1.00
H349   H     0.85884   0.97144   0.87409   0.00000  Uiso   1.00
H350   H     0.43459   0.65158   0.57254   0.00000  Uiso   1.00
H351   H     0.31687   0.95504   0.68572   0.00000  Uiso   1.00
H352   H     0.09763   0.14022   0.99132   0.00000  Uiso   1.00
H353   H     0.48347   0.38906   0.65909   0.00000  Uiso   1.00
H354   H     0.39334   0.27785   0.57232   0.00000  Uiso   1.00
H355   H     0.33750   0.42176   0.62599   0.00000  Uiso   1.00
H356   H     0.70775   0.50957   0.77091   0.00000  Uiso   1.00
H357   H     0.31196   0.08835   0.48880   0.00000  Uiso   1.00
H358   H     0.19424   0.39182   0.60198   0.00000  Uiso   1.00
H359   H     0.97499   0.57699   0.90758   0.00000  Uiso   1.00
O360   O     0.31654   0.78759   0.47534   0.00000  Uiso   1.00
O361   O     0.16212   0.18574   0.62384   0.00000  Uiso   1.00
O362   O     0.18644   0.42868   0.02477   0.00000  Uiso   1.00
N363   N     0.41812   0.76964   0.56475   0.00000  Uiso   1.00
N364   N     0.30805   0.05335   0.67056   0.00000  Uiso   1.00
N365   N     0.03798   0.22648   0.95627   0.00000  Uiso   1.00
N366   N     0.35214   0.00466   0.51969   0.00000  Uiso   1.00
N367   N     0.24206   0.28837   0.62549   0.00000  Uiso   1.00
N368   N     0.97199   0.46151   0.91121   0.00000  Uiso   1.00
