data_job_02082
_audit_creation_date              2018-12-19
_audit_creation_method            'Materials Studio'
_symmetry_space_group_name_H-M    'P1'
_symmetry_Int_Tables_number       1
_symmetry_cell_setting            triclinic
loop_
_symmetry_equiv_pos_as_xyz
  x,y,z
_cell_length_a                    14.4571
_cell_length_b                    8.5871
_cell_length_c                    21.0577
_cell_angle_alpha                 90.0000
_cell_angle_beta                  110.4118
_cell_angle_gamma                 90.0000
loop_
_atom_site_label
_atom_site_type_symbol
_atom_site_fract_x
_atom_site_fract_y
_atom_site_fract_z
_atom_site_U_iso_or_equiv
_atom_site_adp_type
_atom_site_occupancy
C1     C     0.68108   0.98790   0.78511   0.00000  Uiso   1.00
C2     C     0.69476   0.94149   0.71904   0.00000  Uiso   1.00
C3     C     0.64356   0.00315   0.65555   0.00000  Uiso   1.00
C4     C     0.66682   0.94518   0.60141   0.00000  Uiso   1.00
C5     C     0.67709   0.89063   0.49743   0.00000  Uiso   1.00
C6     C     0.65661   0.83809   0.81482   0.00000  Uiso   1.00
C7     C     0.57334   0.81284   0.83185   0.00000  Uiso   1.00
C8     C     0.56450   0.66784   0.85834   0.00000  Uiso   1.00
C9     C     0.51557   0.45282   0.90310   0.00000  Uiso   1.00
C10    C     0.78257   0.03840   0.83298   0.00000  Uiso   1.00
C11    C     0.80520   0.18156   0.86530   0.00000  Uiso   1.00
C12    C     0.90240   0.20519   0.90710   0.00000  Uiso   1.00
C13    C     0.04905   0.30118   0.98005   0.00000  Uiso   1.00
C14    C     0.81345   0.77530   0.80190   0.00000  Uiso   1.00
C15    C     0.76666   0.82601   0.72816   0.00000  Uiso   1.00
C16    C     0.79000   0.76794   0.67411   0.00000  Uiso   1.00
C17    C     0.73884   0.82950   0.61054   0.00000  Uiso   1.00
C18    C     0.72850   0.72262   0.82393   0.00000  Uiso   1.00
C19    C     0.71978   0.57763   0.85041   0.00000  Uiso   1.00
C20    C     0.63652   0.55216   0.86748   0.00000  Uiso   1.00
C21    C     0.85447   0.92293   0.84209   0.00000  Uiso   1.00
C22    C     0.95165   0.94635   0.88386   0.00000  Uiso   1.00
C23    C     0.97443   0.08951   0.91623   0.00000  Uiso   1.00
H24    H     0.62511   0.07779   0.77802   0.00000  Uiso   1.00
H25    H     0.58792   0.09250   0.64851   0.00000  Uiso   1.00
H26    H     0.51772   0.90223   0.82479   0.00000  Uiso   1.00
H27    H     0.74955   0.27089   0.85823   0.00000  Uiso   1.00
H28    H     0.57837   0.05784   0.50894   0.00000  Uiso   1.00
H29    H     0.43037   0.65667   0.88066   0.00000  Uiso   1.00
H30    H     0.91922   0.43406   0.95118   0.00000  Uiso   1.00
H31    H     0.86942   0.68539   0.80899   0.00000  Uiso   1.00
H32    H     0.84564   0.67858   0.68118   0.00000  Uiso   1.00
H33    H     0.77544   0.48830   0.85746   0.00000  Uiso   1.00
H34    H     0.00726   0.85696   0.89090   0.00000  Uiso   1.00
H35    H     0.78754   0.72188   0.53546   0.00000  Uiso   1.00
H36    H     0.63954   0.32071   0.90718   0.00000  Uiso   1.00
H37    H     0.12839   0.09810   0.97770   0.00000  Uiso   1.00
O38    O     0.66288   0.89242   0.43756   0.00000  Uiso   1.00
O39    O     0.46872   0.36611   0.92526   0.00000  Uiso   1.00
O40    O     0.11008   0.38602   0.01777   0.00000  Uiso   1.00
N41    N     0.63088   0.97973   0.53273   0.00000  Uiso   1.00
N42    N     0.49250   0.60465   0.88025   0.00000  Uiso   1.00
N43    N     0.94953   0.33143   0.94619   0.00000  Uiso   1.00
N44    N     0.74343   0.79896   0.54700   0.00000  Uiso   1.00
N45    N     0.60505   0.42387   0.89452   0.00000  Uiso   1.00
N46    N     0.06208   0.15065   0.96046   0.00000  Uiso   1.00
C47    C     0.31892   0.98790   0.71489   0.00000  Uiso   1.00
C48    C     0.30524   0.94149   0.78096   0.00000  Uiso   1.00
C49    C     0.35644   0.00315   0.84445   0.00000  Uiso   1.00
C50    C     0.33318   0.94518   0.89859   0.00000  Uiso   1.00
C51    C     0.32291   0.89063   0.00257   0.00000  Uiso   1.00
C52    C     0.34339   0.83809   0.68518   0.00000  Uiso   1.00
C53    C     0.42666   0.81284   0.66815   0.00000  Uiso   1.00
C54    C     0.43550   0.66784   0.64166   0.00000  Uiso   1.00
C55    C     0.48443   0.45282   0.59690   0.00000  Uiso   1.00
C56    C     0.21743   0.03840   0.66702   0.00000  Uiso   1.00
C57    C     0.19480   0.18156   0.63470   0.00000  Uiso   1.00
C58    C     0.09760   0.20519   0.59290   0.00000  Uiso   1.00
C59    C     0.95095   0.30118   0.51995   0.00000  Uiso   1.00
C60    C     0.18655   0.77530   0.69810   0.00000  Uiso   1.00
C61    C     0.23334   0.82601   0.77184   0.00000  Uiso   1.00
C62    C     0.21000   0.76794   0.82589   0.00000  Uiso   1.00
C63    C     0.26116   0.82950   0.88946   0.00000  Uiso   1.00
C64    C     0.27150   0.72262   0.67607   0.00000  Uiso   1.00
C65    C     0.28022   0.57763   0.64959   0.00000  Uiso   1.00
C66    C     0.36348   0.55216   0.63252   0.00000  Uiso   1.00
C67    C     0.14553   0.92293   0.65791   0.00000  Uiso   1.00
C68    C     0.04835   0.94635   0.61614   0.00000  Uiso   1.00
C69    C     0.02557   0.08951   0.58377   0.00000  Uiso   1.00
H70    H     0.37489   0.07779   0.72198   0.00000  Uiso   1.00
H71    H     0.41208   0.09250   0.85149   0.00000  Uiso   1.00
H72    H     0.48228   0.90223   0.67521   0.00000  Uiso   1.00
H73    H     0.25045   0.27089   0.64177   0.00000  Uiso   1.00
H74    H     0.42163   0.05784   0.99106   0.00000  Uiso   1.00
H75    H     0.56963   0.65667   0.61934   0.00000  Uiso   1.00
H76    H     0.08078   0.43406   0.54882   0.00000  Uiso   1.00
H77    H     0.13058   0.68539   0.69101   0.00000  Uiso   1.00
H78    H     0.15436   0.67858   0.81882   0.00000  Uiso   1.00
H79    H     0.22456   0.48830   0.64254   0.00000  Uiso   1.00
H80    H     0.99274   0.85696   0.60910   0.00000  Uiso   1.00
H81    H     0.21246   0.72188   0.96454   0.00000  Uiso   1.00
H82    H     0.36046   0.32071   0.59282   0.00000  Uiso   1.00
H83    H     0.87161   0.09810   0.52230   0.00000  Uiso   1.00
O84    O     0.33712   0.89242   0.06244   0.00000  Uiso   1.00
O85    O     0.53128   0.36611   0.57474   0.00000  Uiso   1.00
O86    O     0.88992   0.38602   0.48223   0.00000  Uiso   1.00
N87    N     0.36912   0.97973   0.96727   0.00000  Uiso   1.00
N88    N     0.50750   0.60465   0.61975   0.00000  Uiso   1.00
N89    N     0.05047   0.33143   0.55381   0.00000  Uiso   1.00
N90    N     0.25657   0.79896   0.95300   0.00000  Uiso   1.00
N91    N     0.39495   0.42387   0.60548   0.00000  Uiso   1.00
N92    N     0.93792   0.15065   0.53954   0.00000  Uiso   1.00
C93    C     0.31892   0.01210   0.21489   0.00000  Uiso   1.00
C94    C     0.30524   0.05851   0.28096   0.00000  Uiso   1.00
C95    C     0.35644   0.99685   0.34445   0.00000  Uiso   1.00
C96    C     0.33318   0.05482   0.39859   0.00000  Uiso   1.00
C97    C     0.32291   0.10937   0.50257   0.00000  Uiso   1.00
C98    C     0.34339   0.16191   0.18518   0.00000  Uiso   1.00
C99    C     0.42666   0.18716   0.16815   0.00000  Uiso   1.00
C100   C     0.43550   0.33216   0.14166   0.00000  Uiso   1.00
C101   C     0.48443   0.54718   0.09690   0.00000  Uiso   1.00
C102   C     0.21743   0.96160   0.16702   0.00000  Uiso   1.00
C103   C     0.19480   0.81844   0.13470   0.00000  Uiso   1.00
C104   C     0.09760   0.79481   0.09290   0.00000  Uiso   1.00
C105   C     0.95095   0.69882   0.01995   0.00000  Uiso   1.00
C106   C     0.18655   0.22470   0.19810   0.00000  Uiso   1.00
C107   C     0.23334   0.17399   0.27184   0.00000  Uiso   1.00
C108   C     0.21000   0.23206   0.32589   0.00000  Uiso   1.00
C109   C     0.26116   0.17050   0.38946   0.00000  Uiso   1.00
C110   C     0.27150   0.27738   0.17607   0.00000  Uiso   1.00
C111   C     0.28022   0.42237   0.14959   0.00000  Uiso   1.00
C112   C     0.36348   0.44784   0.13252   0.00000  Uiso   1.00
C113   C     0.14553   0.07707   0.15791   0.00000  Uiso   1.00
C114   C     0.04835   0.05365   0.11614   0.00000  Uiso   1.00
C115   C     0.02557   0.91049   0.08377   0.00000  Uiso   1.00
H116   H     0.37489   0.92221   0.22198   0.00000  Uiso   1.00
H117   H     0.41208   0.90750   0.35149   0.00000  Uiso   1.00
H118   H     0.48228   0.09777   0.17521   0.00000  Uiso   1.00
H119   H     0.25045   0.72911   0.14177   0.00000  Uiso   1.00
H120   H     0.42163   0.94216   0.49106   0.00000  Uiso   1.00
H121   H     0.56963   0.34333   0.11934   0.00000  Uiso   1.00
H122   H     0.08078   0.56594   0.04882   0.00000  Uiso   1.00
H123   H     0.13058   0.31461   0.19101   0.00000  Uiso   1.00
H124   H     0.15436   0.32142   0.31882   0.00000  Uiso   1.00
H125   H     0.22456   0.51170   0.14254   0.00000  Uiso   1.00
H126   H     0.99274   0.14304   0.10910   0.00000  Uiso   1.00
H127   H     0.21246   0.27812   0.46454   0.00000  Uiso   1.00
H128   H     0.36046   0.67929   0.09282   0.00000  Uiso   1.00
H129   H     0.87161   0.90190   0.02230   0.00000  Uiso   1.00
O130   O     0.33712   0.10758   0.56244   0.00000  Uiso   1.00
O131   O     0.53128   0.63389   0.07474   0.00000  Uiso   1.00
O132   O     0.88992   0.61398   0.98223   0.00000  Uiso   1.00
N133   N     0.36912   0.02027   0.46727   0.00000  Uiso   1.00
N134   N     0.50750   0.39535   0.11975   0.00000  Uiso   1.00
N135   N     0.05047   0.66857   0.05381   0.00000  Uiso   1.00
N136   N     0.25657   0.20104   0.45300   0.00000  Uiso   1.00
N137   N     0.39495   0.57613   0.10548   0.00000  Uiso   1.00
N138   N     0.93792   0.84935   0.03954   0.00000  Uiso   1.00
C139   C     0.68108   0.01210   0.28511   0.00000  Uiso   1.00
C140   C     0.69476   0.05851   0.21904   0.00000  Uiso   1.00
C141   C     0.64356   0.99685   0.15555   0.00000  Uiso   1.00
C142   C     0.66682   0.05482   0.10141   0.00000  Uiso   1.00
C143   C     0.67709   0.10937   0.99743   0.00000  Uiso   1.00
C144   C     0.65661   0.16191   0.31482   0.00000  Uiso   1.00
C145   C     0.57334   0.18716   0.33185   0.00000  Uiso   1.00
C146   C     0.56450   0.33216   0.35834   0.00000  Uiso   1.00
C147   C     0.51557   0.54718   0.40310   0.00000  Uiso   1.00
C148   C     0.78257   0.96160   0.33298   0.00000  Uiso   1.00
C149   C     0.80520   0.81844   0.36530   0.00000  Uiso   1.00
C150   C     0.90240   0.79481   0.40710   0.00000  Uiso   1.00
C151   C     0.04905   0.69882   0.48005   0.00000  Uiso   1.00
C152   C     0.81345   0.22470   0.30190   0.00000  Uiso   1.00
C153   C     0.76666   0.17399   0.22816   0.00000  Uiso   1.00
C154   C     0.79000   0.23206   0.17411   0.00000  Uiso   1.00
C155   C     0.73884   0.17050   0.11054   0.00000  Uiso   1.00
C156   C     0.72850   0.27738   0.32393   0.00000  Uiso   1.00
C157   C     0.71978   0.42237   0.35041   0.00000  Uiso   1.00
C158   C     0.63652   0.44784   0.36748   0.00000  Uiso   1.00
C159   C     0.85447   0.07707   0.34209   0.00000  Uiso   1.00
C160   C     0.95165   0.05365   0.38386   0.00000  Uiso   1.00
C161   C     0.97443   0.91049   0.41623   0.00000  Uiso   1.00
H162   H     0.62511   0.92221   0.27802   0.00000  Uiso   1.00
H163   H     0.58792   0.90750   0.14851   0.00000  Uiso   1.00
H164   H     0.51772   0.09777   0.32479   0.00000  Uiso   1.00
H165   H     0.74955   0.72911   0.35823   0.00000  Uiso   1.00
H166   H     0.57837   0.94216   0.00894   0.00000  Uiso   1.00
H167   H     0.43037   0.34333   0.38066   0.00000  Uiso   1.00
H168   H     0.91922   0.56594   0.45118   0.00000  Uiso   1.00
H169   H     0.86942   0.31461   0.30899   0.00000  Uiso   1.00
H170   H     0.84564   0.32142   0.18118   0.00000  Uiso   1.00
H171   H     0.77544   0.51170   0.35746   0.00000  Uiso   1.00
H172   H     0.00726   0.14304   0.39090   0.00000  Uiso   1.00
H173   H     0.78754   0.27812   0.03546   0.00000  Uiso   1.00
H174   H     0.63954   0.67929   0.40718   0.00000  Uiso   1.00
H175   H     0.12839   0.90190   0.47770   0.00000  Uiso   1.00
O176   O     0.66288   0.10758   0.93756   0.00000  Uiso   1.00
O177   O     0.46872   0.63389   0.42526   0.00000  Uiso   1.00
O178   O     0.11008   0.61398   0.51777   0.00000  Uiso   1.00
N179   N     0.63088   0.02027   0.03273   0.00000  Uiso   1.00
N180   N     0.49250   0.39535   0.38025   0.00000  Uiso   1.00
N181   N     0.94953   0.66857   0.44619   0.00000  Uiso   1.00
N182   N     0.74343   0.20104   0.04700   0.00000  Uiso   1.00
N183   N     0.60505   0.57613   0.39452   0.00000  Uiso   1.00
N184   N     0.06208   0.84935   0.46046   0.00000  Uiso   1.00
