data_job_03274
_audit_creation_date              2018-12-19
_audit_creation_method            'Materials Studio'
_symmetry_space_group_name_H-M    'P1'
_symmetry_Int_Tables_number       1
_symmetry_cell_setting            triclinic
loop_
_symmetry_equiv_pos_as_xyz
  x,y,z
_cell_length_a                    13.6396
_cell_length_b                    13.6396
_cell_length_c                    24.3965
_cell_angle_alpha                 90.0000
_cell_angle_beta                  90.0000
_cell_angle_gamma                 120.0000
loop_
_atom_site_label
_atom_site_type_symbol
_atom_site_fract_x
_atom_site_fract_y
_atom_site_fract_z
_atom_site_U_iso_or_equiv
_atom_site_adp_type
_atom_site_occupancy
C1     C     0.41587   0.99853   0.80661   0.00000  Uiso   1.00
C2     C     0.53526   0.01892   0.79750   0.00000  Uiso   1.00
C3     C     0.56251   0.94356   0.77329   0.00000  Uiso   1.00
C4     C     0.67673   0.97806   0.76874   0.00000  Uiso   1.00
C5     C     0.84934   0.99356   0.75173   0.00000  Uiso   1.00
C6     C     0.40626   0.01424   0.86788   0.00000  Uiso   1.00
C7     C     0.32504   0.93494   0.90284   0.00000  Uiso   1.00
C8     C     0.33067   0.96551   0.95753   0.00000  Uiso   1.00
C9     C     0.30296   0.97378   0.04977   0.00000  Uiso   1.00
C10    C     0.41189   0.09626   0.77842   0.00000  Uiso   1.00
C11    C     0.33539   0.08593   0.73817   0.00000  Uiso   1.00
C12    C     0.34574   0.18556   0.71754   0.00000  Uiso   1.00
C13    C     0.32678   0.32117   0.67088   0.00000  Uiso   1.00
C14    C     0.57025   0.19382   0.84158   0.00000  Uiso   1.00
C15    C     0.61911   0.12500   0.81650   0.00000  Uiso   1.00
C16    C     0.73331   0.15962   0.81197   0.00000  Uiso   1.00
C17    C     0.76073   0.08432   0.78776   0.00000  Uiso   1.00
C18    C     0.49011   0.12031   0.88687   0.00000  Uiso   1.00
C19    C     0.49585   0.15101   0.94152   0.00000  Uiso   1.00
C20    C     0.41467   0.07178   0.97655   0.00000  Uiso   1.00
C21    C     0.49575   0.20234   0.79741   0.00000  Uiso   1.00
C22    C     0.50620   0.30200   0.77685   0.00000  Uiso   1.00
C23    C     0.42974   0.29182   0.73657   0.00000  Uiso   1.00
H24    H     0.35059   0.91595   0.79183   0.00000  Uiso   1.00
H25    H     0.49759   0.86147   0.75861   0.00000  Uiso   1.00
H26    H     0.26016   0.85287   0.88813   0.00000  Uiso   1.00
H27    H     0.27052   0.00383   0.72348   0.00000  Uiso   1.00
H28    H     0.69755   0.84783   0.73016   0.00000  Uiso   1.00
H29    H     0.19689   0.82971   0.00327   0.00000  Uiso   1.00
H30    H     0.21872   0.14804   0.65607   0.00000  Uiso   1.00
H31    H     0.63553   0.27641   0.85636   0.00000  Uiso   1.00
H32    H     0.79818   0.24171   0.82667   0.00000  Uiso   1.00
H33    H     0.56074   0.23310   0.95620   0.00000  Uiso   1.00
H34    H     0.57110   0.38407   0.79155   0.00000  Uiso   1.00
H35    H     0.94152   0.15645   0.78541   0.00000  Uiso   1.00
H36    H     0.44085   0.13832   0.05852   0.00000  Uiso   1.00
H37    H     0.46268   0.45666   0.71132   0.00000  Uiso   1.00
O38    O     0.92139   0.97280   0.73711   0.00000  Uiso   1.00
O39    O     0.26452   0.94902   0.09541   0.00000  Uiso   1.00
O40    O     0.29316   0.36667   0.63989   0.00000  Uiso   1.00
N41    N     0.73265   0.92524   0.74723   0.00000  Uiso   1.00
N42    N     0.26457   0.90828   0.00257   0.00000  Uiso   1.00
N43    N     0.28496   0.20590   0.67798   0.00000  Uiso   1.00
N44    N     0.86393   0.09130   0.77695   0.00000  Uiso   1.00
N45    N     0.39585   0.07435   0.03230   0.00000  Uiso   1.00
N46    N     0.41623   0.37196   0.70771   0.00000  Uiso   1.00
C47    C     0.00147   0.41734   0.47328   0.00000  Uiso   1.00
C48    C     0.98108   0.51633   0.46417   0.00000  Uiso   1.00
C49    C     0.05644   0.61895   0.43996   0.00000  Uiso   1.00
C50    C     0.02194   0.69867   0.43540   0.00000  Uiso   1.00
C51    C     0.00644   0.85579   0.41839   0.00000  Uiso   1.00
C52    C     0.98576   0.39202   0.53455   0.00000  Uiso   1.00
C53    C     0.06506   0.39010   0.56951   0.00000  Uiso   1.00
C54    C     0.03449   0.36515   0.62419   0.00000  Uiso   1.00
C55    C     0.02622   0.32918   0.71644   0.00000  Uiso   1.00
C56    C     0.90374   0.31563   0.44509   0.00000  Uiso   1.00
C57    C     0.91407   0.24946   0.40483   0.00000  Uiso   1.00
C58    C     0.81444   0.16018   0.38421   0.00000  Uiso   1.00
C59    C     0.67883   0.00561   0.33755   0.00000  Uiso   1.00
C60    C     0.80618   0.37643   0.50824   0.00000  Uiso   1.00
C61    C     0.87500   0.49411   0.48316   0.00000  Uiso   1.00
C62    C     0.84038   0.57369   0.47864   0.00000  Uiso   1.00
C63    C     0.91568   0.67641   0.45442   0.00000  Uiso   1.00
C64    C     0.87969   0.36980   0.55354   0.00000  Uiso   1.00
C65    C     0.84899   0.34484   0.60819   0.00000  Uiso   1.00
C66    C     0.92822   0.34289   0.64322   0.00000  Uiso   1.00
C67    C     0.79766   0.29341   0.46408   0.00000  Uiso   1.00
C68    C     0.69800   0.20420   0.44351   0.00000  Uiso   1.00
C69    C     0.70818   0.13792   0.40323   0.00000  Uiso   1.00
H70    H     0.08405   0.43464   0.45850   0.00000  Uiso   1.00
H71    H     0.13853   0.63612   0.42527   0.00000  Uiso   1.00
H72    H     0.14713   0.40729   0.55480   0.00000  Uiso   1.00
H73    H     0.99617   0.26668   0.39015   0.00000  Uiso   1.00
H74    H     0.15217   0.84972   0.39683   0.00000  Uiso   1.00
H75    H     0.17029   0.36718   0.66993   0.00000  Uiso   1.00
H76    H     0.85196   0.07067   0.32274   0.00000  Uiso   1.00
H77    H     0.72359   0.35912   0.52303   0.00000  Uiso   1.00
H78    H     0.75829   0.55647   0.49334   0.00000  Uiso   1.00
H79    H     0.76690   0.32764   0.62287   0.00000  Uiso   1.00
H80    H     0.61593   0.18703   0.45822   0.00000  Uiso   1.00
H81    H     0.84355   0.78507   0.45208   0.00000  Uiso   1.00
H82    H     0.86168   0.30253   0.72518   0.00000  Uiso   1.00
H83    H     0.54334   0.00603   0.37799   0.00000  Uiso   1.00
O84    O     0.02720   0.94859   0.40377   0.00000  Uiso   1.00
O85    O     0.05098   0.31550   0.76208   0.00000  Uiso   1.00
O86    O     0.63333   0.92650   0.30656   0.00000  Uiso   1.00
N87    N     0.07476   0.80741   0.41389   0.00000  Uiso   1.00
N88    N     0.09172   0.35629   0.66923   0.00000  Uiso   1.00
N89    N     0.79410   0.07906   0.34465   0.00000  Uiso   1.00
N90    N     0.90870   0.77263   0.44362   0.00000  Uiso   1.00
N91    N     0.92565   0.32150   0.69896   0.00000  Uiso   1.00
N92    N     0.62804   0.04427   0.37437   0.00000  Uiso   1.00
C93    C     0.58266   0.58413   0.13995   0.00000  Uiso   1.00
C94    C     0.48367   0.46474   0.13084   0.00000  Uiso   1.00
C95    C     0.38105   0.43749   0.10663   0.00000  Uiso   1.00
C96    C     0.30133   0.32327   0.10207   0.00000  Uiso   1.00
C97    C     0.14421   0.15066   0.08506   0.00000  Uiso   1.00
C98    C     0.60798   0.59374   0.20122   0.00000  Uiso   1.00
C99    C     0.60990   0.67496   0.23617   0.00000  Uiso   1.00
C100   C     0.63485   0.66933   0.29086   0.00000  Uiso   1.00
C101   C     0.67082   0.69704   0.38311   0.00000  Uiso   1.00
C102   C     0.68437   0.58811   0.11175   0.00000  Uiso   1.00
C103   C     0.75054   0.66461   0.07150   0.00000  Uiso   1.00
C104   C     0.83982   0.65426   0.05087   0.00000  Uiso   1.00
C105   C     0.99439   0.67322   0.00422   0.00000  Uiso   1.00
C106   C     0.62357   0.42975   0.17491   0.00000  Uiso   1.00
C107   C     0.50589   0.38089   0.14983   0.00000  Uiso   1.00
C108   C     0.42631   0.26669   0.14531   0.00000  Uiso   1.00
C109   C     0.32359   0.23927   0.12109   0.00000  Uiso   1.00
C110   C     0.63020   0.50989   0.22021   0.00000  Uiso   1.00
C111   C     0.65516   0.50415   0.27485   0.00000  Uiso   1.00
C112   C     0.65711   0.58533   0.30989   0.00000  Uiso   1.00
C113   C     0.70659   0.50425   0.13074   0.00000  Uiso   1.00
C114   C     0.79580   0.49380   0.11018   0.00000  Uiso   1.00
C115   C     0.86208   0.57026   0.06990   0.00000  Uiso   1.00
H116   H     0.56536   0.64941   0.12517   0.00000  Uiso   1.00
H117   H     0.36388   0.50241   0.09194   0.00000  Uiso   1.00
H118   H     0.59271   0.73984   0.22146   0.00000  Uiso   1.00
H119   H     0.73332   0.72948   0.05681   0.00000  Uiso   1.00
H120   H     0.15028   0.30245   0.06349   0.00000  Uiso   1.00
H121   H     0.63282   0.80311   0.33660   0.00000  Uiso   1.00
H122   H     0.92933   0.78128   0.98940   0.00000  Uiso   1.00
H123   H     0.64088   0.36447   0.18970   0.00000  Uiso   1.00
H124   H     0.44353   0.20182   0.16001   0.00000  Uiso   1.00
H125   H     0.67236   0.43926   0.28953   0.00000  Uiso   1.00
H126   H     0.81297   0.42890   0.12488   0.00000  Uiso   1.00
H127   H     0.21493   0.05848   0.11874   0.00000  Uiso   1.00
H128   H     0.69747   0.55915   0.39185   0.00000  Uiso   1.00
H129   H     0.99397   0.53732   0.04465   0.00000  Uiso   1.00
O130   O     0.05141   0.07861   0.07044   0.00000  Uiso   1.00
O131   O     0.68450   0.73548   0.42874   0.00000  Uiso   1.00
O132   O     0.07350   0.70684   0.97323   0.00000  Uiso   1.00
N133   N     0.19259   0.26735   0.08056   0.00000  Uiso   1.00
N134   N     0.64371   0.73543   0.33590   0.00000  Uiso   1.00
N135   N     0.92094   0.71504   0.01131   0.00000  Uiso   1.00
N136   N     0.22737   0.13607   0.11029   0.00000  Uiso   1.00
N137   N     0.67850   0.60415   0.36563   0.00000  Uiso   1.00
N138   N     0.95573   0.58377   0.04104   0.00000  Uiso   1.00
C139   C     0.99853   0.41587   0.19339   0.00000  Uiso   1.00
C140   C     0.01892   0.53526   0.20250   0.00000  Uiso   1.00
C141   C     0.94356   0.56251   0.22671   0.00000  Uiso   1.00
C142   C     0.97806   0.67673   0.23126   0.00000  Uiso   1.00
C143   C     0.99356   0.84934   0.24827   0.00000  Uiso   1.00
C144   C     0.01424   0.40626   0.13212   0.00000  Uiso   1.00
C145   C     0.93494   0.32504   0.09716   0.00000  Uiso   1.00
C146   C     0.96551   0.33067   0.04247   0.00000  Uiso   1.00
C147   C     0.97378   0.30296   0.95023   0.00000  Uiso   1.00
C148   C     0.09626   0.41189   0.22158   0.00000  Uiso   1.00
C149   C     0.08593   0.33539   0.26183   0.00000  Uiso   1.00
C150   C     0.18556   0.34574   0.28246   0.00000  Uiso   1.00
C151   C     0.32117   0.32678   0.32912   0.00000  Uiso   1.00
C152   C     0.19382   0.57025   0.15842   0.00000  Uiso   1.00
C153   C     0.12500   0.61911   0.18350   0.00000  Uiso   1.00
C154   C     0.15962   0.73331   0.18803   0.00000  Uiso   1.00
C155   C     0.08432   0.76073   0.21224   0.00000  Uiso   1.00
C156   C     0.12031   0.49011   0.11313   0.00000  Uiso   1.00
C157   C     0.15101   0.49585   0.05848   0.00000  Uiso   1.00
C158   C     0.07178   0.41467   0.02345   0.00000  Uiso   1.00
C159   C     0.20234   0.49575   0.20259   0.00000  Uiso   1.00
C160   C     0.30200   0.50620   0.22315   0.00000  Uiso   1.00
C161   C     0.29182   0.42974   0.26343   0.00000  Uiso   1.00
H162   H     0.91595   0.35059   0.20817   0.00000  Uiso   1.00
H163   H     0.86147   0.49759   0.24139   0.00000  Uiso   1.00
H164   H     0.85287   0.26016   0.11187   0.00000  Uiso   1.00
H165   H     0.00383   0.27052   0.27652   0.00000  Uiso   1.00
H166   H     0.84783   0.69755   0.26984   0.00000  Uiso   1.00
H167   H     0.82971   0.19689   0.99673   0.00000  Uiso   1.00
H168   H     0.14804   0.21872   0.34393   0.00000  Uiso   1.00
H169   H     0.27641   0.63553   0.14364   0.00000  Uiso   1.00
H170   H     0.24171   0.79818   0.17333   0.00000  Uiso   1.00
H171   H     0.23310   0.56074   0.04380   0.00000  Uiso   1.00
H172   H     0.38407   0.57110   0.20845   0.00000  Uiso   1.00
H173   H     0.15645   0.94152   0.21459   0.00000  Uiso   1.00
H174   H     0.13832   0.44085   0.94148   0.00000  Uiso   1.00
H175   H     0.45666   0.46268   0.28868   0.00000  Uiso   1.00
O176   O     0.97280   0.92139   0.26289   0.00000  Uiso   1.00
O177   O     0.94902   0.26452   0.90459   0.00000  Uiso   1.00
O178   O     0.36667   0.29316   0.36011   0.00000  Uiso   1.00
N179   N     0.92524   0.73265   0.25277   0.00000  Uiso   1.00
N180   N     0.90828   0.26457   0.99743   0.00000  Uiso   1.00
N181   N     0.20590   0.28496   0.32202   0.00000  Uiso   1.00
N182   N     0.09130   0.86393   0.22305   0.00000  Uiso   1.00
N183   N     0.07435   0.39585   0.96770   0.00000  Uiso   1.00
N184   N     0.37196   0.41623   0.29229   0.00000  Uiso   1.00
C185   C     0.41734   0.00147   0.52672   0.00000  Uiso   1.00
C186   C     0.51633   0.98108   0.53583   0.00000  Uiso   1.00
C187   C     0.61895   0.05644   0.56004   0.00000  Uiso   1.00
C188   C     0.69867   0.02194   0.56460   0.00000  Uiso   1.00
C189   C     0.85579   0.00644   0.58161   0.00000  Uiso   1.00
C190   C     0.39202   0.98576   0.46545   0.00000  Uiso   1.00
C191   C     0.39010   0.06506   0.43049   0.00000  Uiso   1.00
C192   C     0.36515   0.03449   0.37581   0.00000  Uiso   1.00
C193   C     0.32918   0.02622   0.28356   0.00000  Uiso   1.00
C194   C     0.31563   0.90374   0.55491   0.00000  Uiso   1.00
C195   C     0.24946   0.91407   0.59517   0.00000  Uiso   1.00
C196   C     0.16018   0.81444   0.61579   0.00000  Uiso   1.00
C197   C     0.00561   0.67883   0.66245   0.00000  Uiso   1.00
C198   C     0.37643   0.80618   0.49176   0.00000  Uiso   1.00
C199   C     0.49411   0.87500   0.51684   0.00000  Uiso   1.00
C200   C     0.57369   0.84038   0.52136   0.00000  Uiso   1.00
C201   C     0.67641   0.91568   0.54558   0.00000  Uiso   1.00
C202   C     0.36980   0.87969   0.44646   0.00000  Uiso   1.00
C203   C     0.34484   0.84899   0.39181   0.00000  Uiso   1.00
C204   C     0.34289   0.92822   0.35678   0.00000  Uiso   1.00
C205   C     0.29341   0.79766   0.53592   0.00000  Uiso   1.00
C206   C     0.20420   0.69800   0.55649   0.00000  Uiso   1.00
C207   C     0.13792   0.70818   0.59677   0.00000  Uiso   1.00
H208   H     0.43464   0.08405   0.54150   0.00000  Uiso   1.00
H209   H     0.63612   0.13853   0.57473   0.00000  Uiso   1.00
H210   H     0.40729   0.14713   0.44520   0.00000  Uiso   1.00
H211   H     0.26668   0.99617   0.60985   0.00000  Uiso   1.00
H212   H     0.84972   0.15217   0.60317   0.00000  Uiso   1.00
H213   H     0.36718   0.17029   0.33007   0.00000  Uiso   1.00
H214   H     0.07067   0.85196   0.67726   0.00000  Uiso   1.00
H215   H     0.35912   0.72359   0.47697   0.00000  Uiso   1.00
H216   H     0.55647   0.75829   0.50666   0.00000  Uiso   1.00
H217   H     0.32764   0.76690   0.37713   0.00000  Uiso   1.00
H218   H     0.18703   0.61593   0.54178   0.00000  Uiso   1.00
H219   H     0.78507   0.84355   0.54792   0.00000  Uiso   1.00
H220   H     0.30253   0.86168   0.27482   0.00000  Uiso   1.00
H221   H     0.00603   0.54334   0.62201   0.00000  Uiso   1.00
O222   O     0.94859   0.02720   0.59623   0.00000  Uiso   1.00
O223   O     0.31550   0.05098   0.23792   0.00000  Uiso   1.00
O224   O     0.92650   0.63333   0.69344   0.00000  Uiso   1.00
N225   N     0.80741   0.07476   0.58611   0.00000  Uiso   1.00
N226   N     0.35629   0.09172   0.33077   0.00000  Uiso   1.00
N227   N     0.07906   0.79410   0.65535   0.00000  Uiso   1.00
N228   N     0.77263   0.90870   0.55638   0.00000  Uiso   1.00
N229   N     0.32150   0.92565   0.30104   0.00000  Uiso   1.00
N230   N     0.04427   0.62804   0.62563   0.00000  Uiso   1.00
C231   C     0.58413   0.58266   0.86005   0.00000  Uiso   1.00
C232   C     0.46474   0.48367   0.86916   0.00000  Uiso   1.00
C233   C     0.43749   0.38105   0.89337   0.00000  Uiso   1.00
C234   C     0.32327   0.30133   0.89793   0.00000  Uiso   1.00
C235   C     0.15066   0.14421   0.91494   0.00000  Uiso   1.00
C236   C     0.59374   0.60798   0.79878   0.00000  Uiso   1.00
C237   C     0.67496   0.60990   0.76383   0.00000  Uiso   1.00
C238   C     0.66933   0.63485   0.70914   0.00000  Uiso   1.00
C239   C     0.69704   0.67082   0.61689   0.00000  Uiso   1.00
C240   C     0.58811   0.68437   0.88825   0.00000  Uiso   1.00
C241   C     0.66461   0.75054   0.92850   0.00000  Uiso   1.00
C242   C     0.65426   0.83982   0.94913   0.00000  Uiso   1.00
C243   C     0.67322   0.99439   0.99578   0.00000  Uiso   1.00
C244   C     0.42975   0.62357   0.82509   0.00000  Uiso   1.00
C245   C     0.38089   0.50589   0.85017   0.00000  Uiso   1.00
C246   C     0.26669   0.42631   0.85469   0.00000  Uiso   1.00
C247   C     0.23927   0.32359   0.87891   0.00000  Uiso   1.00
C248   C     0.50989   0.63020   0.77979   0.00000  Uiso   1.00
C249   C     0.50415   0.65516   0.72515   0.00000  Uiso   1.00
C250   C     0.58533   0.65711   0.69011   0.00000  Uiso   1.00
C251   C     0.50425   0.70659   0.86926   0.00000  Uiso   1.00
C252   C     0.49380   0.79580   0.88982   0.00000  Uiso   1.00
C253   C     0.57026   0.86208   0.93010   0.00000  Uiso   1.00
H254   H     0.64941   0.56536   0.87483   0.00000  Uiso   1.00
H255   H     0.50241   0.36388   0.90806   0.00000  Uiso   1.00
H256   H     0.73984   0.59271   0.77854   0.00000  Uiso   1.00
H257   H     0.72948   0.73332   0.94319   0.00000  Uiso   1.00
H258   H     0.30245   0.15028   0.93651   0.00000  Uiso   1.00
H259   H     0.80311   0.63282   0.66340   0.00000  Uiso   1.00
H260   H     0.78128   0.92933   0.01060   0.00000  Uiso   1.00
H261   H     0.36447   0.64088   0.81030   0.00000  Uiso   1.00
H262   H     0.20182   0.44353   0.83999   0.00000  Uiso   1.00
H263   H     0.43926   0.67236   0.71047   0.00000  Uiso   1.00
H264   H     0.42890   0.81297   0.87512   0.00000  Uiso   1.00
H265   H     0.05848   0.21493   0.88126   0.00000  Uiso   1.00
H266   H     0.55915   0.69747   0.60815   0.00000  Uiso   1.00
H267   H     0.53732   0.99397   0.95535   0.00000  Uiso   1.00
O268   O     0.07861   0.05141   0.92956   0.00000  Uiso   1.00
O269   O     0.73548   0.68450   0.57126   0.00000  Uiso   1.00
O270   O     0.70684   0.07350   0.02677   0.00000  Uiso   1.00
N271   N     0.26735   0.19259   0.91944   0.00000  Uiso   1.00
N272   N     0.73543   0.64371   0.66410   0.00000  Uiso   1.00
N273   N     0.71504   0.92094   0.98869   0.00000  Uiso   1.00
N274   N     0.13607   0.22737   0.88971   0.00000  Uiso   1.00
N275   N     0.60415   0.67850   0.63437   0.00000  Uiso   1.00
N276   N     0.58377   0.95573   0.95896   0.00000  Uiso   1.00
