data_job_04605
_audit_creation_date              2018-12-19
_audit_creation_method            'Materials Studio'
_symmetry_space_group_name_H-M    'P1'
_symmetry_Int_Tables_number       1
_symmetry_cell_setting            triclinic
loop_
_symmetry_equiv_pos_as_xyz
  x,y,z
_cell_length_a                    42.2236
_cell_length_b                    7.0533
_cell_length_c                    22.9530
_cell_angle_alpha                 90.0000
_cell_angle_beta                  90.0000
_cell_angle_gamma                 90.0000
loop_
_atom_site_label
_atom_site_type_symbol
_atom_site_fract_x
_atom_site_fract_y
_atom_site_fract_z
_atom_site_U_iso_or_equiv
_atom_site_adp_type
_atom_site_occupancy
C1     C     0.08891   0.62039   0.75651   0.00000  Uiso   1.00
C2     C     0.06909   0.75851   0.72070   0.00000  Uiso   1.00
C3     C     0.05053   0.71173   0.67291   0.00000  Uiso   1.00
C4     C     0.03420   0.85855   0.64607   0.00000  Uiso   1.00
C5     C     0.00310   0.04461   0.58736   0.00000  Uiso   1.00
C6     C     0.12269   0.69675   0.75508   0.00000  Uiso   1.00
C7     C     0.14921   0.59801   0.73620   0.00000  Uiso   1.00
C8     C     0.17800   0.69284   0.73831   0.00000  Uiso   1.00
C9     C     0.23012   0.78295   0.73302   0.00000  Uiso   1.00
C10    C     0.07769   0.64164   0.81932   0.00000  Uiso   1.00
C11    C     0.06638   0.49656   0.85447   0.00000  Uiso   1.00
C12    C     0.05730   0.54498   0.91067   0.00000  Uiso   1.00
C13    C     0.03955   0.54954   0.00512   0.00000  Uiso   1.00
C14    C     0.09290   0.96436   0.79382   0.00000  Uiso   1.00
C15    C     0.07125   0.94534   0.74097   0.00000  Uiso   1.00
C16    C     0.05494   0.09228   0.71419   0.00000  Uiso   1.00
C17    C     0.03637   0.04571   0.66637   0.00000  Uiso   1.00
C18    C     0.12486   0.88357   0.77535   0.00000  Uiso   1.00
C19    C     0.15362   0.97856   0.77749   0.00000  Uiso   1.00
C20    C     0.18017   0.88000   0.75862   0.00000  Uiso   1.00
C21    C     0.07986   0.82847   0.83959   0.00000  Uiso   1.00
C22    C     0.07079   0.87712   0.89575   0.00000  Uiso   1.00
C23    C     0.05947   0.73215   0.93097   0.00000  Uiso   1.00
H24    H     0.08723   0.47494   0.74073   0.00000  Uiso   1.00
H25    H     0.04886   0.56713   0.65723   0.00000  Uiso   1.00
H26    H     0.14752   0.45343   0.72053   0.00000  Uiso   1.00
H27    H     0.06471   0.35200   0.83877   0.00000  Uiso   1.00
H28    H     0.00730   0.75173   0.57359   0.00000  Uiso   1.00
H29    H     0.21532   0.51197   0.70706   0.00000  Uiso   1.00
H30    H     0.04070   0.29808   0.95640   0.00000  Uiso   1.00
H31    H     0.09459   0.10981   0.80960   0.00000  Uiso   1.00
H32    H     0.05663   0.23684   0.72988   0.00000  Uiso   1.00
H33    H     0.15529   0.12314   0.79318   0.00000  Uiso   1.00
H34    H     0.07247   0.02171   0.91142   0.00000  Uiso   1.00
H35    H     0.01360   0.29530   0.63255   0.00000  Uiso   1.00
H36    H     0.22163   0.05552   0.76603   0.00000  Uiso   1.00
H37    H     0.04700   0.84165   0.01536   0.00000  Uiso   1.00
O38    O     0.98535   0.09563   0.54937   0.00000  Uiso   1.00
O39    O     0.25828   0.78105   0.72450   0.00000  Uiso   1.00
O40    O     0.02917   0.50044   0.05162   0.00000  Uiso   1.00
N41    N     0.01398   0.86222   0.59841   0.00000  Uiso   1.00
N42    N     0.20848   0.63806   0.72320   0.00000  Uiso   1.00
N43    N     0.04522   0.43809   0.95631   0.00000  Uiso   1.00
N44    N     0.01737   0.15471   0.63014   0.00000  Uiso   1.00
N45    N     0.21187   0.93055   0.75492   0.00000  Uiso   1.00
N46    N     0.04861   0.73058   0.98804   0.00000  Uiso   1.00
C47    C     0.41109   0.87961   0.25651   0.00000  Uiso   1.00
C48    C     0.43091   0.74149   0.22070   0.00000  Uiso   1.00
C49    C     0.44947   0.78827   0.17291   0.00000  Uiso   1.00
C50    C     0.46580   0.64145   0.14607   0.00000  Uiso   1.00
C51    C     0.49690   0.45539   0.08736   0.00000  Uiso   1.00
C52    C     0.37731   0.80325   0.25508   0.00000  Uiso   1.00
C53    C     0.35079   0.90199   0.23620   0.00000  Uiso   1.00
C54    C     0.32200   0.80716   0.23831   0.00000  Uiso   1.00
C55    C     0.26988   0.71705   0.23302   0.00000  Uiso   1.00
C56    C     0.42231   0.85836   0.31932   0.00000  Uiso   1.00
C57    C     0.43362   0.00344   0.35447   0.00000  Uiso   1.00
C58    C     0.44270   0.95502   0.41067   0.00000  Uiso   1.00
C59    C     0.46045   0.95046   0.50512   0.00000  Uiso   1.00
C60    C     0.40710   0.53564   0.29382   0.00000  Uiso   1.00
C61    C     0.42875   0.55466   0.24097   0.00000  Uiso   1.00
C62    C     0.44506   0.40772   0.21419   0.00000  Uiso   1.00
C63    C     0.46363   0.45429   0.16637   0.00000  Uiso   1.00
C64    C     0.37514   0.61643   0.27535   0.00000  Uiso   1.00
C65    C     0.34638   0.52144   0.27749   0.00000  Uiso   1.00
C66    C     0.31983   0.62000   0.25862   0.00000  Uiso   1.00
C67    C     0.42014   0.67153   0.33959   0.00000  Uiso   1.00
C68    C     0.42921   0.62288   0.39575   0.00000  Uiso   1.00
C69    C     0.44053   0.76785   0.43097   0.00000  Uiso   1.00
H70    H     0.41277   0.02506   0.24073   0.00000  Uiso   1.00
H71    H     0.45114   0.93287   0.15723   0.00000  Uiso   1.00
H72    H     0.35248   0.04657   0.22053   0.00000  Uiso   1.00
H73    H     0.43529   0.14800   0.33877   0.00000  Uiso   1.00
H74    H     0.49270   0.74827   0.07359   0.00000  Uiso   1.00
H75    H     0.28468   0.98803   0.20706   0.00000  Uiso   1.00
H76    H     0.45930   0.20192   0.45640   0.00000  Uiso   1.00
H77    H     0.40541   0.39019   0.30960   0.00000  Uiso   1.00
H78    H     0.44337   0.26316   0.22988   0.00000  Uiso   1.00
H79    H     0.34471   0.37686   0.29318   0.00000  Uiso   1.00
H80    H     0.42753   0.47829   0.41142   0.00000  Uiso   1.00
H81    H     0.48640   0.20470   0.13255   0.00000  Uiso   1.00
H82    H     0.27837   0.44448   0.26603   0.00000  Uiso   1.00
H83    H     0.45300   0.65835   0.51536   0.00000  Uiso   1.00
O84    O     0.51465   0.40437   0.04937   0.00000  Uiso   1.00
O85    O     0.24172   0.71895   0.22450   0.00000  Uiso   1.00
O86    O     0.47083   0.99956   0.55162   0.00000  Uiso   1.00
N87    N     0.48602   0.63778   0.09841   0.00000  Uiso   1.00
N88    N     0.29152   0.86194   0.22320   0.00000  Uiso   1.00
N89    N     0.45478   0.06191   0.45631   0.00000  Uiso   1.00
N90    N     0.48263   0.34529   0.13014   0.00000  Uiso   1.00
N91    N     0.28813   0.56945   0.25492   0.00000  Uiso   1.00
N92    N     0.45139   0.76942   0.48804   0.00000  Uiso   1.00
C93    C     0.91109   0.62039   0.74349   0.00000  Uiso   1.00
C94    C     0.93091   0.75851   0.77930   0.00000  Uiso   1.00
C95    C     0.94947   0.71173   0.82709   0.00000  Uiso   1.00
C96    C     0.96580   0.85855   0.85393   0.00000  Uiso   1.00
C97    C     0.99690   0.04461   0.91264   0.00000  Uiso   1.00
C98    C     0.87731   0.69675   0.74492   0.00000  Uiso   1.00
C99    C     0.85079   0.59801   0.76380   0.00000  Uiso   1.00
C100   C     0.82200   0.69284   0.76169   0.00000  Uiso   1.00
C101   C     0.76988   0.78295   0.76698   0.00000  Uiso   1.00
C102   C     0.92231   0.64164   0.68068   0.00000  Uiso   1.00
C103   C     0.93362   0.49656   0.64553   0.00000  Uiso   1.00
C104   C     0.94270   0.54498   0.58933   0.00000  Uiso   1.00
C105   C     0.96045   0.54954   0.49488   0.00000  Uiso   1.00
C106   C     0.90710   0.96436   0.70618   0.00000  Uiso   1.00
C107   C     0.92875   0.94534   0.75903   0.00000  Uiso   1.00
C108   C     0.94506   0.09228   0.78581   0.00000  Uiso   1.00
C109   C     0.96363   0.04571   0.83363   0.00000  Uiso   1.00
C110   C     0.87514   0.88357   0.72465   0.00000  Uiso   1.00
C111   C     0.84638   0.97856   0.72251   0.00000  Uiso   1.00
C112   C     0.81983   0.88000   0.74138   0.00000  Uiso   1.00
C113   C     0.92014   0.82847   0.66041   0.00000  Uiso   1.00
C114   C     0.92921   0.87712   0.60425   0.00000  Uiso   1.00
C115   C     0.94053   0.73215   0.56903   0.00000  Uiso   1.00
H116   H     0.91277   0.47494   0.75927   0.00000  Uiso   1.00
H117   H     0.95114   0.56713   0.84277   0.00000  Uiso   1.00
H118   H     0.85248   0.45343   0.77947   0.00000  Uiso   1.00
H119   H     0.93529   0.35200   0.66123   0.00000  Uiso   1.00
H120   H     0.99270   0.75173   0.92641   0.00000  Uiso   1.00
H121   H     0.78468   0.51197   0.79294   0.00000  Uiso   1.00
H122   H     0.95930   0.29808   0.54360   0.00000  Uiso   1.00
H123   H     0.90541   0.10981   0.69040   0.00000  Uiso   1.00
H124   H     0.94337   0.23684   0.77012   0.00000  Uiso   1.00
H125   H     0.84471   0.12314   0.70682   0.00000  Uiso   1.00
H126   H     0.92753   0.02171   0.58858   0.00000  Uiso   1.00
H127   H     0.98640   0.29530   0.86745   0.00000  Uiso   1.00
H128   H     0.77837   0.05552   0.73397   0.00000  Uiso   1.00
H129   H     0.95300   0.84165   0.48464   0.00000  Uiso   1.00
O130   O     0.01465   0.09563   0.95063   0.00000  Uiso   1.00
O131   O     0.74172   0.78105   0.77550   0.00000  Uiso   1.00
O132   O     0.97083   0.50044   0.44838   0.00000  Uiso   1.00
N133   N     0.98602   0.86222   0.90159   0.00000  Uiso   1.00
N134   N     0.79152   0.63806   0.77680   0.00000  Uiso   1.00
N135   N     0.95478   0.43809   0.54369   0.00000  Uiso   1.00
N136   N     0.98263   0.15471   0.86986   0.00000  Uiso   1.00
N137   N     0.78813   0.93055   0.74508   0.00000  Uiso   1.00
N138   N     0.95139   0.73058   0.51196   0.00000  Uiso   1.00
C139   C     0.58891   0.87961   0.24349   0.00000  Uiso   1.00
C140   C     0.56909   0.74149   0.27930   0.00000  Uiso   1.00
C141   C     0.55053   0.78827   0.32709   0.00000  Uiso   1.00
C142   C     0.53420   0.64145   0.35393   0.00000  Uiso   1.00
C143   C     0.50310   0.45539   0.41264   0.00000  Uiso   1.00
C144   C     0.62269   0.80325   0.24492   0.00000  Uiso   1.00
C145   C     0.64921   0.90199   0.26380   0.00000  Uiso   1.00
C146   C     0.67800   0.80716   0.26169   0.00000  Uiso   1.00
C147   C     0.73012   0.71705   0.26698   0.00000  Uiso   1.00
C148   C     0.57769   0.85836   0.18068   0.00000  Uiso   1.00
C149   C     0.56638   0.00344   0.14553   0.00000  Uiso   1.00
C150   C     0.55730   0.95502   0.08933   0.00000  Uiso   1.00
C151   C     0.53955   0.95046   0.99488   0.00000  Uiso   1.00
C152   C     0.59290   0.53564   0.20618   0.00000  Uiso   1.00
C153   C     0.57125   0.55466   0.25903   0.00000  Uiso   1.00
C154   C     0.55494   0.40772   0.28581   0.00000  Uiso   1.00
C155   C     0.53637   0.45429   0.33363   0.00000  Uiso   1.00
C156   C     0.62486   0.61643   0.22465   0.00000  Uiso   1.00
C157   C     0.65362   0.52144   0.22251   0.00000  Uiso   1.00
C158   C     0.68017   0.62000   0.24138   0.00000  Uiso   1.00
C159   C     0.57986   0.67153   0.16041   0.00000  Uiso   1.00
C160   C     0.57079   0.62288   0.10425   0.00000  Uiso   1.00
C161   C     0.55947   0.76785   0.06903   0.00000  Uiso   1.00
H162   H     0.58723   0.02506   0.25927   0.00000  Uiso   1.00
H163   H     0.54886   0.93287   0.34277   0.00000  Uiso   1.00
H164   H     0.64752   0.04657   0.27947   0.00000  Uiso   1.00
H165   H     0.56471   0.14800   0.16123   0.00000  Uiso   1.00
H166   H     0.50730   0.74827   0.42641   0.00000  Uiso   1.00
H167   H     0.71532   0.98803   0.29294   0.00000  Uiso   1.00
H168   H     0.54070   0.20192   0.04360   0.00000  Uiso   1.00
H169   H     0.59459   0.39019   0.19040   0.00000  Uiso   1.00
H170   H     0.55663   0.26316   0.27012   0.00000  Uiso   1.00
H171   H     0.65529   0.37686   0.20682   0.00000  Uiso   1.00
H172   H     0.57247   0.47829   0.08858   0.00000  Uiso   1.00
H173   H     0.51360   0.20470   0.36745   0.00000  Uiso   1.00
H174   H     0.72163   0.44448   0.23397   0.00000  Uiso   1.00
H175   H     0.54700   0.65835   0.98464   0.00000  Uiso   1.00
O176   O     0.48535   0.40437   0.45063   0.00000  Uiso   1.00
O177   O     0.75828   0.71895   0.27550   0.00000  Uiso   1.00
O178   O     0.52917   0.99956   0.94838   0.00000  Uiso   1.00
N179   N     0.51398   0.63778   0.40159   0.00000  Uiso   1.00
N180   N     0.70848   0.86194   0.27680   0.00000  Uiso   1.00
N181   N     0.54522   0.06191   0.04369   0.00000  Uiso   1.00
N182   N     0.51737   0.34529   0.36986   0.00000  Uiso   1.00
N183   N     0.71187   0.56945   0.24508   0.00000  Uiso   1.00
N184   N     0.54861   0.76942   0.01196   0.00000  Uiso   1.00
C185   C     0.91109   0.37961   0.24349   0.00000  Uiso   1.00
C186   C     0.93091   0.24149   0.27930   0.00000  Uiso   1.00
C187   C     0.94947   0.28827   0.32709   0.00000  Uiso   1.00
C188   C     0.96580   0.14145   0.35393   0.00000  Uiso   1.00
C189   C     0.99690   0.95539   0.41264   0.00000  Uiso   1.00
C190   C     0.87731   0.30325   0.24492   0.00000  Uiso   1.00
C191   C     0.85079   0.40199   0.26380   0.00000  Uiso   1.00
C192   C     0.82200   0.30716   0.26169   0.00000  Uiso   1.00
C193   C     0.76988   0.21705   0.26698   0.00000  Uiso   1.00
C194   C     0.92231   0.35836   0.18068   0.00000  Uiso   1.00
C195   C     0.93362   0.50344   0.14553   0.00000  Uiso   1.00
C196   C     0.94270   0.45502   0.08933   0.00000  Uiso   1.00
C197   C     0.96045   0.45046   0.99488   0.00000  Uiso   1.00
C198   C     0.90710   0.03564   0.20618   0.00000  Uiso   1.00
C199   C     0.92875   0.05466   0.25903   0.00000  Uiso   1.00
C200   C     0.94506   0.90772   0.28581   0.00000  Uiso   1.00
C201   C     0.96363   0.95429   0.33363   0.00000  Uiso   1.00
C202   C     0.87514   0.11643   0.22465   0.00000  Uiso   1.00
C203   C     0.84638   0.02144   0.22251   0.00000  Uiso   1.00
C204   C     0.81983   0.12000   0.24138   0.00000  Uiso   1.00
C205   C     0.92014   0.17153   0.16041   0.00000  Uiso   1.00
C206   C     0.92921   0.12288   0.10425   0.00000  Uiso   1.00
C207   C     0.94053   0.26785   0.06903   0.00000  Uiso   1.00
H208   H     0.91277   0.52506   0.25927   0.00000  Uiso   1.00
H209   H     0.95114   0.43287   0.34277   0.00000  Uiso   1.00
H210   H     0.85248   0.54657   0.27947   0.00000  Uiso   1.00
H211   H     0.93529   0.64800   0.16123   0.00000  Uiso   1.00
H212   H     0.99270   0.24827   0.42641   0.00000  Uiso   1.00
H213   H     0.78468   0.48803   0.29294   0.00000  Uiso   1.00
H214   H     0.95930   0.70192   0.04360   0.00000  Uiso   1.00
H215   H     0.90541   0.89019   0.19040   0.00000  Uiso   1.00
H216   H     0.94337   0.76316   0.27012   0.00000  Uiso   1.00
H217   H     0.84471   0.87686   0.20682   0.00000  Uiso   1.00
H218   H     0.92753   0.97829   0.08858   0.00000  Uiso   1.00
H219   H     0.98640   0.70470   0.36745   0.00000  Uiso   1.00
H220   H     0.77837   0.94448   0.23397   0.00000  Uiso   1.00
H221   H     0.95300   0.15835   0.98464   0.00000  Uiso   1.00
O222   O     0.01465   0.90437   0.45063   0.00000  Uiso   1.00
O223   O     0.74172   0.21895   0.27550   0.00000  Uiso   1.00
O224   O     0.97083   0.49956   0.94838   0.00000  Uiso   1.00
N225   N     0.98602   0.13778   0.40159   0.00000  Uiso   1.00
N226   N     0.79152   0.36194   0.27680   0.00000  Uiso   1.00
N227   N     0.95478   0.56191   0.04369   0.00000  Uiso   1.00
N228   N     0.98263   0.84529   0.36986   0.00000  Uiso   1.00
N229   N     0.78813   0.06945   0.24508   0.00000  Uiso   1.00
N230   N     0.95139   0.26942   0.01196   0.00000  Uiso   1.00
C231   C     0.58891   0.12039   0.74349   0.00000  Uiso   1.00
C232   C     0.56909   0.25851   0.77930   0.00000  Uiso   1.00
C233   C     0.55053   0.21173   0.82709   0.00000  Uiso   1.00
C234   C     0.53420   0.35855   0.85393   0.00000  Uiso   1.00
C235   C     0.50310   0.54461   0.91264   0.00000  Uiso   1.00
C236   C     0.62269   0.19675   0.74492   0.00000  Uiso   1.00
C237   C     0.64921   0.09801   0.76380   0.00000  Uiso   1.00
C238   C     0.67800   0.19284   0.76169   0.00000  Uiso   1.00
C239   C     0.73012   0.28295   0.76698   0.00000  Uiso   1.00
C240   C     0.57769   0.14164   0.68068   0.00000  Uiso   1.00
C241   C     0.56638   0.99656   0.64553   0.00000  Uiso   1.00
C242   C     0.55730   0.04498   0.58933   0.00000  Uiso   1.00
C243   C     0.53955   0.04954   0.49488   0.00000  Uiso   1.00
C244   C     0.59290   0.46436   0.70618   0.00000  Uiso   1.00
C245   C     0.57125   0.44534   0.75903   0.00000  Uiso   1.00
C246   C     0.55494   0.59228   0.78581   0.00000  Uiso   1.00
C247   C     0.53637   0.54571   0.83363   0.00000  Uiso   1.00
C248   C     0.62486   0.38357   0.72465   0.00000  Uiso   1.00
C249   C     0.65362   0.47856   0.72251   0.00000  Uiso   1.00
C250   C     0.68017   0.38000   0.74138   0.00000  Uiso   1.00
C251   C     0.57986   0.32847   0.66041   0.00000  Uiso   1.00
C252   C     0.57079   0.37712   0.60425   0.00000  Uiso   1.00
C253   C     0.55947   0.23215   0.56903   0.00000  Uiso   1.00
H254   H     0.58723   0.97494   0.75927   0.00000  Uiso   1.00
H255   H     0.54886   0.06713   0.84277   0.00000  Uiso   1.00
H256   H     0.64752   0.95343   0.77947   0.00000  Uiso   1.00
H257   H     0.56471   0.85200   0.66123   0.00000  Uiso   1.00
H258   H     0.50730   0.25173   0.92641   0.00000  Uiso   1.00
H259   H     0.71532   0.01197   0.79294   0.00000  Uiso   1.00
H260   H     0.54070   0.79808   0.54360   0.00000  Uiso   1.00
H261   H     0.59459   0.60981   0.69040   0.00000  Uiso   1.00
H262   H     0.55663   0.73684   0.77012   0.00000  Uiso   1.00
H263   H     0.65529   0.62314   0.70682   0.00000  Uiso   1.00
H264   H     0.57247   0.52171   0.58858   0.00000  Uiso   1.00
H265   H     0.51360   0.79530   0.86745   0.00000  Uiso   1.00
H266   H     0.72163   0.55552   0.73397   0.00000  Uiso   1.00
H267   H     0.54700   0.34165   0.48464   0.00000  Uiso   1.00
O268   O     0.48535   0.59563   0.95063   0.00000  Uiso   1.00
O269   O     0.75828   0.28105   0.77550   0.00000  Uiso   1.00
O270   O     0.52917   0.00044   0.44838   0.00000  Uiso   1.00
N271   N     0.51398   0.36222   0.90159   0.00000  Uiso   1.00
N272   N     0.70848   0.13806   0.77680   0.00000  Uiso   1.00
N273   N     0.54522   0.93809   0.54369   0.00000  Uiso   1.00
N274   N     0.51737   0.65471   0.86986   0.00000  Uiso   1.00
N275   N     0.71187   0.43055   0.74508   0.00000  Uiso   1.00
N276   N     0.54861   0.23058   0.51196   0.00000  Uiso   1.00
C277   C     0.08891   0.37961   0.25651   0.00000  Uiso   1.00
C278   C     0.06909   0.24149   0.22070   0.00000  Uiso   1.00
C279   C     0.05053   0.28827   0.17291   0.00000  Uiso   1.00
C280   C     0.03420   0.14145   0.14607   0.00000  Uiso   1.00
C281   C     0.00310   0.95539   0.08736   0.00000  Uiso   1.00
C282   C     0.12269   0.30325   0.25508   0.00000  Uiso   1.00
C283   C     0.14921   0.40199   0.23620   0.00000  Uiso   1.00
C284   C     0.17800   0.30716   0.23831   0.00000  Uiso   1.00
C285   C     0.23012   0.21705   0.23302   0.00000  Uiso   1.00
C286   C     0.07769   0.35836   0.31932   0.00000  Uiso   1.00
C287   C     0.06638   0.50344   0.35447   0.00000  Uiso   1.00
C288   C     0.05730   0.45502   0.41067   0.00000  Uiso   1.00
C289   C     0.03955   0.45046   0.50512   0.00000  Uiso   1.00
C290   C     0.09290   0.03564   0.29382   0.00000  Uiso   1.00
C291   C     0.07125   0.05466   0.24097   0.00000  Uiso   1.00
C292   C     0.05494   0.90772   0.21419   0.00000  Uiso   1.00
C293   C     0.03637   0.95429   0.16637   0.00000  Uiso   1.00
C294   C     0.12486   0.11643   0.27535   0.00000  Uiso   1.00
C295   C     0.15362   0.02144   0.27749   0.00000  Uiso   1.00
C296   C     0.18017   0.12000   0.25862   0.00000  Uiso   1.00
C297   C     0.07986   0.17153   0.33959   0.00000  Uiso   1.00
C298   C     0.07079   0.12288   0.39575   0.00000  Uiso   1.00
C299   C     0.05947   0.26785   0.43097   0.00000  Uiso   1.00
H300   H     0.08723   0.52506   0.24073   0.00000  Uiso   1.00
H301   H     0.04886   0.43287   0.15723   0.00000  Uiso   1.00
H302   H     0.14752   0.54657   0.22053   0.00000  Uiso   1.00
H303   H     0.06471   0.64800   0.33877   0.00000  Uiso   1.00
H304   H     0.00730   0.24827   0.07359   0.00000  Uiso   1.00
H305   H     0.21532   0.48803   0.20706   0.00000  Uiso   1.00
H306   H     0.04070   0.70192   0.45640   0.00000  Uiso   1.00
H307   H     0.09459   0.89019   0.30960   0.00000  Uiso   1.00
H308   H     0.05663   0.76316   0.22988   0.00000  Uiso   1.00
H309   H     0.15529   0.87686   0.29318   0.00000  Uiso   1.00
H310   H     0.07247   0.97829   0.41142   0.00000  Uiso   1.00
H311   H     0.01360   0.70470   0.13255   0.00000  Uiso   1.00
H312   H     0.22163   0.94448   0.26603   0.00000  Uiso   1.00
H313   H     0.04700   0.15835   0.51536   0.00000  Uiso   1.00
O314   O     0.98535   0.90437   0.04937   0.00000  Uiso   1.00
O315   O     0.25828   0.21895   0.22450   0.00000  Uiso   1.00
O316   O     0.02917   0.49956   0.55162   0.00000  Uiso   1.00
N317   N     0.01398   0.13778   0.09841   0.00000  Uiso   1.00
N318   N     0.20848   0.36194   0.22320   0.00000  Uiso   1.00
N319   N     0.04522   0.56191   0.45631   0.00000  Uiso   1.00
N320   N     0.01737   0.84529   0.13014   0.00000  Uiso   1.00
N321   N     0.21187   0.06945   0.25492   0.00000  Uiso   1.00
N322   N     0.04861   0.26942   0.48804   0.00000  Uiso   1.00
C323   C     0.41109   0.12039   0.75651   0.00000  Uiso   1.00
C324   C     0.43091   0.25851   0.72070   0.00000  Uiso   1.00
C325   C     0.44947   0.21173   0.67291   0.00000  Uiso   1.00
C326   C     0.46580   0.35855   0.64607   0.00000  Uiso   1.00
C327   C     0.49690   0.54461   0.58736   0.00000  Uiso   1.00
C328   C     0.37731   0.19675   0.75508   0.00000  Uiso   1.00
C329   C     0.35079   0.09801   0.73620   0.00000  Uiso   1.00
C330   C     0.32200   0.19284   0.73831   0.00000  Uiso   1.00
C331   C     0.26988   0.28295   0.73302   0.00000  Uiso   1.00
C332   C     0.42231   0.14164   0.81932   0.00000  Uiso   1.00
C333   C     0.43362   0.99656   0.85447   0.00000  Uiso   1.00
C334   C     0.44270   0.04498   0.91067   0.00000  Uiso   1.00
C335   C     0.46045   0.04954   0.00512   0.00000  Uiso   1.00
C336   C     0.40710   0.46436   0.79382   0.00000  Uiso   1.00
C337   C     0.42875   0.44534   0.74097   0.00000  Uiso   1.00
C338   C     0.44506   0.59228   0.71419   0.00000  Uiso   1.00
C339   C     0.46363   0.54571   0.66637   0.00000  Uiso   1.00
C340   C     0.37514   0.38357   0.77535   0.00000  Uiso   1.00
C341   C     0.34638   0.47856   0.77749   0.00000  Uiso   1.00
C342   C     0.31983   0.38000   0.75862   0.00000  Uiso   1.00
C343   C     0.42014   0.32847   0.83959   0.00000  Uiso   1.00
C344   C     0.42921   0.37712   0.89575   0.00000  Uiso   1.00
C345   C     0.44053   0.23215   0.93097   0.00000  Uiso   1.00
H346   H     0.41277   0.97494   0.74073   0.00000  Uiso   1.00
H347   H     0.45114   0.06713   0.65723   0.00000  Uiso   1.00
H348   H     0.35248   0.95343   0.72053   0.00000  Uiso   1.00
H349   H     0.43529   0.85200   0.83877   0.00000  Uiso   1.00
H350   H     0.49270   0.25173   0.57359   0.00000  Uiso   1.00
H351   H     0.28468   0.01197   0.70706   0.00000  Uiso   1.00
H352   H     0.45930   0.79808   0.95640   0.00000  Uiso   1.00
H353   H     0.40541   0.60981   0.80960   0.00000  Uiso   1.00
H354   H     0.44337   0.73684   0.72988   0.00000  Uiso   1.00
H355   H     0.34471   0.62314   0.79318   0.00000  Uiso   1.00
H356   H     0.42753   0.52171   0.91142   0.00000  Uiso   1.00
H357   H     0.48640   0.79530   0.63255   0.00000  Uiso   1.00
H358   H     0.27837   0.55552   0.76603   0.00000  Uiso   1.00
H359   H     0.45300   0.34165   0.01536   0.00000  Uiso   1.00
O360   O     0.51465   0.59563   0.54937   0.00000  Uiso   1.00
O361   O     0.24172   0.28105   0.72450   0.00000  Uiso   1.00
O362   O     0.47083   0.00044   0.05162   0.00000  Uiso   1.00
N363   N     0.48602   0.36222   0.59841   0.00000  Uiso   1.00
N364   N     0.29152   0.13806   0.72320   0.00000  Uiso   1.00
N365   N     0.45478   0.93809   0.95631   0.00000  Uiso   1.00
N366   N     0.48263   0.65471   0.63014   0.00000  Uiso   1.00
N367   N     0.28813   0.43055   0.75492   0.00000  Uiso   1.00
N368   N     0.45139   0.23058   0.98804   0.00000  Uiso   1.00
