data_job_05794
_audit_creation_date              2018-12-19
_audit_creation_method            'Materials Studio'
_symmetry_space_group_name_H-M    'P1'
_symmetry_Int_Tables_number       1
_symmetry_cell_setting            triclinic
loop_
_symmetry_equiv_pos_as_xyz
  x,y,z
_cell_length_a                    26.4285
_cell_length_b                    26.4285
_cell_length_c                    8.6610
_cell_angle_alpha                 90.0000
_cell_angle_beta                  90.0000
_cell_angle_gamma                 90.0000
loop_
_atom_site_label
_atom_site_type_symbol
_atom_site_fract_x
_atom_site_fract_y
_atom_site_fract_z
_atom_site_U_iso_or_equiv
_atom_site_adp_type
_atom_site_occupancy
C1     C     0.19021   0.85534   0.55776   0.00000  Uiso   1.00
C2     C     0.20883   0.89113   0.43189   0.00000  Uiso   1.00
C3     C     0.25056   0.92282   0.44237   0.00000  Uiso   1.00
C4     C     0.26134   0.95266   0.31461   0.00000  Uiso   1.00
C5     C     0.29478   0.00853   0.13948   0.00000  Uiso   1.00
C6     C     0.13524   0.86976   0.58826   0.00000  Uiso   1.00
C7     C     0.11510   0.88347   0.73022   0.00000  Uiso   1.00
C8     C     0.06393   0.89531   0.73409   0.00000  Uiso   1.00
C9     C     0.98313   0.91797   0.80175   0.00000  Uiso   1.00
C10    C     0.18882   0.80283   0.48489   0.00000  Uiso   1.00
C11    C     0.21372   0.76027   0.53994   0.00000  Uiso   1.00
C12    C     0.20765   0.71576   0.45679   0.00000  Uiso   1.00
C13    C     0.21003   0.63450   0.36394   0.00000  Uiso   1.00
C14    C     0.13514   0.85199   0.31224   0.00000  Uiso   1.00
C15    C     0.17892   0.88931   0.29853   0.00000  Uiso   1.00
C16    C     0.18964   0.91911   0.17072   0.00000  Uiso   1.00
C17    C     0.23138   0.95084   0.18100   0.00000  Uiso   1.00
C18    C     0.10533   0.86794   0.45491   0.00000  Uiso   1.00
C19    C     0.05418   0.87976   0.45857   0.00000  Uiso   1.00
C20    C     0.03397   0.89349   0.60049   0.00000  Uiso   1.00
C21    C     0.15891   0.80101   0.35152   0.00000  Uiso   1.00
C22    C     0.15280   0.75656   0.26828   0.00000  Uiso   1.00
C23    C     0.17769   0.71394   0.32319   0.00000  Uiso   1.00
H24    H     0.21349   0.85675   0.66159   0.00000  Uiso   1.00
H25    H     0.27369   0.92422   0.54560   0.00000  Uiso   1.00
H26    H     0.13825   0.88487   0.83340   0.00000  Uiso   1.00
H27    H     0.23686   0.76169   0.64314   0.00000  Uiso   1.00
H28    H     0.32724   0.99822   0.35821   0.00000  Uiso   1.00
H29    H     0.04166   0.91524   0.96506   0.00000  Uiso   1.00
H30    H     0.24958   0.65549   0.56388   0.00000  Uiso   1.00
H31    H     0.11186   0.85057   0.20841   0.00000  Uiso   1.00
H32    H     0.16648   0.91770   0.06753   0.00000  Uiso   1.00
H33    H     0.03105   0.87835   0.35534   0.00000  Uiso   1.00
H34    H     0.12965   0.75517   0.16509   0.00000  Uiso   1.00
H35    H     0.24022   0.99293   0.97019   0.00000  Uiso   1.00
H36    H     0.95464   0.90994   0.57706   0.00000  Uiso   1.00
H37    H     0.16257   0.65019   0.17587   0.00000  Uiso   1.00
O38    O     0.32149   0.03986   0.07973   0.00000  Uiso   1.00
O39    O     0.94682   0.93097   0.87591   0.00000  Uiso   1.00
O40    O     0.21961   0.59019   0.34956   0.00000  Uiso   1.00
N41    N     0.29927   0.98776   0.28621   0.00000  Uiso   1.00
N42    N     0.03227   0.91018   0.85358   0.00000  Uiso   1.00
N43    N     0.22665   0.66733   0.47853   0.00000  Uiso   1.00
N44    N     0.25245   0.98491   0.07742   0.00000  Uiso   1.00
N45    N     0.98545   0.90733   0.64480   0.00000  Uiso   1.00
N46    N     0.17983   0.66448   0.26974   0.00000  Uiso   1.00
C47    C     0.69021   0.35534   0.05776   0.00000  Uiso   1.00
C48    C     0.70883   0.39113   0.93189   0.00000  Uiso   1.00
C49    C     0.75056   0.42282   0.94237   0.00000  Uiso   1.00
C50    C     0.76134   0.45266   0.81461   0.00000  Uiso   1.00
C51    C     0.79478   0.50853   0.63948   0.00000  Uiso   1.00
C52    C     0.63524   0.36976   0.08826   0.00000  Uiso   1.00
C53    C     0.61510   0.38347   0.23022   0.00000  Uiso   1.00
C54    C     0.56393   0.39531   0.23409   0.00000  Uiso   1.00
C55    C     0.48313   0.41797   0.30175   0.00000  Uiso   1.00
C56    C     0.68882   0.30283   0.98489   0.00000  Uiso   1.00
C57    C     0.71372   0.26027   0.03994   0.00000  Uiso   1.00
C58    C     0.70765   0.21576   0.95679   0.00000  Uiso   1.00
C59    C     0.71003   0.13450   0.86394   0.00000  Uiso   1.00
C60    C     0.63514   0.35199   0.81224   0.00000  Uiso   1.00
C61    C     0.67892   0.38931   0.79853   0.00000  Uiso   1.00
C62    C     0.68964   0.41911   0.67072   0.00000  Uiso   1.00
C63    C     0.73138   0.45084   0.68100   0.00000  Uiso   1.00
C64    C     0.60533   0.36794   0.95491   0.00000  Uiso   1.00
C65    C     0.55418   0.37976   0.95857   0.00000  Uiso   1.00
C66    C     0.53397   0.39349   0.10049   0.00000  Uiso   1.00
C67    C     0.65891   0.30101   0.85152   0.00000  Uiso   1.00
C68    C     0.65280   0.25656   0.76828   0.00000  Uiso   1.00
C69    C     0.67769   0.21394   0.82319   0.00000  Uiso   1.00
H70    H     0.71349   0.35675   0.16159   0.00000  Uiso   1.00
H71    H     0.77369   0.42422   0.04560   0.00000  Uiso   1.00
H72    H     0.63825   0.38487   0.33340   0.00000  Uiso   1.00
H73    H     0.73686   0.26169   0.14314   0.00000  Uiso   1.00
H74    H     0.82724   0.49822   0.85821   0.00000  Uiso   1.00
H75    H     0.54166   0.41524   0.46506   0.00000  Uiso   1.00
H76    H     0.74958   0.15549   0.06388   0.00000  Uiso   1.00
H77    H     0.61186   0.35057   0.70841   0.00000  Uiso   1.00
H78    H     0.66648   0.41770   0.56753   0.00000  Uiso   1.00
H79    H     0.53105   0.37835   0.85534   0.00000  Uiso   1.00
H80    H     0.62965   0.25517   0.66509   0.00000  Uiso   1.00
H81    H     0.74022   0.49293   0.47019   0.00000  Uiso   1.00
H82    H     0.45464   0.40994   0.07706   0.00000  Uiso   1.00
H83    H     0.66257   0.15019   0.67587   0.00000  Uiso   1.00
O84    O     0.82149   0.53986   0.57973   0.00000  Uiso   1.00
O85    O     0.44682   0.43097   0.37591   0.00000  Uiso   1.00
O86    O     0.71961   0.09019   0.84956   0.00000  Uiso   1.00
N87    N     0.79927   0.48776   0.78621   0.00000  Uiso   1.00
N88    N     0.53227   0.41018   0.35358   0.00000  Uiso   1.00
N89    N     0.72665   0.16733   0.97853   0.00000  Uiso   1.00
N90    N     0.75245   0.48491   0.57742   0.00000  Uiso   1.00
N91    N     0.48545   0.40733   0.14480   0.00000  Uiso   1.00
N92    N     0.67983   0.16448   0.76974   0.00000  Uiso   1.00
C93    C     0.80979   0.14466   0.55776   0.00000  Uiso   1.00
C94    C     0.79117   0.10887   0.43189   0.00000  Uiso   1.00
C95    C     0.74944   0.07718   0.44237   0.00000  Uiso   1.00
C96    C     0.73866   0.04734   0.31461   0.00000  Uiso   1.00
C97    C     0.70522   0.99147   0.13948   0.00000  Uiso   1.00
C98    C     0.86476   0.13024   0.58826   0.00000  Uiso   1.00
C99    C     0.88490   0.11653   0.73022   0.00000  Uiso   1.00
C100   C     0.93607   0.10469   0.73409   0.00000  Uiso   1.00
C101   C     0.01687   0.08203   0.80175   0.00000  Uiso   1.00
C102   C     0.81118   0.19717   0.48489   0.00000  Uiso   1.00
C103   C     0.78628   0.23973   0.53994   0.00000  Uiso   1.00
C104   C     0.79235   0.28424   0.45679   0.00000  Uiso   1.00
C105   C     0.78997   0.36550   0.36394   0.00000  Uiso   1.00
C106   C     0.86486   0.14801   0.31224   0.00000  Uiso   1.00
C107   C     0.82108   0.11069   0.29853   0.00000  Uiso   1.00
C108   C     0.81036   0.08089   0.17072   0.00000  Uiso   1.00
C109   C     0.76862   0.04916   0.18100   0.00000  Uiso   1.00
C110   C     0.89467   0.13206   0.45491   0.00000  Uiso   1.00
C111   C     0.94582   0.12024   0.45857   0.00000  Uiso   1.00
C112   C     0.96603   0.10651   0.60049   0.00000  Uiso   1.00
C113   C     0.84109   0.19899   0.35152   0.00000  Uiso   1.00
C114   C     0.84720   0.24344   0.26828   0.00000  Uiso   1.00
C115   C     0.82231   0.28606   0.32319   0.00000  Uiso   1.00
H116   H     0.78651   0.14325   0.66159   0.00000  Uiso   1.00
H117   H     0.72631   0.07578   0.54560   0.00000  Uiso   1.00
H118   H     0.86175   0.11513   0.83340   0.00000  Uiso   1.00
H119   H     0.76314   0.23831   0.64314   0.00000  Uiso   1.00
H120   H     0.67276   0.00178   0.35821   0.00000  Uiso   1.00
H121   H     0.95834   0.08476   0.96506   0.00000  Uiso   1.00
H122   H     0.75042   0.34451   0.56388   0.00000  Uiso   1.00
H123   H     0.88814   0.14943   0.20841   0.00000  Uiso   1.00
H124   H     0.83352   0.08230   0.06753   0.00000  Uiso   1.00
H125   H     0.96895   0.12165   0.35534   0.00000  Uiso   1.00
H126   H     0.87035   0.24483   0.16509   0.00000  Uiso   1.00
H127   H     0.75978   0.00707   0.97019   0.00000  Uiso   1.00
H128   H     0.04536   0.09006   0.57706   0.00000  Uiso   1.00
H129   H     0.83743   0.34981   0.17587   0.00000  Uiso   1.00
O130   O     0.67851   0.96014   0.07973   0.00000  Uiso   1.00
O131   O     0.05318   0.06903   0.87591   0.00000  Uiso   1.00
O132   O     0.78039   0.40981   0.34956   0.00000  Uiso   1.00
N133   N     0.70073   0.01224   0.28621   0.00000  Uiso   1.00
N134   N     0.96773   0.08982   0.85358   0.00000  Uiso   1.00
N135   N     0.77335   0.33267   0.47853   0.00000  Uiso   1.00
N136   N     0.74755   0.01509   0.07742   0.00000  Uiso   1.00
N137   N     0.01455   0.09267   0.64480   0.00000  Uiso   1.00
N138   N     0.82017   0.33552   0.26974   0.00000  Uiso   1.00
C139   C     0.30979   0.64466   0.05776   0.00000  Uiso   1.00
C140   C     0.29117   0.60887   0.93189   0.00000  Uiso   1.00
C141   C     0.24944   0.57718   0.94237   0.00000  Uiso   1.00
C142   C     0.23866   0.54734   0.81461   0.00000  Uiso   1.00
C143   C     0.20522   0.49147   0.63948   0.00000  Uiso   1.00
C144   C     0.36476   0.63024   0.08826   0.00000  Uiso   1.00
C145   C     0.38490   0.61653   0.23022   0.00000  Uiso   1.00
C146   C     0.43607   0.60469   0.23409   0.00000  Uiso   1.00
C147   C     0.51687   0.58203   0.30175   0.00000  Uiso   1.00
C148   C     0.31118   0.69717   0.98489   0.00000  Uiso   1.00
C149   C     0.28628   0.73973   0.03994   0.00000  Uiso   1.00
C150   C     0.29235   0.78424   0.95679   0.00000  Uiso   1.00
C151   C     0.28997   0.86550   0.86394   0.00000  Uiso   1.00
C152   C     0.36486   0.64801   0.81224   0.00000  Uiso   1.00
C153   C     0.32108   0.61069   0.79853   0.00000  Uiso   1.00
C154   C     0.31036   0.58089   0.67072   0.00000  Uiso   1.00
C155   C     0.26862   0.54916   0.68100   0.00000  Uiso   1.00
C156   C     0.39467   0.63206   0.95491   0.00000  Uiso   1.00
C157   C     0.44582   0.62024   0.95857   0.00000  Uiso   1.00
C158   C     0.46603   0.60651   0.10049   0.00000  Uiso   1.00
C159   C     0.34109   0.69899   0.85152   0.00000  Uiso   1.00
C160   C     0.34720   0.74344   0.76828   0.00000  Uiso   1.00
C161   C     0.32231   0.78606   0.82319   0.00000  Uiso   1.00
H162   H     0.28651   0.64325   0.16159   0.00000  Uiso   1.00
H163   H     0.22631   0.57578   0.04560   0.00000  Uiso   1.00
H164   H     0.36175   0.61513   0.33340   0.00000  Uiso   1.00
H165   H     0.26314   0.73831   0.14314   0.00000  Uiso   1.00
H166   H     0.17276   0.50178   0.85821   0.00000  Uiso   1.00
H167   H     0.45834   0.58476   0.46506   0.00000  Uiso   1.00
H168   H     0.25042   0.84451   0.06388   0.00000  Uiso   1.00
H169   H     0.38814   0.64943   0.70841   0.00000  Uiso   1.00
H170   H     0.33352   0.58230   0.56753   0.00000  Uiso   1.00
H171   H     0.46895   0.62165   0.85534   0.00000  Uiso   1.00
H172   H     0.37035   0.74483   0.66509   0.00000  Uiso   1.00
H173   H     0.25978   0.50707   0.47019   0.00000  Uiso   1.00
H174   H     0.54536   0.59006   0.07706   0.00000  Uiso   1.00
H175   H     0.33743   0.84981   0.67587   0.00000  Uiso   1.00
O176   O     0.17851   0.46014   0.57973   0.00000  Uiso   1.00
O177   O     0.55318   0.56903   0.37591   0.00000  Uiso   1.00
O178   O     0.28039   0.90981   0.84956   0.00000  Uiso   1.00
N179   N     0.20073   0.51224   0.78621   0.00000  Uiso   1.00
N180   N     0.46773   0.58982   0.35358   0.00000  Uiso   1.00
N181   N     0.27335   0.83267   0.97853   0.00000  Uiso   1.00
N182   N     0.24755   0.51509   0.57742   0.00000  Uiso   1.00
N183   N     0.51455   0.59267   0.14480   0.00000  Uiso   1.00
N184   N     0.32017   0.83552   0.76974   0.00000  Uiso   1.00
C185   C     0.85534   0.80979   0.44224   0.00000  Uiso   1.00
C186   C     0.89113   0.79117   0.56811   0.00000  Uiso   1.00
C187   C     0.92282   0.74944   0.55763   0.00000  Uiso   1.00
C188   C     0.95266   0.73866   0.68539   0.00000  Uiso   1.00
C189   C     0.00853   0.70522   0.86052   0.00000  Uiso   1.00
C190   C     0.86976   0.86476   0.41174   0.00000  Uiso   1.00
C191   C     0.88347   0.88490   0.26978   0.00000  Uiso   1.00
C192   C     0.89531   0.93607   0.26591   0.00000  Uiso   1.00
C193   C     0.91797   0.01687   0.19825   0.00000  Uiso   1.00
C194   C     0.80283   0.81118   0.51511   0.00000  Uiso   1.00
C195   C     0.76027   0.78628   0.46006   0.00000  Uiso   1.00
C196   C     0.71576   0.79235   0.54321   0.00000  Uiso   1.00
C197   C     0.63450   0.78997   0.63606   0.00000  Uiso   1.00
C198   C     0.85199   0.86486   0.68776   0.00000  Uiso   1.00
C199   C     0.88931   0.82108   0.70147   0.00000  Uiso   1.00
C200   C     0.91911   0.81036   0.82928   0.00000  Uiso   1.00
C201   C     0.95084   0.76862   0.81900   0.00000  Uiso   1.00
C202   C     0.86794   0.89467   0.54509   0.00000  Uiso   1.00
C203   C     0.87976   0.94582   0.54143   0.00000  Uiso   1.00
C204   C     0.89349   0.96603   0.39951   0.00000  Uiso   1.00
C205   C     0.80101   0.84109   0.64848   0.00000  Uiso   1.00
C206   C     0.75656   0.84720   0.73172   0.00000  Uiso   1.00
C207   C     0.71394   0.82231   0.67681   0.00000  Uiso   1.00
H208   H     0.85675   0.78651   0.33841   0.00000  Uiso   1.00
H209   H     0.92422   0.72631   0.45440   0.00000  Uiso   1.00
H210   H     0.88487   0.86175   0.16660   0.00000  Uiso   1.00
H211   H     0.76169   0.76314   0.35686   0.00000  Uiso   1.00
H212   H     0.99822   0.67276   0.64179   0.00000  Uiso   1.00
H213   H     0.91524   0.95834   0.03494   0.00000  Uiso   1.00
H214   H     0.65549   0.75042   0.43612   0.00000  Uiso   1.00
H215   H     0.85057   0.88814   0.79159   0.00000  Uiso   1.00
H216   H     0.91770   0.83352   0.93247   0.00000  Uiso   1.00
H217   H     0.87835   0.96895   0.64466   0.00000  Uiso   1.00
H218   H     0.75517   0.87035   0.83491   0.00000  Uiso   1.00
H219   H     0.99293   0.75978   0.02981   0.00000  Uiso   1.00
H220   H     0.90994   0.04536   0.42294   0.00000  Uiso   1.00
H221   H     0.65019   0.83743   0.82413   0.00000  Uiso   1.00
O222   O     0.03986   0.67851   0.92027   0.00000  Uiso   1.00
O223   O     0.93097   0.05318   0.12409   0.00000  Uiso   1.00
O224   O     0.59019   0.78039   0.65044   0.00000  Uiso   1.00
N225   N     0.98776   0.70073   0.71379   0.00000  Uiso   1.00
N226   N     0.91018   0.96773   0.14642   0.00000  Uiso   1.00
N227   N     0.66733   0.77335   0.52147   0.00000  Uiso   1.00
N228   N     0.98491   0.74755   0.92258   0.00000  Uiso   1.00
N229   N     0.90733   0.01455   0.35520   0.00000  Uiso   1.00
N230   N     0.66448   0.82017   0.73026   0.00000  Uiso   1.00
C231   C     0.35534   0.30979   0.94224   0.00000  Uiso   1.00
C232   C     0.39113   0.29117   0.06811   0.00000  Uiso   1.00
C233   C     0.42282   0.24944   0.05763   0.00000  Uiso   1.00
C234   C     0.45266   0.23866   0.18539   0.00000  Uiso   1.00
C235   C     0.50853   0.20522   0.36052   0.00000  Uiso   1.00
C236   C     0.36976   0.36476   0.91174   0.00000  Uiso   1.00
C237   C     0.38347   0.38490   0.76978   0.00000  Uiso   1.00
C238   C     0.39531   0.43607   0.76591   0.00000  Uiso   1.00
C239   C     0.41797   0.51687   0.69825   0.00000  Uiso   1.00
C240   C     0.30283   0.31118   0.01511   0.00000  Uiso   1.00
C241   C     0.26027   0.28628   0.96006   0.00000  Uiso   1.00
C242   C     0.21576   0.29235   0.04321   0.00000  Uiso   1.00
C243   C     0.13450   0.28997   0.13606   0.00000  Uiso   1.00
C244   C     0.35199   0.36486   0.18776   0.00000  Uiso   1.00
C245   C     0.38931   0.32108   0.20147   0.00000  Uiso   1.00
C246   C     0.41911   0.31036   0.32928   0.00000  Uiso   1.00
C247   C     0.45084   0.26862   0.31900   0.00000  Uiso   1.00
C248   C     0.36794   0.39467   0.04509   0.00000  Uiso   1.00
C249   C     0.37976   0.44582   0.04143   0.00000  Uiso   1.00
C250   C     0.39349   0.46603   0.89951   0.00000  Uiso   1.00
C251   C     0.30101   0.34109   0.14848   0.00000  Uiso   1.00
C252   C     0.25656   0.34720   0.23172   0.00000  Uiso   1.00
C253   C     0.21394   0.32231   0.17681   0.00000  Uiso   1.00
H254   H     0.35675   0.28651   0.83841   0.00000  Uiso   1.00
H255   H     0.42422   0.22631   0.95440   0.00000  Uiso   1.00
H256   H     0.38487   0.36175   0.66660   0.00000  Uiso   1.00
H257   H     0.26169   0.26314   0.85686   0.00000  Uiso   1.00
H258   H     0.49822   0.17276   0.14179   0.00000  Uiso   1.00
H259   H     0.41524   0.45834   0.53494   0.00000  Uiso   1.00
H260   H     0.15549   0.25042   0.93612   0.00000  Uiso   1.00
H261   H     0.35057   0.38814   0.29159   0.00000  Uiso   1.00
H262   H     0.41770   0.33352   0.43247   0.00000  Uiso   1.00
H263   H     0.37835   0.46895   0.14466   0.00000  Uiso   1.00
H264   H     0.25517   0.37035   0.33491   0.00000  Uiso   1.00
H265   H     0.49293   0.25978   0.52981   0.00000  Uiso   1.00
H266   H     0.40994   0.54536   0.92294   0.00000  Uiso   1.00
H267   H     0.15019   0.33743   0.32413   0.00000  Uiso   1.00
O268   O     0.53986   0.17851   0.42027   0.00000  Uiso   1.00
O269   O     0.43097   0.55318   0.62409   0.00000  Uiso   1.00
O270   O     0.09019   0.28039   0.15044   0.00000  Uiso   1.00
N271   N     0.48776   0.20073   0.21379   0.00000  Uiso   1.00
N272   N     0.41018   0.46773   0.64642   0.00000  Uiso   1.00
N273   N     0.16733   0.27335   0.02147   0.00000  Uiso   1.00
N274   N     0.48491   0.24755   0.42258   0.00000  Uiso   1.00
N275   N     0.40733   0.51455   0.85520   0.00000  Uiso   1.00
N276   N     0.16448   0.32017   0.23026   0.00000  Uiso   1.00
C277   C     0.14466   0.19021   0.44224   0.00000  Uiso   1.00
C278   C     0.10887   0.20883   0.56811   0.00000  Uiso   1.00
C279   C     0.07718   0.25056   0.55763   0.00000  Uiso   1.00
C280   C     0.04734   0.26134   0.68539   0.00000  Uiso   1.00
C281   C     0.99147   0.29478   0.86052   0.00000  Uiso   1.00
C282   C     0.13024   0.13524   0.41174   0.00000  Uiso   1.00
C283   C     0.11653   0.11510   0.26978   0.00000  Uiso   1.00
C284   C     0.10469   0.06393   0.26591   0.00000  Uiso   1.00
C285   C     0.08203   0.98313   0.19825   0.00000  Uiso   1.00
C286   C     0.19717   0.18882   0.51511   0.00000  Uiso   1.00
C287   C     0.23973   0.21372   0.46006   0.00000  Uiso   1.00
C288   C     0.28424   0.20765   0.54321   0.00000  Uiso   1.00
C289   C     0.36550   0.21003   0.63606   0.00000  Uiso   1.00
C290   C     0.14801   0.13514   0.68776   0.00000  Uiso   1.00
C291   C     0.11069   0.17892   0.70147   0.00000  Uiso   1.00
C292   C     0.08089   0.18964   0.82928   0.00000  Uiso   1.00
C293   C     0.04916   0.23138   0.81900   0.00000  Uiso   1.00
C294   C     0.13206   0.10533   0.54509   0.00000  Uiso   1.00
C295   C     0.12024   0.05418   0.54143   0.00000  Uiso   1.00
C296   C     0.10651   0.03397   0.39951   0.00000  Uiso   1.00
C297   C     0.19899   0.15891   0.64848   0.00000  Uiso   1.00
C298   C     0.24344   0.15280   0.73172   0.00000  Uiso   1.00
C299   C     0.28606   0.17769   0.67681   0.00000  Uiso   1.00
H300   H     0.14325   0.21349   0.33841   0.00000  Uiso   1.00
H301   H     0.07578   0.27369   0.45440   0.00000  Uiso   1.00
H302   H     0.11513   0.13825   0.16660   0.00000  Uiso   1.00
H303   H     0.23831   0.23686   0.35686   0.00000  Uiso   1.00
H304   H     0.00178   0.32724   0.64179   0.00000  Uiso   1.00
H305   H     0.08476   0.04166   0.03494   0.00000  Uiso   1.00
H306   H     0.34451   0.24958   0.43612   0.00000  Uiso   1.00
H307   H     0.14943   0.11186   0.79159   0.00000  Uiso   1.00
H308   H     0.08230   0.16648   0.93247   0.00000  Uiso   1.00
H309   H     0.12165   0.03105   0.64466   0.00000  Uiso   1.00
H310   H     0.24483   0.12965   0.83491   0.00000  Uiso   1.00
H311   H     0.00707   0.24022   0.02981   0.00000  Uiso   1.00
H312   H     0.09006   0.95464   0.42294   0.00000  Uiso   1.00
H313   H     0.34981   0.16257   0.82413   0.00000  Uiso   1.00
O314   O     0.96014   0.32149   0.92027   0.00000  Uiso   1.00
O315   O     0.06903   0.94682   0.12409   0.00000  Uiso   1.00
O316   O     0.40981   0.21961   0.65044   0.00000  Uiso   1.00
N317   N     0.01224   0.29927   0.71379   0.00000  Uiso   1.00
N318   N     0.08982   0.03227   0.14642   0.00000  Uiso   1.00
N319   N     0.33267   0.22665   0.52147   0.00000  Uiso   1.00
N320   N     0.01509   0.25245   0.92258   0.00000  Uiso   1.00
N321   N     0.09267   0.98545   0.35520   0.00000  Uiso   1.00
N322   N     0.33552   0.17983   0.73026   0.00000  Uiso   1.00
C323   C     0.64466   0.69021   0.94224   0.00000  Uiso   1.00
C324   C     0.60887   0.70883   0.06811   0.00000  Uiso   1.00
C325   C     0.57718   0.75056   0.05763   0.00000  Uiso   1.00
C326   C     0.54734   0.76134   0.18539   0.00000  Uiso   1.00
C327   C     0.49147   0.79478   0.36052   0.00000  Uiso   1.00
C328   C     0.63024   0.63524   0.91174   0.00000  Uiso   1.00
C329   C     0.61653   0.61510   0.76978   0.00000  Uiso   1.00
C330   C     0.60469   0.56393   0.76591   0.00000  Uiso   1.00
C331   C     0.58203   0.48313   0.69825   0.00000  Uiso   1.00
C332   C     0.69717   0.68882   0.01511   0.00000  Uiso   1.00
C333   C     0.73973   0.71372   0.96006   0.00000  Uiso   1.00
C334   C     0.78424   0.70765   0.04321   0.00000  Uiso   1.00
C335   C     0.86550   0.71003   0.13606   0.00000  Uiso   1.00
C336   C     0.64801   0.63514   0.18776   0.00000  Uiso   1.00
C337   C     0.61069   0.67892   0.20147   0.00000  Uiso   1.00
C338   C     0.58089   0.68964   0.32928   0.00000  Uiso   1.00
C339   C     0.54916   0.73138   0.31900   0.00000  Uiso   1.00
C340   C     0.63206   0.60533   0.04509   0.00000  Uiso   1.00
C341   C     0.62024   0.55418   0.04143   0.00000  Uiso   1.00
C342   C     0.60651   0.53397   0.89951   0.00000  Uiso   1.00
C343   C     0.69899   0.65891   0.14848   0.00000  Uiso   1.00
C344   C     0.74344   0.65280   0.23172   0.00000  Uiso   1.00
C345   C     0.78606   0.67769   0.17681   0.00000  Uiso   1.00
H346   H     0.64325   0.71349   0.83841   0.00000  Uiso   1.00
H347   H     0.57578   0.77369   0.95440   0.00000  Uiso   1.00
H348   H     0.61513   0.63825   0.66660   0.00000  Uiso   1.00
H349   H     0.73831   0.73686   0.85686   0.00000  Uiso   1.00
H350   H     0.50178   0.82724   0.14179   0.00000  Uiso   1.00
H351   H     0.58476   0.54166   0.53494   0.00000  Uiso   1.00
H352   H     0.84451   0.74958   0.93612   0.00000  Uiso   1.00
H353   H     0.64943   0.61186   0.29159   0.00000  Uiso   1.00
H354   H     0.58230   0.66648   0.43247   0.00000  Uiso   1.00
H355   H     0.62165   0.53105   0.14466   0.00000  Uiso   1.00
H356   H     0.74483   0.62965   0.33491   0.00000  Uiso   1.00
H357   H     0.50707   0.74022   0.52981   0.00000  Uiso   1.00
H358   H     0.59006   0.45464   0.92294   0.00000  Uiso   1.00
H359   H     0.84981   0.66257   0.32413   0.00000  Uiso   1.00
O360   O     0.46014   0.82149   0.42027   0.00000  Uiso   1.00
O361   O     0.56903   0.44682   0.62409   0.00000  Uiso   1.00
O362   O     0.90981   0.71961   0.15044   0.00000  Uiso   1.00
N363   N     0.51224   0.79927   0.21379   0.00000  Uiso   1.00
N364   N     0.58982   0.53227   0.64642   0.00000  Uiso   1.00
N365   N     0.83267   0.72665   0.02147   0.00000  Uiso   1.00
N366   N     0.51509   0.75245   0.42258   0.00000  Uiso   1.00
N367   N     0.59267   0.48545   0.85520   0.00000  Uiso   1.00
N368   N     0.83552   0.67983   0.23026   0.00000  Uiso   1.00
