data_job_05179
_audit_creation_date              2018-12-19
_audit_creation_method            'Materials Studio'
_symmetry_space_group_name_H-M    'P1'
_symmetry_Int_Tables_number       1
_symmetry_cell_setting            triclinic
loop_
_symmetry_equiv_pos_as_xyz
  x,y,z
_cell_length_a                    17.6101
_cell_length_b                    7.1323
_cell_length_c                    44.6516
_cell_angle_alpha                 90.0000
_cell_angle_beta                  91.9063
_cell_angle_gamma                 90.0000
loop_
_atom_site_label
_atom_site_type_symbol
_atom_site_fract_x
_atom_site_fract_y
_atom_site_fract_z
_atom_site_U_iso_or_equiv
_atom_site_adp_type
_atom_site_occupancy
C1     C     0.47300   0.14845   0.87513   0.00000  Uiso   1.00
C2     C     0.53574   0.29230   0.88114   0.00000  Uiso   1.00
C3     C     0.60857   0.25342   0.89225   0.00000  Uiso   1.00
C4     C     0.65762   0.40450   0.89618   0.00000  Uiso   1.00
C5     C     0.75852   0.60000   0.90658   0.00000  Uiso   1.00
C6     C     0.40578   0.21237   0.89322   0.00000  Uiso   1.00
C7     C     0.36935   0.10627   0.91448   0.00000  Uiso   1.00
C8     C     0.30899   0.19006   0.92858   0.00000  Uiso   1.00
C9     C     0.20809   0.26142   0.95772   0.00000  Uiso   1.00
C10    C     0.44842   0.17191   0.84227   0.00000  Uiso   1.00
C11    C     0.44781   0.03178   0.82070   0.00000  Uiso   1.00
C12    C     0.42333   0.08150   0.79191   0.00000  Uiso   1.00
C13    C     0.38864   0.09003   0.74195   0.00000  Uiso   1.00
C14    C     0.43058   0.48588   0.86235   0.00000  Uiso   1.00
C15    C     0.51269   0.47558   0.87420   0.00000  Uiso   1.00
C16    C     0.56163   0.62676   0.87811   0.00000  Uiso   1.00
C17    C     0.63453   0.58811   0.88923   0.00000  Uiso   1.00
C18    C     0.38273   0.39565   0.88628   0.00000  Uiso   1.00
C19    C     0.32241   0.47961   0.90035   0.00000  Uiso   1.00
C20    C     0.28590   0.37368   0.92163   0.00000  Uiso   1.00
C21    C     0.42537   0.35519   0.83533   0.00000  Uiso   1.00
C22    C     0.40088   0.40512   0.80657   0.00000  Uiso   1.00
C23    C     0.40024   0.26511   0.78496   0.00000  Uiso   1.00
H24    H     0.49094   0.00575   0.88053   0.00000  Uiso   1.00
H25    H     0.62638   0.11156   0.89762   0.00000  Uiso   1.00
H26    H     0.38719   0.96444   0.91985   0.00000  Uiso   1.00
H27    H     0.46565   0.88997   0.82608   0.00000  Uiso   1.00
H28    H     0.76638   0.30971   0.91351   0.00000  Uiso   1.00
H29    H     0.26201   0.99946   0.96037   0.00000  Uiso   1.00
H30    H     0.42745   0.84242   0.76265   0.00000  Uiso   1.00
H31    H     0.41263   0.62858   0.85695   0.00000  Uiso   1.00
H32    H     0.54378   0.76858   0.87274   0.00000  Uiso   1.00
H33    H     0.30459   0.62144   0.89497   0.00000  Uiso   1.00
H34    H     0.38305   0.54697   0.80121   0.00000  Uiso   1.00
H35    H     0.69933   0.84297   0.89332   0.00000  Uiso   1.00
H36    H     0.19496   0.53271   0.94018   0.00000  Uiso   1.00
H37    H     0.36041   0.37567   0.74246   0.00000  Uiso   1.00
O38    O     0.82053   0.65720   0.91424   0.00000  Uiso   1.00
O39    O     0.15881   0.25015   0.97571   0.00000  Uiso   1.00
O40    O     0.37588   0.04411   0.71631   0.00000  Uiso   1.00
N41    N     0.73260   0.41600   0.90659   0.00000  Uiso   1.00
N42    N     0.26106   0.12594   0.95040   0.00000  Uiso   1.00
N43    N     0.41572   0.97910   0.76555   0.00000  Uiso   1.00
N44    N     0.69653   0.70294   0.89572   0.00000  Uiso   1.00
N45    N     0.22498   0.41288   0.93954   0.00000  Uiso   1.00
N46    N     0.37964   0.26604   0.75469   0.00000  Uiso   1.00
C47    C     0.97379   0.61344   0.39239   0.00000  Uiso   1.00
C48    C     0.03174   0.75864   0.38282   0.00000  Uiso   1.00
C49    C     0.10679   0.72244   0.37622   0.00000  Uiso   1.00
C50    C     0.15064   0.87436   0.36790   0.00000  Uiso   1.00
C51    C     0.24522   0.07222   0.35331   0.00000  Uiso   1.00
C52    C     0.94472   0.68157   0.42229   0.00000  Uiso   1.00
C53    C     0.94659   0.58056   0.44887   0.00000  Uiso   1.00
C54    C     0.91718   0.66759   0.47376   0.00000  Uiso   1.00
C55    C     0.87660   0.74574   0.52043   0.00000  Uiso   1.00
C56    C     0.90684   0.62912   0.36999   0.00000  Uiso   1.00
C57    C     0.87685   0.48399   0.35259   0.00000  Uiso   1.00
C58    C     0.81553   0.52686   0.33346   0.00000  Uiso   1.00
C59    C     0.71615   0.52357   0.29892   0.00000  Uiso   1.00
C60    C     0.91822   0.94760   0.38935   0.00000  Uiso   1.00
C61    C     0.00156   0.94014   0.38117   0.00000  Uiso   1.00
C62    C     0.04531   0.09215   0.37285   0.00000  Uiso   1.00
C63    C     0.12040   0.05619   0.36624   0.00000  Uiso   1.00
C64    C     0.91454   0.86306   0.42063   0.00000  Uiso   1.00
C65    C     0.88511   0.95027   0.44550   0.00000  Uiso   1.00
C66    C     0.88694   0.84942   0.47211   0.00000  Uiso   1.00
C67    C     0.87666   0.81062   0.36833   0.00000  Uiso   1.00
C68    C     0.81537   0.85371   0.34922   0.00000  Uiso   1.00
C69    C     0.78529   0.70868   0.33180   0.00000  Uiso   1.00
H70    H     0.99729   0.47213   0.39368   0.00000  Uiso   1.00
H71    H     0.13013   0.58196   0.37751   0.00000  Uiso   1.00
H72    H     0.96994   0.44010   0.45014   0.00000  Uiso   1.00
H73    H     0.90022   0.34356   0.35388   0.00000  Uiso   1.00
H74    H     0.26409   0.78378   0.35886   0.00000  Uiso   1.00
H75    H     0.92632   0.48462   0.51200   0.00000  Uiso   1.00
H76    H     0.77929   0.28104   0.30902   0.00000  Uiso   1.00
H77    H     0.89472   0.08891   0.38806   0.00000  Uiso   1.00
H78    H     0.02193   0.23259   0.37157   0.00000  Uiso   1.00
H79    H     0.86175   0.09072   0.44421   0.00000  Uiso   1.00
H80    H     0.79203   0.99418   0.34795   0.00000  Uiso   1.00
H81    H     0.17628   0.31186   0.35404   0.00000  Uiso   1.00
H82    H     0.83850   0.01269   0.50719   0.00000  Uiso   1.00
H83    H     0.69148   0.80912   0.30420   0.00000  Uiso   1.00
O84    O     0.30573   0.13122   0.34572   0.00000  Uiso   1.00
O85    O     0.86257   0.73871   0.54663   0.00000  Uiso   1.00
O86    O     0.66968   0.47162   0.28033   0.00000  Uiso   1.00
N87    N     0.22597   0.88834   0.35998   0.00000  Uiso   1.00
N88    N     0.91018   0.60865   0.50316   0.00000  Uiso   1.00
N89    N     0.77271   0.41831   0.31340   0.00000  Uiso   1.00
N90    N     0.17872   0.17249   0.35739   0.00000  Uiso   1.00
N91    N     0.86293   0.89281   0.50057   0.00000  Uiso   1.00
N92    N     0.72546   0.70246   0.31081   0.00000  Uiso   1.00
C93    C     0.52700   0.14845   0.62487   0.00000  Uiso   1.00
C94    C     0.46426   0.29230   0.61886   0.00000  Uiso   1.00
C95    C     0.39143   0.25342   0.60775   0.00000  Uiso   1.00
C96    C     0.34238   0.40450   0.60382   0.00000  Uiso   1.00
C97    C     0.24148   0.60000   0.59342   0.00000  Uiso   1.00
C98    C     0.59422   0.21237   0.60678   0.00000  Uiso   1.00
C99    C     0.63065   0.10627   0.58552   0.00000  Uiso   1.00
C100   C     0.69101   0.19006   0.57142   0.00000  Uiso   1.00
C101   C     0.79191   0.26142   0.54228   0.00000  Uiso   1.00
C102   C     0.55158   0.17191   0.65773   0.00000  Uiso   1.00
C103   C     0.55219   0.03178   0.67930   0.00000  Uiso   1.00
C104   C     0.57667   0.08150   0.70809   0.00000  Uiso   1.00
C105   C     0.61136   0.09003   0.75805   0.00000  Uiso   1.00
C106   C     0.56942   0.48588   0.63765   0.00000  Uiso   1.00
C107   C     0.48731   0.47558   0.62580   0.00000  Uiso   1.00
C108   C     0.43837   0.62676   0.62189   0.00000  Uiso   1.00
C109   C     0.36547   0.58811   0.61077   0.00000  Uiso   1.00
C110   C     0.61727   0.39565   0.61372   0.00000  Uiso   1.00
C111   C     0.67759   0.47961   0.59965   0.00000  Uiso   1.00
C112   C     0.71410   0.37368   0.57837   0.00000  Uiso   1.00
C113   C     0.57463   0.35519   0.66467   0.00000  Uiso   1.00
C114   C     0.59912   0.40512   0.69343   0.00000  Uiso   1.00
C115   C     0.59976   0.26511   0.71504   0.00000  Uiso   1.00
H116   H     0.50906   0.00575   0.61947   0.00000  Uiso   1.00
H117   H     0.37362   0.11156   0.60238   0.00000  Uiso   1.00
H118   H     0.61281   0.96444   0.58015   0.00000  Uiso   1.00
H119   H     0.53435   0.88997   0.67392   0.00000  Uiso   1.00
H120   H     0.23362   0.30971   0.58649   0.00000  Uiso   1.00
H121   H     0.73799   0.99946   0.53963   0.00000  Uiso   1.00
H122   H     0.57255   0.84242   0.73735   0.00000  Uiso   1.00
H123   H     0.58737   0.62858   0.64305   0.00000  Uiso   1.00
H124   H     0.45622   0.76858   0.62726   0.00000  Uiso   1.00
H125   H     0.69541   0.62144   0.60503   0.00000  Uiso   1.00
H126   H     0.61695   0.54697   0.69879   0.00000  Uiso   1.00
H127   H     0.30067   0.84297   0.60668   0.00000  Uiso   1.00
H128   H     0.80504   0.53271   0.55982   0.00000  Uiso   1.00
H129   H     0.63959   0.37567   0.75754   0.00000  Uiso   1.00
O130   O     0.17947   0.65720   0.58576   0.00000  Uiso   1.00
O131   O     0.84119   0.25015   0.52429   0.00000  Uiso   1.00
O132   O     0.62412   0.04411   0.78369   0.00000  Uiso   1.00
N133   N     0.26740   0.41600   0.59341   0.00000  Uiso   1.00
N134   N     0.73894   0.12594   0.54960   0.00000  Uiso   1.00
N135   N     0.58428   0.97910   0.73445   0.00000  Uiso   1.00
N136   N     0.30347   0.70294   0.60428   0.00000  Uiso   1.00
N137   N     0.77502   0.41288   0.56046   0.00000  Uiso   1.00
N138   N     0.62036   0.26604   0.74531   0.00000  Uiso   1.00
C139   C     0.02621   0.61344   0.10761   0.00000  Uiso   1.00
C140   C     0.96826   0.75864   0.11718   0.00000  Uiso   1.00
C141   C     0.89321   0.72244   0.12378   0.00000  Uiso   1.00
C142   C     0.84936   0.87436   0.13210   0.00000  Uiso   1.00
C143   C     0.75478   0.07222   0.14669   0.00000  Uiso   1.00
C144   C     0.05528   0.68157   0.07771   0.00000  Uiso   1.00
C145   C     0.05341   0.58056   0.05113   0.00000  Uiso   1.00
C146   C     0.08282   0.66759   0.02624   0.00000  Uiso   1.00
C147   C     0.12340   0.74574   0.97957   0.00000  Uiso   1.00
C148   C     0.09316   0.62912   0.13001   0.00000  Uiso   1.00
C149   C     0.12315   0.48399   0.14741   0.00000  Uiso   1.00
C150   C     0.18447   0.52686   0.16654   0.00000  Uiso   1.00
C151   C     0.28385   0.52357   0.20108   0.00000  Uiso   1.00
C152   C     0.08178   0.94760   0.11065   0.00000  Uiso   1.00
C153   C     0.99844   0.94014   0.11883   0.00000  Uiso   1.00
C154   C     0.95469   0.09215   0.12715   0.00000  Uiso   1.00
C155   C     0.87960   0.05619   0.13376   0.00000  Uiso   1.00
C156   C     0.08546   0.86306   0.07937   0.00000  Uiso   1.00
C157   C     0.11489   0.95027   0.05450   0.00000  Uiso   1.00
C158   C     0.11306   0.84942   0.02789   0.00000  Uiso   1.00
C159   C     0.12334   0.81062   0.13167   0.00000  Uiso   1.00
C160   C     0.18463   0.85371   0.15078   0.00000  Uiso   1.00
C161   C     0.21470   0.70868   0.16820   0.00000  Uiso   1.00
H162   H     0.00271   0.47213   0.10632   0.00000  Uiso   1.00
H163   H     0.86987   0.58196   0.12249   0.00000  Uiso   1.00
H164   H     0.03006   0.44010   0.04986   0.00000  Uiso   1.00
H165   H     0.09978   0.34356   0.14612   0.00000  Uiso   1.00
H166   H     0.73591   0.78378   0.14114   0.00000  Uiso   1.00
H167   H     0.07368   0.48462   0.98800   0.00000  Uiso   1.00
H168   H     0.22071   0.28104   0.19098   0.00000  Uiso   1.00
H169   H     0.10528   0.08891   0.11194   0.00000  Uiso   1.00
H170   H     0.97807   0.23259   0.12843   0.00000  Uiso   1.00
H171   H     0.13825   0.09072   0.05579   0.00000  Uiso   1.00
H172   H     0.20797   0.99418   0.15205   0.00000  Uiso   1.00
H173   H     0.82372   0.31186   0.14596   0.00000  Uiso   1.00
H174   H     0.16150   0.01269   0.99281   0.00000  Uiso   1.00
H175   H     0.30852   0.80912   0.19580   0.00000  Uiso   1.00
O176   O     0.69427   0.13122   0.15428   0.00000  Uiso   1.00
O177   O     0.13743   0.73871   0.95337   0.00000  Uiso   1.00
O178   O     0.33032   0.47162   0.21967   0.00000  Uiso   1.00
N179   N     0.77403   0.88834   0.14002   0.00000  Uiso   1.00
N180   N     0.08982   0.60865   0.99684   0.00000  Uiso   1.00
N181   N     0.22729   0.41831   0.18660   0.00000  Uiso   1.00
N182   N     0.82128   0.17249   0.14261   0.00000  Uiso   1.00
N183   N     0.13707   0.89281   0.99943   0.00000  Uiso   1.00
N184   N     0.27454   0.70246   0.18919   0.00000  Uiso   1.00
C185   C     0.52700   0.85155   0.12487   0.00000  Uiso   1.00
C186   C     0.46426   0.70770   0.11886   0.00000  Uiso   1.00
C187   C     0.39143   0.74658   0.10775   0.00000  Uiso   1.00
C188   C     0.34238   0.59550   0.10382   0.00000  Uiso   1.00
C189   C     0.24148   0.40000   0.09342   0.00000  Uiso   1.00
C190   C     0.59422   0.78763   0.10678   0.00000  Uiso   1.00
C191   C     0.63065   0.89373   0.08552   0.00000  Uiso   1.00
C192   C     0.69101   0.80994   0.07142   0.00000  Uiso   1.00
C193   C     0.79191   0.73858   0.04228   0.00000  Uiso   1.00
C194   C     0.55158   0.82809   0.15773   0.00000  Uiso   1.00
C195   C     0.55219   0.96822   0.17930   0.00000  Uiso   1.00
C196   C     0.57667   0.91850   0.20809   0.00000  Uiso   1.00
C197   C     0.61136   0.90997   0.25805   0.00000  Uiso   1.00
C198   C     0.56942   0.51412   0.13765   0.00000  Uiso   1.00
C199   C     0.48731   0.52442   0.12580   0.00000  Uiso   1.00
C200   C     0.43837   0.37324   0.12189   0.00000  Uiso   1.00
C201   C     0.36547   0.41189   0.11077   0.00000  Uiso   1.00
C202   C     0.61727   0.60435   0.11372   0.00000  Uiso   1.00
C203   C     0.67759   0.52039   0.09965   0.00000  Uiso   1.00
C204   C     0.71410   0.62632   0.07837   0.00000  Uiso   1.00
C205   C     0.57463   0.64481   0.16467   0.00000  Uiso   1.00
C206   C     0.59912   0.59488   0.19343   0.00000  Uiso   1.00
C207   C     0.59976   0.73489   0.21504   0.00000  Uiso   1.00
H208   H     0.50906   0.99425   0.11947   0.00000  Uiso   1.00
H209   H     0.37362   0.88844   0.10238   0.00000  Uiso   1.00
H210   H     0.61281   0.03556   0.08015   0.00000  Uiso   1.00
H211   H     0.53435   0.11003   0.17392   0.00000  Uiso   1.00
H212   H     0.23362   0.69029   0.08649   0.00000  Uiso   1.00
H213   H     0.73799   0.00054   0.03963   0.00000  Uiso   1.00
H214   H     0.57255   0.15758   0.23735   0.00000  Uiso   1.00
H215   H     0.58737   0.37142   0.14305   0.00000  Uiso   1.00
H216   H     0.45622   0.23142   0.12726   0.00000  Uiso   1.00
H217   H     0.69541   0.37856   0.10503   0.00000  Uiso   1.00
H218   H     0.61695   0.45303   0.19879   0.00000  Uiso   1.00
H219   H     0.30067   0.15703   0.10668   0.00000  Uiso   1.00
H220   H     0.80504   0.46729   0.05982   0.00000  Uiso   1.00
H221   H     0.63959   0.62433   0.25754   0.00000  Uiso   1.00
O222   O     0.17947   0.34280   0.08576   0.00000  Uiso   1.00
O223   O     0.84119   0.74985   0.02429   0.00000  Uiso   1.00
O224   O     0.62412   0.95589   0.28369   0.00000  Uiso   1.00
N225   N     0.26740   0.58400   0.09341   0.00000  Uiso   1.00
N226   N     0.73894   0.87406   0.04960   0.00000  Uiso   1.00
N227   N     0.58428   0.02090   0.23445   0.00000  Uiso   1.00
N228   N     0.30347   0.29706   0.10428   0.00000  Uiso   1.00
N229   N     0.77502   0.58712   0.06046   0.00000  Uiso   1.00
N230   N     0.62036   0.73396   0.24531   0.00000  Uiso   1.00
C231   C     0.02621   0.38656   0.60761   0.00000  Uiso   1.00
C232   C     0.96826   0.24136   0.61718   0.00000  Uiso   1.00
C233   C     0.89321   0.27756   0.62378   0.00000  Uiso   1.00
C234   C     0.84936   0.12564   0.63210   0.00000  Uiso   1.00
C235   C     0.75478   0.92778   0.64669   0.00000  Uiso   1.00
C236   C     0.05528   0.31843   0.57771   0.00000  Uiso   1.00
C237   C     0.05341   0.41944   0.55113   0.00000  Uiso   1.00
C238   C     0.08282   0.33241   0.52624   0.00000  Uiso   1.00
C239   C     0.12340   0.25426   0.47957   0.00000  Uiso   1.00
C240   C     0.09316   0.37088   0.63001   0.00000  Uiso   1.00
C241   C     0.12315   0.51601   0.64741   0.00000  Uiso   1.00
C242   C     0.18447   0.47314   0.66654   0.00000  Uiso   1.00
C243   C     0.28385   0.47643   0.70108   0.00000  Uiso   1.00
C244   C     0.08178   0.05240   0.61065   0.00000  Uiso   1.00
C245   C     0.99844   0.05986   0.61883   0.00000  Uiso   1.00
C246   C     0.95469   0.90785   0.62715   0.00000  Uiso   1.00
C247   C     0.87960   0.94381   0.63376   0.00000  Uiso   1.00
C248   C     0.08546   0.13694   0.57937   0.00000  Uiso   1.00
C249   C     0.11489   0.04973   0.55450   0.00000  Uiso   1.00
C250   C     0.11306   0.15058   0.52789   0.00000  Uiso   1.00
C251   C     0.12334   0.18938   0.63167   0.00000  Uiso   1.00
C252   C     0.18463   0.14629   0.65078   0.00000  Uiso   1.00
C253   C     0.21470   0.29132   0.66820   0.00000  Uiso   1.00
H254   H     0.00271   0.52787   0.60632   0.00000  Uiso   1.00
H255   H     0.86987   0.41804   0.62249   0.00000  Uiso   1.00
H256   H     0.03006   0.55990   0.54986   0.00000  Uiso   1.00
H257   H     0.09978   0.65644   0.64612   0.00000  Uiso   1.00
H258   H     0.73591   0.21622   0.64114   0.00000  Uiso   1.00
H259   H     0.07368   0.51538   0.48800   0.00000  Uiso   1.00
H260   H     0.22071   0.71896   0.69098   0.00000  Uiso   1.00
H261   H     0.10528   0.91109   0.61194   0.00000  Uiso   1.00
H262   H     0.97807   0.76741   0.62843   0.00000  Uiso   1.00
H263   H     0.13825   0.90928   0.55579   0.00000  Uiso   1.00
H264   H     0.20797   0.00582   0.65205   0.00000  Uiso   1.00
H265   H     0.82372   0.68814   0.64596   0.00000  Uiso   1.00
H266   H     0.16150   0.98731   0.49281   0.00000  Uiso   1.00
H267   H     0.30852   0.19088   0.69580   0.00000  Uiso   1.00
O268   O     0.69427   0.86878   0.65428   0.00000  Uiso   1.00
O269   O     0.13743   0.26129   0.45337   0.00000  Uiso   1.00
O270   O     0.33032   0.52838   0.71967   0.00000  Uiso   1.00
N271   N     0.77403   0.11166   0.64002   0.00000  Uiso   1.00
N272   N     0.08982   0.39135   0.49684   0.00000  Uiso   1.00
N273   N     0.22729   0.58169   0.68660   0.00000  Uiso   1.00
N274   N     0.82128   0.82751   0.64261   0.00000  Uiso   1.00
N275   N     0.13707   0.10719   0.49943   0.00000  Uiso   1.00
N276   N     0.27454   0.29754   0.68919   0.00000  Uiso   1.00
C277   C     0.47300   0.85155   0.37513   0.00000  Uiso   1.00
C278   C     0.53574   0.70770   0.38114   0.00000  Uiso   1.00
C279   C     0.60857   0.74658   0.39225   0.00000  Uiso   1.00
C280   C     0.65762   0.59550   0.39618   0.00000  Uiso   1.00
C281   C     0.75852   0.40000   0.40658   0.00000  Uiso   1.00
C282   C     0.40578   0.78763   0.39322   0.00000  Uiso   1.00
C283   C     0.36935   0.89373   0.41448   0.00000  Uiso   1.00
C284   C     0.30899   0.80994   0.42858   0.00000  Uiso   1.00
C285   C     0.20809   0.73858   0.45772   0.00000  Uiso   1.00
C286   C     0.44842   0.82809   0.34227   0.00000  Uiso   1.00
C287   C     0.44781   0.96822   0.32070   0.00000  Uiso   1.00
C288   C     0.42333   0.91850   0.29191   0.00000  Uiso   1.00
C289   C     0.38864   0.90997   0.24195   0.00000  Uiso   1.00
C290   C     0.43058   0.51412   0.36235   0.00000  Uiso   1.00
C291   C     0.51269   0.52442   0.37420   0.00000  Uiso   1.00
C292   C     0.56163   0.37324   0.37811   0.00000  Uiso   1.00
C293   C     0.63453   0.41189   0.38923   0.00000  Uiso   1.00
C294   C     0.38273   0.60435   0.38628   0.00000  Uiso   1.00
C295   C     0.32241   0.52039   0.40035   0.00000  Uiso   1.00
C296   C     0.28590   0.62632   0.42163   0.00000  Uiso   1.00
C297   C     0.42537   0.64481   0.33533   0.00000  Uiso   1.00
C298   C     0.40088   0.59488   0.30657   0.00000  Uiso   1.00
C299   C     0.40024   0.73489   0.28496   0.00000  Uiso   1.00
H300   H     0.49094   0.99425   0.38053   0.00000  Uiso   1.00
H301   H     0.62638   0.88844   0.39762   0.00000  Uiso   1.00
H302   H     0.38719   0.03556   0.41985   0.00000  Uiso   1.00
H303   H     0.46565   0.11003   0.32608   0.00000  Uiso   1.00
H304   H     0.76638   0.69029   0.41351   0.00000  Uiso   1.00
H305   H     0.26201   0.00054   0.46037   0.00000  Uiso   1.00
H306   H     0.42745   0.15758   0.26265   0.00000  Uiso   1.00
H307   H     0.41263   0.37142   0.35695   0.00000  Uiso   1.00
H308   H     0.54378   0.23142   0.37274   0.00000  Uiso   1.00
H309   H     0.30459   0.37856   0.39497   0.00000  Uiso   1.00
H310   H     0.38305   0.45303   0.30121   0.00000  Uiso   1.00
H311   H     0.69933   0.15703   0.39332   0.00000  Uiso   1.00
H312   H     0.19496   0.46729   0.44018   0.00000  Uiso   1.00
H313   H     0.36041   0.62433   0.24246   0.00000  Uiso   1.00
O314   O     0.82053   0.34280   0.41424   0.00000  Uiso   1.00
O315   O     0.15881   0.74985   0.47571   0.00000  Uiso   1.00
O316   O     0.37588   0.95589   0.21631   0.00000  Uiso   1.00
N317   N     0.73260   0.58400   0.40659   0.00000  Uiso   1.00
N318   N     0.26106   0.87406   0.45040   0.00000  Uiso   1.00
N319   N     0.41572   0.02090   0.26555   0.00000  Uiso   1.00
N320   N     0.69653   0.29706   0.39572   0.00000  Uiso   1.00
N321   N     0.22498   0.58712   0.43954   0.00000  Uiso   1.00
N322   N     0.37964   0.73396   0.25469   0.00000  Uiso   1.00
C323   C     0.97379   0.38656   0.89239   0.00000  Uiso   1.00
C324   C     0.03174   0.24136   0.88282   0.00000  Uiso   1.00
C325   C     0.10679   0.27756   0.87622   0.00000  Uiso   1.00
C326   C     0.15064   0.12564   0.86790   0.00000  Uiso   1.00
C327   C     0.24522   0.92778   0.85331   0.00000  Uiso   1.00
C328   C     0.94472   0.31843   0.92229   0.00000  Uiso   1.00
C329   C     0.94659   0.41944   0.94887   0.00000  Uiso   1.00
C330   C     0.91718   0.33241   0.97376   0.00000  Uiso   1.00
C331   C     0.87660   0.25426   0.02043   0.00000  Uiso   1.00
C332   C     0.90684   0.37088   0.86999   0.00000  Uiso   1.00
C333   C     0.87685   0.51601   0.85259   0.00000  Uiso   1.00
C334   C     0.81553   0.47314   0.83346   0.00000  Uiso   1.00
C335   C     0.71615   0.47643   0.79892   0.00000  Uiso   1.00
C336   C     0.91822   0.05240   0.88935   0.00000  Uiso   1.00
C337   C     0.00156   0.05986   0.88117   0.00000  Uiso   1.00
C338   C     0.04531   0.90785   0.87285   0.00000  Uiso   1.00
C339   C     0.12040   0.94381   0.86624   0.00000  Uiso   1.00
C340   C     0.91454   0.13694   0.92063   0.00000  Uiso   1.00
C341   C     0.88511   0.04973   0.94550   0.00000  Uiso   1.00
C342   C     0.88694   0.15058   0.97211   0.00000  Uiso   1.00
C343   C     0.87666   0.18938   0.86833   0.00000  Uiso   1.00
C344   C     0.81537   0.14629   0.84922   0.00000  Uiso   1.00
C345   C     0.78529   0.29132   0.83180   0.00000  Uiso   1.00
H346   H     0.99729   0.52787   0.89368   0.00000  Uiso   1.00
H347   H     0.13013   0.41804   0.87751   0.00000  Uiso   1.00
H348   H     0.96994   0.55990   0.95014   0.00000  Uiso   1.00
H349   H     0.90022   0.65644   0.85388   0.00000  Uiso   1.00
H350   H     0.26409   0.21622   0.85886   0.00000  Uiso   1.00
H351   H     0.92632   0.51538   0.01200   0.00000  Uiso   1.00
H352   H     0.77929   0.71896   0.80902   0.00000  Uiso   1.00
H353   H     0.89472   0.91109   0.88806   0.00000  Uiso   1.00
H354   H     0.02193   0.76741   0.87157   0.00000  Uiso   1.00
H355   H     0.86175   0.90928   0.94421   0.00000  Uiso   1.00
H356   H     0.79203   0.00582   0.84795   0.00000  Uiso   1.00
H357   H     0.17628   0.68814   0.85404   0.00000  Uiso   1.00
H358   H     0.83850   0.98731   0.00719   0.00000  Uiso   1.00
H359   H     0.69148   0.19088   0.80420   0.00000  Uiso   1.00
O360   O     0.30573   0.86878   0.84572   0.00000  Uiso   1.00
O361   O     0.86257   0.26129   0.04663   0.00000  Uiso   1.00
O362   O     0.66968   0.52838   0.78033   0.00000  Uiso   1.00
N363   N     0.22597   0.11166   0.85998   0.00000  Uiso   1.00
N364   N     0.91018   0.39135   0.00316   0.00000  Uiso   1.00
N365   N     0.77271   0.58169   0.81340   0.00000  Uiso   1.00
N366   N     0.17872   0.82751   0.85739   0.00000  Uiso   1.00
N367   N     0.86293   0.10719   0.00057   0.00000  Uiso   1.00
N368   N     0.72546   0.29754   0.81081   0.00000  Uiso   1.00
