data_job_07095
_audit_creation_date              2018-12-19
_audit_creation_method            'Materials Studio'
_symmetry_space_group_name_H-M    'P1'
_symmetry_Int_Tables_number       1
_symmetry_cell_setting            triclinic
loop_
_symmetry_equiv_pos_as_xyz
  x,y,z
_cell_length_a                    22.9951
_cell_length_b                    23.1057
_cell_length_c                    25.2521
_cell_angle_alpha                 90.9383
_cell_angle_beta                  113.9880
_cell_angle_gamma                 117.9770
loop_
_atom_site_label
_atom_site_type_symbol
_atom_site_fract_x
_atom_site_fract_y
_atom_site_fract_z
_atom_site_U_iso_or_equiv
_atom_site_adp_type
_atom_site_occupancy
C1     C     0.99116   0.59747   0.40934   0.00000  Uiso   1.00
C2     C     0.98920   0.65613   0.38353   0.00000  Uiso   1.00
C3     C     0.04548   0.70680   0.37447   0.00000  Uiso   1.00
C4     C     0.03299   0.75593   0.35039   0.00000  Uiso   1.00
C5     C     0.04007   0.84726   0.31256   0.00000  Uiso   1.00
C6     C     0.97799   0.60145   0.46345   0.00000  Uiso   1.00
C7     C     0.02484   0.60615   0.52157   0.00000  Uiso   1.00
C8     C     0.00289   0.60925   0.56476   0.00000  Uiso   1.00
C9     C     0.99254   0.61565   0.65098   0.00000  Uiso   1.00
C10    C     0.92249   0.53288   0.36277   0.00000  Uiso   1.00
C11    C     0.92266   0.47991   0.33625   0.00000  Uiso   1.00
C12    C     0.85398   0.42527   0.29469   0.00000  Uiso   1.00
C13    C     0.75746   0.32520   0.22459   0.00000  Uiso   1.00
C14    C     0.86889   0.59461   0.38268   0.00000  Uiso   1.00
C15    C     0.92279   0.65457   0.36905   0.00000  Uiso   1.00
C16    C     0.91021   0.70364   0.34498   0.00000  Uiso   1.00
C17    C     0.96646   0.75437   0.33588   0.00000  Uiso   1.00
C18    C     0.91158   0.59990   0.44897   0.00000  Uiso   1.00
C19    C     0.88956   0.60299   0.49208   0.00000  Uiso   1.00
C20    C     0.93636   0.60769   0.55025   0.00000  Uiso   1.00
C21    C     0.85607   0.53133   0.34829   0.00000  Uiso   1.00
C22    C     0.78739   0.47675   0.30676   0.00000  Uiso   1.00
C23    C     0.78745   0.42371   0.28018   0.00000  Uiso   1.00
H24    H     0.04286   0.59868   0.42061   0.00000  Uiso   1.00
H25    H     0.09687   0.70799   0.38569   0.00000  Uiso   1.00
H26    H     0.07622   0.60735   0.53276   0.00000  Uiso   1.00
H27    H     0.97406   0.48113   0.34747   0.00000  Uiso   1.00
H28    H     0.12748   0.82851   0.34061   0.00000  Uiso   1.00
H29    H     0.08393   0.61627   0.65071   0.00000  Uiso   1.00
H30    H     0.86850   0.35012   0.25999   0.00000  Uiso   1.00
H31    H     0.81718   0.59340   0.37140   0.00000  Uiso   1.00
H32    H     0.85881   0.70242   0.33378   0.00000  Uiso   1.00
H33    H     0.83816   0.60178   0.48085   0.00000  Uiso   1.00
H34    H     0.73600   0.47556   0.29556   0.00000  Uiso   1.00
H35    H     0.93426   0.82399   0.29847   0.00000  Uiso   1.00
H36    H     0.89071   0.61175   0.60858   0.00000  Uiso   1.00
H37    H     0.67528   0.34560   0.21786   0.00000  Uiso   1.00
O38    O     0.06233   0.89807   0.29569   0.00000  Uiso   1.00
O39    O     0.00519   0.61961   0.70254   0.00000  Uiso   1.00
O40    O     0.72256   0.27044   0.18992   0.00000  Uiso   1.00
N41    N     0.07628   0.81247   0.33584   0.00000  Uiso   1.00
N42    N     0.03557   0.61406   0.62578   0.00000  Uiso   1.00
N43    N     0.83417   0.36522   0.26050   0.00000  Uiso   1.00
N44    N     0.97231   0.81004   0.31317   0.00000  Uiso   1.00
N45    N     0.93160   0.61163   0.60311   0.00000  Uiso   1.00
N46    N     0.73020   0.36279   0.23783   0.00000  Uiso   1.00
C47    C     0.37187   0.92716   0.58943   0.00000  Uiso   1.00
C48    C     0.34931   0.93312   0.63737   0.00000  Uiso   1.00
C49    C     0.30127   0.95501   0.63361   0.00000  Uiso   1.00
C50    C     0.28774   0.95688   0.68223   0.00000  Uiso   1.00
C51    C     0.24767   0.96911   0.74899   0.00000  Uiso   1.00
C52    C     0.45680   0.97014   0.62011   0.00000  Uiso   1.00
C53    C     0.49913   0.02315   0.60183   0.00000  Uiso   1.00
C54    C     0.57609   0.05617   0.63592   0.00000  Uiso   1.00
C55    C     0.70289   0.12583   0.67586   0.00000  Uiso   1.00
C56    C     0.35158   0.85382   0.57458   0.00000  Uiso   1.00
C57    C     0.30546   0.80903   0.51802   0.00000  Uiso   1.00
C58    C     0.29384   0.74412   0.51378   0.00000  Uiso   1.00
C59    C     0.25728   0.63318   0.48302   0.00000  Uiso   1.00
C60    C     0.43327   0.89153   0.68247   0.00000  Uiso   1.00
C61    C     0.38266   0.91377   0.68791   0.00000  Uiso   1.00
C62    C     0.36920   0.91560   0.73655   0.00000  Uiso   1.00
C63    C     0.32115   0.93749   0.73285   0.00000  Uiso   1.00
C64    C     0.49015   0.95079   0.67065   0.00000  Uiso   1.00
C65    C     0.56706   0.98373   0.70477   0.00000  Uiso   1.00
C66    C     0.60950   0.03678   0.68655   0.00000  Uiso   1.00
C67    C     0.38493   0.83446   0.62512   0.00000  Uiso   1.00
C68    C     0.37339   0.76961   0.62096   0.00000  Uiso   1.00
C69    C     0.32725   0.72473   0.56440   0.00000  Uiso   1.00
H70    H     0.34591   0.94223   0.55009   0.00000  Uiso   1.00
H71    H     0.27548   0.96999   0.59449   0.00000  Uiso   1.00
H72    H     0.47331   0.03811   0.56272   0.00000  Uiso   1.00
H73    H     0.27966   0.82402   0.47892   0.00000  Uiso   1.00
H74    H     0.21212   0.99226   0.66602   0.00000  Uiso   1.00
H75    H     0.62925   0.13587   0.59901   0.00000  Uiso   1.00
H76    H     0.22092   0.68443   0.42230   0.00000  Uiso   1.00
H77    H     0.45923   0.87647   0.72182   0.00000  Uiso   1.00
H78    H     0.39502   0.90062   0.77565   0.00000  Uiso   1.00
H79    H     0.59285   0.96874   0.74387   0.00000  Uiso   1.00
H80    H     0.39920   0.75465   0.66008   0.00000  Uiso   1.00
H81    H     0.30914   0.93596   0.81305   0.00000  Uiso   1.00
H82    H     0.72628   0.07957   0.74604   0.00000  Uiso   1.00
H83    H     0.31794   0.62813   0.56934   0.00000  Uiso   1.00
O84    O     0.21636   0.98121   0.77185   0.00000  Uiso   1.00
O85    O     0.76362   0.16961   0.68393   0.00000  Uiso   1.00
O86    O     0.22789   0.57733   0.45210   0.00000  Uiso   1.00
N87    N     0.24375   0.97568   0.69323   0.00000  Uiso   1.00
N88    N     0.63375   0.10996   0.63058   0.00000  Uiso   1.00
N89    N     0.25201   0.68791   0.46538   0.00000  Uiso   1.00
N90    N     0.29596   0.94539   0.77235   0.00000  Uiso   1.00
N91    N     0.68596   0.07966   0.70970   0.00000  Uiso   1.00
N92    N     0.30421   0.65761   0.54450   0.00000  Uiso   1.00
C93    C     0.53563   0.36720   0.95013   0.00000  Uiso   1.00
C94    C     0.57182   0.34350   0.92332   0.00000  Uiso   1.00
C95    C     0.61388   0.31482   0.95078   0.00000  Uiso   1.00
C96    C     0.64219   0.29652   0.91883   0.00000  Uiso   1.00
C97    C     0.70045   0.25821   0.88593   0.00000  Uiso   1.00
C98    C     0.56542   0.44155   0.94953   0.00000  Uiso   1.00
C99    C     0.60209   0.49531   0.99903   0.00000  Uiso   1.00
C100   C     0.62500   0.55954   0.98915   0.00000  Uiso   1.00
C101   C     0.67327   0.67345   0.99694   0.00000  Uiso   1.00
C102   C     0.45284   0.32923   0.90521   0.00000  Uiso   1.00
C103   C     0.39483   0.28857   0.91745   0.00000  Uiso   1.00
C104   C     0.32295   0.25825   0.87025   0.00000  Uiso   1.00
C105   C     0.19642   0.19778   0.80922   0.00000  Uiso   1.00
C106   C     0.51111   0.38567   0.84457   0.00000  Uiso   1.00
C107   C     0.55851   0.35353   0.86598   0.00000  Uiso   1.00
C108   C     0.58676   0.33526   0.83398   0.00000  Uiso   1.00
C109   C     0.62885   0.30656   0.86139   0.00000  Uiso   1.00
C110   C     0.55211   0.45158   0.89219   0.00000  Uiso   1.00
C111   C     0.57496   0.51574   0.88224   0.00000  Uiso   1.00
C112   C     0.61166   0.56959   0.93171   0.00000  Uiso   1.00
C113   C     0.43952   0.33926   0.84787   0.00000  Uiso   1.00
C114   C     0.36771   0.30901   0.80064   0.00000  Uiso   1.00
C115   C     0.30961   0.26831   0.81280   0.00000  Uiso   1.00
H116   H     0.54599   0.35940   0.99478   0.00000  Uiso   1.00
H117   H     0.62418   0.30707   0.99516   0.00000  Uiso   1.00
H118   H     0.61238   0.48753   0.04340   0.00000  Uiso   1.00
H119   H     0.40516   0.28082   0.96182   0.00000  Uiso   1.00
H120   H     0.70501   0.25351   0.97030   0.00000  Uiso   1.00
H121   H     0.68011   0.63401   0.07202   0.00000  Uiso   1.00
H122   H     0.24314   0.19813   0.90000   0.00000  Uiso   1.00
H123   H     0.50074   0.39349   0.79992   0.00000  Uiso   1.00
H124   H     0.57644   0.34303   0.78961   0.00000  Uiso   1.00
H125   H     0.56465   0.52349   0.83786   0.00000  Uiso   1.00
H126   H     0.35743   0.31678   0.75628   0.00000  Uiso   1.00
H127   H     0.66627   0.28270   0.80347   0.00000  Uiso   1.00
H128   H     0.64137   0.66320   0.90520   0.00000  Uiso   1.00
H129   H     0.20440   0.22732   0.73317   0.00000  Uiso   1.00
O130   O     0.73628   0.23432   0.88362   0.00000  Uiso   1.00
O131   O     0.70359   0.73351   0.01708   0.00000  Uiso   1.00
O132   O     0.13031   0.16165   0.79139   0.00000  Uiso   1.00
N133   N     0.68549   0.26729   0.93245   0.00000  Uiso   1.00
N134   N     0.66222   0.62304   0.02756   0.00000  Uiso   1.00
N135   N     0.25369   0.21554   0.86673   0.00000  Uiso   1.00
N136   N     0.66464   0.28300   0.84267   0.00000  Uiso   1.00
N137   N     0.64137   0.63874   0.93779   0.00000  Uiso   1.00
N138   N     0.23285   0.23124   0.77696   0.00000  Uiso   1.00
C139   C     0.45455   0.94491   0.11490   0.00000  Uiso   1.00
C140   C     0.43911   0.91124   0.16295   0.00000  Uiso   1.00
C141   C     0.47981   0.88645   0.20129   0.00000  Uiso   1.00
C142   C     0.45676   0.85747   0.24214   0.00000  Uiso   1.00
C143   C     0.44217   0.80584   0.31641   0.00000  Uiso   1.00
C144   C     0.46425   0.01431   0.12870   0.00000  Uiso   1.00
C145   C     0.52608   0.07616   0.13823   0.00000  Uiso   1.00
C146   C     0.52418   0.13393   0.15024   0.00000  Uiso   1.00
C147   C     0.54859   0.24231   0.17129   0.00000  Uiso   1.00
C148   C     0.38265   0.90411   0.05604   0.00000  Uiso   1.00
C149   C     0.37587   0.87333   0.00448   0.00000  Uiso   1.00
C150   C     0.30526   0.83834   0.95531   0.00000  Uiso   1.00
C151   C     0.20297   0.77562   0.86355   0.00000  Uiso   1.00
C152   C     0.34123   0.93751   0.11926   0.00000  Uiso   1.00
C153   C     0.37756   0.90723   0.16532   0.00000  Uiso   1.00
C154   C     0.35444   0.87827   0.20611   0.00000  Uiso   1.00
C155   C     0.39510   0.85344   0.24451   0.00000  Uiso   1.00
C156   C     0.40270   0.01029   0.13107   0.00000  Uiso   1.00
C157   C     0.40071   0.06798   0.14305   0.00000  Uiso   1.00
C158   C     0.46252   0.12991   0.15261   0.00000  Uiso   1.00
C159   C     0.32109   0.90009   0.05841   0.00000  Uiso   1.00
C160   C     0.25049   0.86515   0.00930   0.00000  Uiso   1.00
C161   C     0.24360   0.83432   0.95768   0.00000  Uiso   1.00
H162   H     0.50248   0.94804   0.11306   0.00000  Uiso   1.00
H163   H     0.52745   0.88958   0.19945   0.00000  Uiso   1.00
H164   H     0.57370   0.07926   0.13639   0.00000  Uiso   1.00
H165   H     0.42351   0.87645   0.00267   0.00000  Uiso   1.00
H166   H     0.52801   0.82301   0.29629   0.00000  Uiso   1.00
H167   H     0.62553   0.22296   0.16331   0.00000  Uiso   1.00
H168   H     0.30881   0.79531   0.88132   0.00000  Uiso   1.00
H169   H     0.29331   0.93439   0.12110   0.00000  Uiso   1.00
H170   H     0.30680   0.87517   0.20794   0.00000  Uiso   1.00
H171   H     0.35306   0.06485   0.14488   0.00000  Uiso   1.00
H172   H     0.20287   0.86205   0.01115   0.00000  Uiso   1.00
H173   H     0.34893   0.81132   0.30318   0.00000  Uiso   1.00
H174   H     0.44645   0.21127   0.17020   0.00000  Uiso   1.00
H175   H     0.12973   0.78362   0.88820   0.00000  Uiso   1.00
O176   O     0.45113   0.77848   0.35673   0.00000  Uiso   1.00
O177   O     0.57907   0.30319   0.18225   0.00000  Uiso   1.00
O178   O     0.16355   0.74213   0.81228   0.00000  Uiso   1.00
N179   N     0.48400   0.82837   0.28599   0.00000  Uiso   1.00
N180   N     0.57518   0.20230   0.16167   0.00000  Uiso   1.00
N181   N     0.27909   0.80250   0.89802   0.00000  Uiso   1.00
N182   N     0.38764   0.82208   0.28970   0.00000  Uiso   1.00
N183   N     0.47882   0.19601   0.16538   0.00000  Uiso   1.00
N184   N     0.18272   0.79621   0.90173   0.00000  Uiso   1.00
C185   C     0.93260   0.13177   0.47135   0.00000  Uiso   1.00
C186   C     0.88551   0.15686   0.42884   0.00000  Uiso   1.00
C187   C     0.83839   0.17228   0.43826   0.00000  Uiso   1.00
C188   C     0.80017   0.19448   0.39401   0.00000  Uiso   1.00
C189   C     0.72576   0.23249   0.33590   0.00000  Uiso   1.00
C190   C     0.01285   0.18173   0.48511   0.00000  Uiso   1.00
C191   C     0.07280   0.21803   0.54183   0.00000  Uiso   1.00
C192   C     0.14177   0.26116   0.54495   0.00000  Uiso   1.00
C193   C     0.26507   0.33772   0.57419   0.00000  Uiso   1.00
C194   C     0.91035   0.06497   0.43477   0.00000  Uiso   1.00
C195   C     0.88413   0.00310   0.44918   0.00000  Uiso   1.00
C196   C     0.86681   0.94793   0.40993   0.00000  Uiso   1.00
C197   C     0.83096   0.84321   0.36102   0.00000  Uiso   1.00
C198   C     0.94850   0.14380   0.37602   0.00000  Uiso   1.00
C199   C     0.89415   0.16340   0.37706   0.00000  Uiso   1.00
C200   C     0.85598   0.18558   0.33279   0.00000  Uiso   1.00
C201   C     0.80881   0.20102   0.34214   0.00000  Uiso   1.00
C202   C     0.02149   0.18826   0.43333   0.00000  Uiso   1.00
C203   C     0.09039   0.23134   0.43636   0.00000  Uiso   1.00
C204   C     0.15042   0.26770   0.49308   0.00000  Uiso   1.00
C205   C     0.91898   0.07150   0.38299   0.00000  Uiso   1.00
C206   C     0.90171   0.01641   0.34371   0.00000  Uiso   1.00
C207   C     0.87546   0.95447   0.35806   0.00000  Uiso   1.00
H208   H     0.92589   0.12669   0.51166   0.00000  Uiso   1.00
H209   H     0.83173   0.16722   0.47834   0.00000  Uiso   1.00
H210   H     0.06610   0.21296   0.58189   0.00000  Uiso   1.00
H211   H     0.87745   0.99807   0.48926   0.00000  Uiso   1.00
H212   H     0.73118   0.21506   0.41857   0.00000  Uiso   1.00
H213   H     0.22536   0.31150   0.63693   0.00000  Uiso   1.00
H214   H     0.82756   0.85835   0.44158   0.00000  Uiso   1.00
H215   H     0.95522   0.14888   0.33571   0.00000  Uiso   1.00
H216   H     0.86267   0.19063   0.29272   0.00000  Uiso   1.00
H217   H     0.09705   0.23638   0.39628   0.00000  Uiso   1.00
H218   H     0.90840   0.02148   0.30365   0.00000  Uiso   1.00
H219   H     0.75629   0.23407   0.26792   0.00000  Uiso   1.00
H220   H     0.25048   0.33050   0.48628   0.00000  Uiso   1.00
H221   H     0.85267   0.87735   0.29093   0.00000  Uiso   1.00
O222   O     0.68234   0.25165   0.31816   0.00000  Uiso   1.00
O223   O     0.33070   0.37816   0.60463   0.00000  Uiso   1.00
O224   O     0.80879   0.78364   0.34834   0.00000  Uiso   1.00
N225   N     0.74978   0.21379   0.38901   0.00000  Uiso   1.00
N226   N     0.21181   0.30396   0.59316   0.00000  Uiso   1.00
N227   N     0.83992   0.88031   0.41053   0.00000  Uiso   1.00
N228   N     0.76329   0.22402   0.30794   0.00000  Uiso   1.00
N229   N     0.22532   0.31419   0.51209   0.00000  Uiso   1.00
N230   N     0.85343   0.89054   0.32947   0.00000  Uiso   1.00
C231   C     0.01519   0.46467   0.86678   0.00000  Uiso   1.00
C232   C     0.06016   0.43175   0.87002   0.00000  Uiso   1.00
C233   C     0.11136   0.45052   0.84837   0.00000  Uiso   1.00
C234   C     0.14672   0.41411   0.85569   0.00000  Uiso   1.00
C235   C     0.21891   0.37112   0.85650   0.00000  Uiso   1.00
C236   C     0.03253   0.48736   0.93116   0.00000  Uiso   1.00
C237   C     0.06051   0.55288   0.96089   0.00000  Uiso   1.00
C238   C     0.07260   0.56328   0.01967   0.00000  Uiso   1.00
C239   C     0.10185   0.60662   0.11537   0.00000  Uiso   1.00
C240   C     0.93351   0.40771   0.83445   0.00000  Uiso   1.00
C241   C     0.87821   0.40627   0.78289   0.00000  Uiso   1.00
C242   C     0.80692   0.34961   0.76025   0.00000  Uiso   1.00
C243   C     0.68242   0.26928   0.70580   0.00000  Uiso   1.00
C244   C     0.98691   0.36662   0.91827   0.00000  Uiso   1.00
C245   C     0.04480   0.37850   0.89800   0.00000  Uiso   1.00
C246   C     0.08008   0.34204   0.90534   0.00000  Uiso   1.00
C247   C     0.13133   0.36076   0.88370   0.00000  Uiso   1.00
C248   C     0.01718   0.43411   0.95913   0.00000  Uiso   1.00
C249   C     0.02922   0.44441   0.01787   0.00000  Uiso   1.00
C250   C     0.05721   0.50993   0.04769   0.00000  Uiso   1.00
C251   C     0.91815   0.35445   0.86242   0.00000  Uiso   1.00
C252   C     0.84693   0.29779   0.83986   0.00000  Uiso   1.00
C253   C     0.79154   0.29626   0.78827   0.00000  Uiso   1.00
H254   H     0.02715   0.50613   0.84501   0.00000  Uiso   1.00
H255   H     0.12324   0.49174   0.82673   0.00000  Uiso   1.00
H256   H     0.07238   0.59408   0.93923   0.00000  Uiso   1.00
H257   H     0.89012   0.44749   0.76125   0.00000  Uiso   1.00
H258   H     0.22302   0.45231   0.81883   0.00000  Uiso   1.00
H259   H     0.11576   0.66811   0.05604   0.00000  Uiso   1.00
H260   H     0.73142   0.35899   0.68073   0.00000  Uiso   1.00
H261   H     0.97496   0.32516   0.94005   0.00000  Uiso   1.00
H262   H     0.06819   0.30084   0.92699   0.00000  Uiso   1.00
H263   H     0.01733   0.40319   0.03950   0.00000  Uiso   1.00
H264   H     0.83506   0.25659   0.86152   0.00000  Uiso   1.00
H265   H     0.17834   0.29737   0.90020   0.00000  Uiso   1.00
H266   H     0.07108   0.51317   0.13741   0.00000  Uiso   1.00
H267   H     0.68674   0.20405   0.76211   0.00000  Uiso   1.00
O268   O     0.26297   0.36212   0.84923   0.00000  Uiso   1.00
O269   O     0.12223   0.64524   0.16043   0.00000  Uiso   1.00
O270   O     0.61799   0.23967   0.66804   0.00000  Uiso   1.00
N271   N     0.19970   0.41918   0.83976   0.00000  Uiso   1.00
N272   N     0.09943   0.62094   0.06154   0.00000  Uiso   1.00
N273   N     0.74010   0.33194   0.71067   0.00000  Uiso   1.00
N274   N     0.17566   0.33581   0.88355   0.00000  Uiso   1.00
N275   N     0.07539   0.53756   0.10533   0.00000  Uiso   1.00
N276   N     0.71605   0.24857   0.75446   0.00000  Uiso   1.00
C277   C     0.01004   0.40655   0.65078   0.00000  Uiso   1.00
C278   C     0.00710   0.34688   0.67708   0.00000  Uiso   1.00
C279   C     0.95227   0.30330   0.69141   0.00000  Uiso   1.00
C280   C     0.95960   0.25182   0.71500   0.00000  Uiso   1.00
C281   C     0.94589   0.16030   0.75444   0.00000  Uiso   1.00
C282   C     0.01343   0.39448   0.59283   0.00000  Uiso   1.00
C283   C     0.96394   0.39093   0.53632   0.00000  Uiso   1.00
C284   C     0.97662   0.37953   0.48899   0.00000  Uiso   1.00
C285   C     0.97277   0.36196   0.39765   0.00000  Uiso   1.00
C286   C     0.08531   0.46874   0.69368   0.00000  Uiso   1.00
C287   C     0.09625   0.52764   0.72196   0.00000  Uiso   1.00
C288   C     0.16944   0.57878   0.75953   0.00000  Uiso   1.00
C289   C     0.27719   0.67651   0.82477   0.00000  Uiso   1.00
C290   C     0.12055   0.39263   0.66720   0.00000  Uiso   1.00
C291   C     0.06712   0.33932   0.68600   0.00000  Uiso   1.00
C292   C     0.07454   0.28790   0.70957   0.00000  Uiso   1.00
C293   C     0.01974   0.24425   0.72393   0.00000  Uiso   1.00
C294   C     0.07346   0.38692   0.60175   0.00000  Uiso   1.00
C295   C     0.08621   0.37553   0.55449   0.00000  Uiso   1.00
C296   C     0.03675   0.37196   0.49793   0.00000  Uiso   1.00
C297   C     0.14533   0.46118   0.70260   0.00000  Uiso   1.00
C298   C     0.21852   0.51224   0.74012   0.00000  Uiso   1.00
C299   C     0.22958   0.57120   0.76846   0.00000  Uiso   1.00
H300   H     0.96330   0.41243   0.64384   0.00000  Uiso   1.00
H301   H     0.90582   0.30916   0.68449   0.00000  Uiso   1.00
H302   H     0.91750   0.39679   0.52944   0.00000  Uiso   1.00
H303   H     0.04979   0.53348   0.71505   0.00000  Uiso   1.00
H304   H     0.86856   0.19131   0.73348   0.00000  Uiso   1.00
H305   H     0.89319   0.37611   0.40654   0.00000  Uiso   1.00
H306   H     0.17214   0.66434   0.79793   0.00000  Uiso   1.00
H307   H     0.16728   0.38674   0.67414   0.00000  Uiso   1.00
H308   H     0.12100   0.28206   0.71647   0.00000  Uiso   1.00
H309   H     0.13267   0.36969   0.56141   0.00000  Uiso   1.00
H310   H     0.26496   0.50637   0.74701   0.00000  Uiso   1.00
H311   H     0.04320   0.16931   0.75943   0.00000  Uiso   1.00
H312   H     0.06783   0.35411   0.43249   0.00000  Uiso   1.00
H313   H     0.34678   0.64234   0.82388   0.00000  Uiso   1.00
O314   O     0.92174   0.11190   0.77373   0.00000  Uiso   1.00
O315   O     0.95406   0.35435   0.34480   0.00000  Uiso   1.00
O316   O     0.32004   0.73250   0.85830   0.00000  Uiso   1.00
N317   N     0.91602   0.20051   0.73379   0.00000  Uiso   1.00
N318   N     0.93904   0.37327   0.42812   0.00000  Uiso   1.00
N319   N     0.19984   0.64275   0.79402   0.00000  Uiso   1.00
N320   N     0.00999   0.18867   0.74776   0.00000  Uiso   1.00
N321   N     0.03301   0.36143   0.44208   0.00000  Uiso   1.00
N322   N     0.29381   0.63091   0.80799   0.00000  Uiso   1.00
C323   C     0.60331   0.02926   0.43907   0.00000  Uiso   1.00
C324   C     0.62177   0.02711   0.38777   0.00000  Uiso   1.00
C325   C     0.66052   0.99815   0.38196   0.00000  Uiso   1.00
C326   C     0.67169   0.00142   0.33177   0.00000  Uiso   1.00
C327   C     0.70438   0.99331   0.25862   0.00000  Uiso   1.00
C328   C     0.51882   0.99605   0.41002   0.00000  Uiso   1.00
C329   C     0.47102   0.94098   0.42293   0.00000  Uiso   1.00
C330   C     0.39553   0.91811   0.39147   0.00000  Uiso   1.00
C331   C     0.26840   0.86181   0.35289   0.00000  Uiso   1.00
C332   C     0.63571   0.10390   0.46542   0.00000  Uiso   1.00
C333   C     0.68617   0.13950   0.52490   0.00000  Uiso   1.00
C334   C     0.70908   0.20742   0.54008   0.00000  Uiso   1.00
C335   C     0.76343   0.31857   0.58751   0.00000  Uiso   1.00
C336   C     0.55425   0.08657   0.36028   0.00000  Uiso   1.00
C337   C     0.59512   0.05824   0.34498   0.00000  Uiso   1.00
C338   C     0.60624   0.06156   0.29479   0.00000  Uiso   1.00
C339   C     0.64500   0.03260   0.28890   0.00000  Uiso   1.00
C340   C     0.49217   0.02718   0.36723   0.00000  Uiso   1.00
C341   C     0.41674   0.00439   0.33575   0.00000  Uiso   1.00
C342   C     0.36884   0.94929   0.34860   0.00000  Uiso   1.00
C343   C     0.60907   0.13503   0.42262   0.00000  Uiso   1.00
C344   C     0.63190   0.20290   0.43772   0.00000  Uiso   1.00
C345   C     0.68239   0.23860   0.49721   0.00000  Uiso   1.00
H346   H     0.62405   0.00503   0.47239   0.00000  Uiso   1.00
H347   H     0.68112   0.97406   0.41509   0.00000  Uiso   1.00
H348   H     0.49165   0.91691   0.45605   0.00000  Uiso   1.00
H349   H     0.70678   0.11539   0.55800   0.00000  Uiso   1.00
H350   H     0.73263   0.95343   0.33268   0.00000  Uiso   1.00
H351   H     0.33313   0.83293   0.41906   0.00000  Uiso   1.00
H352   H     0.78675   0.25148   0.63405   0.00000  Uiso   1.00
H353   H     0.53350   0.11081   0.32696   0.00000  Uiso   1.00
H354   H     0.58562   0.08565   0.26167   0.00000  Uiso   1.00
H355   H     0.39614   0.02849   0.30264   0.00000  Uiso   1.00
H356   H     0.61127   0.22698   0.40459   0.00000  Uiso   1.00
H357   H     0.65511   0.04399   0.20816   0.00000  Uiso   1.00
H358   H     0.25560   0.92350   0.29454   0.00000  Uiso   1.00
H359   H     0.70923   0.34205   0.50953   0.00000  Uiso   1.00
O360   O     0.72976   0.98023   0.23008   0.00000  Uiso   1.00
O361   O     0.20563   0.82215   0.34343   0.00000  Uiso   1.00
O362   O     0.80078   0.37127   0.62549   0.00000  Uiso   1.00
N363   N     0.70724   0.97821   0.31234   0.00000  Uiso   1.00
N364   N     0.33373   0.86555   0.39309   0.00000  Uiso   1.00
N365   N     0.75782   0.25685   0.59409   0.00000  Uiso   1.00
N366   N     0.66553   0.02694   0.24533   0.00000  Uiso   1.00
N367   N     0.29202   0.91428   0.32609   0.00000  Uiso   1.00
N368   N     0.71611   0.30558   0.52709   0.00000  Uiso   1.00
C369   C     0.44110   0.60620   0.03783   0.00000  Uiso   1.00
C370   C     0.39833   0.63019   0.05532   0.00000  Uiso   1.00
C371   C     0.35751   0.65705   0.02079   0.00000  Uiso   1.00
C372   C     0.32241   0.67598   0.04474   0.00000  Uiso   1.00
C373   C     0.25513   0.71436   0.06329   0.00000  Uiso   1.00
C374   C     0.41064   0.53266   0.04138   0.00000  Uiso   1.00
C375   C     0.38017   0.47753   0.99513   0.00000  Uiso   1.00
C376   C     0.35544   0.41435   0.00735   0.00000  Uiso   1.00
C377   C     0.30733   0.30133   0.00427   0.00000  Uiso   1.00
C378   C     0.52134   0.64605   0.08801   0.00000  Uiso   1.00
C379   C     0.58396   0.68624   0.08098   0.00000  Uiso   1.00
C380   C     0.65244   0.71852   0.13246   0.00000  Uiso   1.00
C381   C     0.77620   0.78155   0.20179   0.00000  Uiso   1.00
C382   C     0.45137   0.59204   0.14176   0.00000  Uiso   1.00
C383   C     0.40391   0.62249   0.11177   0.00000  Uiso   1.00
C384   C     0.36887   0.64139   0.13578   0.00000  Uiso   1.00
C385   C     0.32800   0.66828   0.10129   0.00000  Uiso   1.00
C386   C     0.41622   0.52497   0.09783   0.00000  Uiso   1.00
C387   C     0.39154   0.46186   0.11012   0.00000  Uiso   1.00
C388   C     0.36104   0.40665   0.06390   0.00000  Uiso   1.00
C389   C     0.52693   0.63836   0.14447   0.00000  Uiso   1.00
C390   C     0.59533   0.67058   0.19597   0.00000  Uiso   1.00
C391   C     0.65803   0.71081   0.18901   0.00000  Uiso   1.00
H392   H     0.43675   0.61218   0.99388   0.00000  Uiso   1.00
H393   H     0.35319   0.66299   0.97710   0.00000  Uiso   1.00
H394   H     0.37587   0.48349   0.95145   0.00000  Uiso   1.00
H395   H     0.57962   0.69218   0.03728   0.00000  Uiso   1.00
H396   H     0.26300   0.71590   0.98338   0.00000  Uiso   1.00
H397   H     0.31082   0.33743   0.92930   0.00000  Uiso   1.00
H398   H     0.74048   0.77748   0.11030   0.00000  Uiso   1.00
H399   H     0.45572   0.58605   0.18572   0.00000  Uiso   1.00
H400   H     0.37320   0.63543   0.17947   0.00000  Uiso   1.00
H401   H     0.39587   0.45593   0.15381   0.00000  Uiso   1.00
H402   H     0.59962   0.66461   0.23965   0.00000  Uiso   1.00
H403   H     0.27923   0.69353   0.14763   0.00000  Uiso   1.00
H404   H     0.32706   0.31506   0.09355   0.00000  Uiso   1.00
H405   H     0.75672   0.75511   0.27455   0.00000  Uiso   1.00
O406   O     0.21647   0.73764   0.05793   0.00000  Uiso   1.00
O407   O     0.27923   0.24111   0.98698   0.00000  Uiso   1.00
O408   O     0.84293   0.81845   0.22444   0.00000  Uiso   1.00
N409   N     0.27815   0.70387   0.02290   0.00000  Uiso   1.00
N410   N     0.32286   0.35002   0.97234   0.00000  Uiso   1.00
N411   N     0.72455   0.76142   0.14155   0.00000  Uiso   1.00
N412   N     0.28689   0.69183   0.11128   0.00000  Uiso   1.00
N413   N     0.33160   0.33799   0.06072   0.00000  Uiso   1.00
N414   N     0.73329   0.74938   0.22994   0.00000  Uiso   1.00
C415   C     0.53487   0.04899   0.91110   0.00000  Uiso   1.00
C416   C     0.52411   0.07707   0.85589   0.00000  Uiso   1.00
C417   C     0.46857   0.09115   0.82556   0.00000  Uiso   1.00
C418   C     0.46822   0.11656   0.77606   0.00000  Uiso   1.00
C419   C     0.44338   0.15848   0.69313   0.00000  Uiso   1.00
C420   C     0.53341   0.98430   0.89483   0.00000  Uiso   1.00
C421   C     0.48569   0.92038   0.89725   0.00000  Uiso   1.00
C422   C     0.49318   0.86770   0.88053   0.00000  Uiso   1.00
C423   C     0.48281   0.76559   0.85810   0.00000  Uiso   1.00
C424   C     0.61434   0.09937   0.95929   0.00000  Uiso   1.00
C425   C     0.63469   0.13219   0.01591   0.00000  Uiso   1.00
C426   C     0.71032   0.17639   0.05348   0.00000  Uiso   1.00
C427   C     0.82561   0.25295   0.13112   0.00000  Uiso   1.00
C428   C     0.63301   0.06911   0.87713   0.00000  Uiso   1.00
C429   C     0.57742   0.08800   0.83745   0.00000  Uiso   1.00
C430   C     0.57715   0.11341   0.78798   0.00000  Uiso   1.00
C431   C     0.52162   0.12752   0.75758   0.00000  Uiso   1.00
C432   C     0.58671   0.99523   0.87638   0.00000  Uiso   1.00
C433   C     0.59428   0.94264   0.85967   0.00000  Uiso   1.00
C434   C     0.54658   0.87865   0.86205   0.00000  Uiso   1.00
C435   C     0.66765   0.11031   0.94084   0.00000  Uiso   1.00
C436   C     0.74327   0.15446   0.97833   0.00000  Uiso   1.00
C437   C     0.76372   0.18734   0.03499   0.00000  Uiso   1.00
H438   H     0.49337   0.04048   0.92546   0.00000  Uiso   1.00
H439   H     0.42732   0.08267   0.83985   0.00000  Uiso   1.00
H440   H     0.44445   0.91194   0.91153   0.00000  Uiso   1.00
H441   H     0.59342   0.12372   0.03017   0.00000  Uiso   1.00
H442   H     0.37759   0.13426   0.73679   0.00000  Uiso   1.00
H443   H     0.41372   0.77425   0.88795   0.00000  Uiso   1.00
H444   H     0.72785   0.22084   0.13813   0.00000  Uiso   1.00
H445   H     0.67452   0.07762   0.86277   0.00000  Uiso   1.00
H446   H     0.61841   0.12186   0.77372   0.00000  Uiso   1.00
H447   H     0.63554   0.95111   0.84539   0.00000  Uiso   1.00
H448   H     0.78450   0.16290   0.96404   0.00000  Uiso   1.00
H449   H     0.53268   0.16606   0.68311   0.00000  Uiso   1.00
H450   H     0.56881   0.80604   0.83427   0.00000  Uiso   1.00
H451   H     0.88294   0.25264   0.08445   0.00000  Uiso   1.00
O452   O     0.41495   0.17857   0.65248   0.00000  Uiso   1.00
O453   O     0.46236   0.70625   0.85081   0.00000  Uiso   1.00
O454   O     0.87448   0.29217   0.17904   0.00000  Uiso   1.00
N455   N     0.42180   0.13568   0.73638   0.00000  Uiso   1.00
N456   N     0.45557   0.79909   0.87770   0.00000  Uiso   1.00
N457   N     0.74926   0.21660   0.11160   0.00000  Uiso   1.00
N458   N     0.50526   0.15279   0.70750   0.00000  Uiso   1.00
N459   N     0.53903   0.81620   0.84881   0.00000  Uiso   1.00
N460   N     0.83271   0.23372   0.08272   0.00000  Uiso   1.00
C461   C     0.03179   0.84591   0.54268   0.00000  Uiso   1.00
C462   C     0.07728   0.82068   0.58693   0.00000  Uiso   1.00
C463   C     0.12497   0.80430   0.57981   0.00000  Uiso   1.00
C464   C     0.16148   0.78214   0.62537   0.00000  Uiso   1.00
C465   C     0.23372   0.74378   0.68633   0.00000  Uiso   1.00
C466   C     0.95077   0.79673   0.52736   0.00000  Uiso   1.00
C467   C     0.89210   0.76021   0.47016   0.00000  Uiso   1.00
C468   C     0.82212   0.71790   0.46558   0.00000  Uiso   1.00
C469   C     0.69795   0.64238   0.43406   0.00000  Uiso   1.00
C470   C     0.05364   0.91332   0.57786   0.00000  Uiso   1.00
C471   C     0.08145   0.97484   0.56311   0.00000  Uiso   1.00
C472   C     0.09806   0.03069   0.60103   0.00000  Uiso   1.00
C473   C     0.13361   0.13620   0.64792   0.00000  Uiso   1.00
C474   C     0.01183   0.83571   0.63624   0.00000  Uiso   1.00
C475   C     0.06643   0.81514   0.63775   0.00000  Uiso   1.00
C476   C     0.10288   0.79300   0.68333   0.00000  Uiso   1.00
C477   C     0.15062   0.77659   0.67628   0.00000  Uiso   1.00
C478   C     0.93993   0.79118   0.57818   0.00000  Uiso   1.00
C479   C     0.87001   0.74892   0.57368   0.00000  Uiso   1.00
C480   C     0.81125   0.71234   0.51649   0.00000  Uiso   1.00
C481   C     0.04280   0.90778   0.62868   0.00000  Uiso   1.00
C482   C     0.05936   0.96354   0.66663   0.00000  Uiso   1.00
C483   C     0.08719   0.02513   0.65195   0.00000  Uiso   1.00
H484   H     0.04023   0.85023   0.50311   0.00000  Uiso   1.00
H485   H     0.13334   0.80859   0.54047   0.00000  Uiso   1.00
H486   H     0.90051   0.76452   0.43084   0.00000  Uiso   1.00
H487   H     0.08983   0.97911   0.52378   0.00000  Uiso   1.00
H488   H     0.23176   0.75996   0.60429   0.00000  Uiso   1.00
H489   H     0.74082   0.66705   0.37313   0.00000  Uiso   1.00
H490   H     0.14004   0.11955   0.56911   0.00000  Uiso   1.00
H491   H     0.00338   0.83139   0.67581   0.00000  Uiso   1.00
H492   H     0.09448   0.78872   0.72265   0.00000  Uiso   1.00
H493   H     0.86164   0.74464   0.61302   0.00000  Uiso   1.00
H494   H     0.05096   0.95923   0.70596   0.00000  Uiso   1.00
H495   H     0.20022   0.74383   0.75216   0.00000  Uiso   1.00
H496   H     0.70927   0.65091   0.52099   0.00000  Uiso   1.00
H497   H     0.10850   0.10342   0.71697   0.00000  Uiso   1.00
O498   O     0.27656   0.72414   0.70592   0.00000  Uiso   1.00
O499   O     0.63246   0.60225   0.40263   0.00000  Uiso   1.00
O500   O     0.15623   0.19593   0.65975   0.00000  Uiso   1.00
N501   N     0.21185   0.76203   0.63267   0.00000  Uiso   1.00
N502   N     0.75285   0.67515   0.41655   0.00000  Uiso   1.00
N503   N     0.12607   0.09821   0.59976   0.00000  Uiso   1.00
N504   N     0.19488   0.75335   0.71224   0.00000  Uiso   1.00
N505   N     0.73588   0.66647   0.49611   0.00000  Uiso   1.00
N506   N     0.10910   0.08953   0.67932   0.00000  Uiso   1.00
C507   C     0.80774   0.49382   0.11110   0.00000  Uiso   1.00
C508   C     0.75880   0.50337   0.13240   0.00000  Uiso   1.00
C509   C     0.70312   0.45291   0.14218   0.00000  Uiso   1.00
C510   C     0.66464   0.47191   0.16162   0.00000  Uiso   1.00
C511   C     0.58609   0.47653   0.19326   0.00000  Uiso   1.00
C512   C     0.79738   0.51909   0.05444   0.00000  Uiso   1.00
C513   C     0.77413   0.48185   0.99867   0.00000  Uiso   1.00
C514   C     0.76814   0.51409   0.95249   0.00000  Uiso   1.00
C515   C     0.74954   0.54313   0.86310   0.00000  Uiso   1.00
C516   C     0.88806   0.54362   0.15820   0.00000  Uiso   1.00
C517   C     0.94107   0.52701   0.18967   0.00000  Uiso   1.00
C518   C     0.01143   0.57990   0.23085   0.00000  Uiso   1.00
C519   C     0.13362   0.64703   0.30257   0.00000  Uiso   1.00
C520   C     0.83844   0.61730   0.12826   0.00000  Uiso   1.00
C521   C     0.77548   0.57044   0.14172   0.00000  Uiso   1.00
C522   C     0.73708   0.58953   0.16116   0.00000  Uiso   1.00
C523   C     0.68134   0.53910   0.17096   0.00000  Uiso   1.00
C524   C     0.81405   0.58616   0.06376   0.00000  Uiso   1.00
C525   C     0.80809   0.61847   0.01765   0.00000  Uiso   1.00
C526   C     0.78484   0.58128   0.96183   0.00000  Uiso   1.00
C527   C     0.90474   0.61069   0.16753   0.00000  Uiso   1.00
C528   C     0.97503   0.66362   0.20866   0.00000  Uiso   1.00
C529   C     0.02813   0.64709   0.24018   0.00000  Uiso   1.00
H530   H     0.79476   0.44160   0.10384   0.00000  Uiso   1.00
H531   H     0.69022   0.40101   0.13495   0.00000  Uiso   1.00
H532   H     0.76124   0.42995   0.99147   0.00000  Uiso   1.00
H533   H     0.92815   0.47510   0.18245   0.00000  Uiso   1.00
H534   H     0.58166   0.38557   0.17354   0.00000  Uiso   1.00
H535   H     0.73143   0.44660   0.87101   0.00000  Uiso   1.00
H536   H     0.08339   0.54181   0.27371   0.00000  Uiso   1.00
H537   H     0.85142   0.66952   0.13551   0.00000  Uiso   1.00
H538   H     0.74999   0.64143   0.16837   0.00000  Uiso   1.00
H539   H     0.82101   0.67037   0.02488   0.00000  Uiso   1.00
H540   H     0.98791   0.71552   0.21586   0.00000  Uiso   1.00
H541   H     0.63017   0.58071   0.20065   0.00000  Uiso   1.00
H542   H     0.77994   0.64174   0.89812   0.00000  Uiso   1.00
H543   H     0.13189   0.73695   0.30083   0.00000  Uiso   1.00
O544   O     0.53816   0.46055   0.20812   0.00000  Uiso   1.00
O545   O     0.73466   0.54062   0.81122   0.00000  Uiso   1.00
O546   O     0.19641   0.66553   0.33955   0.00000  Uiso   1.00
N547   N     0.60701   0.43536   0.17542   0.00000  Uiso   1.00
N548   N     0.74702   0.49241   0.89257   0.00000  Uiso   1.00
N549   N     0.07608   0.58142   0.26906   0.00000  Uiso   1.00
N550   N     0.63311   0.54036   0.19002   0.00000  Uiso   1.00
N551   N     0.77312   0.59741   0.90716   0.00000  Uiso   1.00
N552   N     0.10218   0.68643   0.28365   0.00000  Uiso   1.00
