data_job_02529
_audit_creation_date              2018-12-19
_audit_creation_method            'Materials Studio'
_symmetry_space_group_name_H-M    'P1'
_symmetry_Int_Tables_number       1
_symmetry_cell_setting            triclinic
loop_
_symmetry_equiv_pos_as_xyz
  x,y,z
_cell_length_a                    35.5504
_cell_length_b                    9.3475
_cell_length_c                    15.0987
_cell_angle_alpha                 90.0000
_cell_angle_beta                  90.0000
_cell_angle_gamma                 90.0000
loop_
_atom_site_label
_atom_site_type_symbol
_atom_site_fract_x
_atom_site_fract_y
_atom_site_fract_z
_atom_site_U_iso_or_equiv
_atom_site_adp_type
_atom_site_occupancy
C1     C     0.38315   0.65197   0.49794   0.00000  Uiso   1.00
C2     C     0.34400   0.60295   0.52594   0.00000  Uiso   1.00
C3     C     0.32324   0.65838   0.59579   0.00000  Uiso   1.00
C4     C     0.28800   0.59901   0.61068   0.00000  Uiso   1.00
C5     C     0.22933   0.53980   0.66221   0.00000  Uiso   1.00
C6     C     0.37992   0.69427   0.40069   0.00000  Uiso   1.00
C7     C     0.38936   0.82648   0.36524   0.00000  Uiso   1.00
C8     C     0.38437   0.84397   0.27469   0.00000  Uiso   1.00
C9     C     0.38149   0.92651   0.13176   0.00000  Uiso   1.00
C10    C     0.40794   0.51891   0.50016   0.00000  Uiso   1.00
C11    C     0.44095   0.50366   0.54832   0.00000  Uiso   1.00
C12    C     0.45955   0.37352   0.54150   0.00000  Uiso   1.00
C13    C     0.50018   0.18376   0.55301   0.00000  Uiso   1.00
C14    C     0.35750   0.44798   0.40014   0.00000  Uiso   1.00
C15    C     0.33007   0.49215   0.47282   0.00000  Uiso   1.00
C16    C     0.29486   0.43268   0.48760   0.00000  Uiso   1.00
C17    C     0.27404   0.48801   0.55747   0.00000  Uiso   1.00
C18    C     0.36599   0.58348   0.34757   0.00000  Uiso   1.00
C19    C     0.36098   0.60078   0.25705   0.00000  Uiso   1.00
C20    C     0.37041   0.73297   0.22147   0.00000  Uiso   1.00
C21    C     0.39401   0.40810   0.44704   0.00000  Uiso   1.00
C22    C     0.41257   0.27796   0.44013   0.00000  Uiso   1.00
C23    C     0.44560   0.26252   0.48828   0.00000  Uiso   1.00
H24    H     0.39400   0.73824   0.53928   0.00000  Uiso   1.00
H25    H     0.33403   0.74414   0.63688   0.00000  Uiso   1.00
H26    H     0.40015   0.91219   0.40636   0.00000  Uiso   1.00
H27    H     0.45172   0.58943   0.58942   0.00000  Uiso   1.00
H28    H     0.26139   0.70184   0.72164   0.00000  Uiso   1.00
H29    H     0.40082   0.05619   0.23557   0.00000  Uiso   1.00
H30    H     0.50958   0.37558   0.62159   0.00000  Uiso   1.00
H31    H     0.34665   0.36171   0.35879   0.00000  Uiso   1.00
H32    H     0.28409   0.34694   0.44648   0.00000  Uiso   1.00
H33    H     0.35020   0.51501   0.21596   0.00000  Uiso   1.00
H34    H     0.40178   0.19224   0.39902   0.00000  Uiso   1.00
H35    H     0.22086   0.37947   0.56710   0.00000  Uiso   1.00
H36    H     0.36028   0.73383   0.08104   0.00000  Uiso   1.00
H37    H     0.46904   0.05320   0.46705   0.00000  Uiso   1.00
O38    O     0.20081   0.53777   0.70530   0.00000  Uiso   1.00
O39    O     0.38374   0.00265   0.06760   0.00000  Uiso   1.00
O40    O     0.52643   0.10970   0.57404   0.00000  Uiso   1.00
N41    N     0.26044   0.62798   0.67324   0.00000  Uiso   1.00
N42    N     0.39079   0.95929   0.21881   0.00000  Uiso   1.00
N43    N     0.49248   0.32298   0.57968   0.00000  Uiso   1.00
N44    N     0.23863   0.45451   0.59009   0.00000  Uiso   1.00
N45    N     0.36898   0.78582   0.13565   0.00000  Uiso   1.00
N46    N     0.47067   0.14951   0.49652   0.00000  Uiso   1.00
C47    C     0.11685   0.84803   0.99794   0.00000  Uiso   1.00
C48    C     0.15600   0.89705   0.02594   0.00000  Uiso   1.00
C49    C     0.17676   0.84162   0.09579   0.00000  Uiso   1.00
C50    C     0.21200   0.90099   0.11068   0.00000  Uiso   1.00
C51    C     0.27067   0.96020   0.16221   0.00000  Uiso   1.00
C52    C     0.12008   0.80573   0.90069   0.00000  Uiso   1.00
C53    C     0.11064   0.67352   0.86524   0.00000  Uiso   1.00
C54    C     0.11563   0.65603   0.77469   0.00000  Uiso   1.00
C55    C     0.11851   0.57349   0.63176   0.00000  Uiso   1.00
C56    C     0.09206   0.98109   0.00016   0.00000  Uiso   1.00
C57    C     0.05905   0.99634   0.04832   0.00000  Uiso   1.00
C58    C     0.04045   0.12648   0.04150   0.00000  Uiso   1.00
C59    C     0.99982   0.31624   0.05301   0.00000  Uiso   1.00
C60    C     0.14250   0.05202   0.90014   0.00000  Uiso   1.00
C61    C     0.16993   0.00785   0.97282   0.00000  Uiso   1.00
C62    C     0.20514   0.06732   0.98760   0.00000  Uiso   1.00
C63    C     0.22596   0.01199   0.05747   0.00000  Uiso   1.00
C64    C     0.13401   0.91652   0.84757   0.00000  Uiso   1.00
C65    C     0.13902   0.89922   0.75705   0.00000  Uiso   1.00
C66    C     0.12959   0.76703   0.72147   0.00000  Uiso   1.00
C67    C     0.10599   0.09190   0.94704   0.00000  Uiso   1.00
C68    C     0.08743   0.22204   0.94013   0.00000  Uiso   1.00
C69    C     0.05440   0.23748   0.98828   0.00000  Uiso   1.00
H70    H     0.10600   0.76176   0.03928   0.00000  Uiso   1.00
H71    H     0.16597   0.75586   0.13688   0.00000  Uiso   1.00
H72    H     0.09985   0.58781   0.90636   0.00000  Uiso   1.00
H73    H     0.04828   0.91057   0.08942   0.00000  Uiso   1.00
H74    H     0.23861   0.79816   0.22164   0.00000  Uiso   1.00
H75    H     0.09918   0.44381   0.73557   0.00000  Uiso   1.00
H76    H     0.99042   0.12442   0.12159   0.00000  Uiso   1.00
H77    H     0.15335   0.13829   0.85879   0.00000  Uiso   1.00
H78    H     0.21591   0.15306   0.94648   0.00000  Uiso   1.00
H79    H     0.14980   0.98499   0.71596   0.00000  Uiso   1.00
H80    H     0.09822   0.30776   0.89902   0.00000  Uiso   1.00
H81    H     0.27914   0.12053   0.06710   0.00000  Uiso   1.00
H82    H     0.13972   0.76617   0.58104   0.00000  Uiso   1.00
H83    H     0.03096   0.44680   0.96705   0.00000  Uiso   1.00
O84    O     0.29919   0.96223   0.20530   0.00000  Uiso   1.00
O85    O     0.11626   0.49735   0.56760   0.00000  Uiso   1.00
O86    O     0.97357   0.39030   0.07404   0.00000  Uiso   1.00
N87    N     0.23956   0.87202   0.17324   0.00000  Uiso   1.00
N88    N     0.10921   0.54071   0.71881   0.00000  Uiso   1.00
N89    N     0.00752   0.17702   0.07968   0.00000  Uiso   1.00
N90    N     0.26137   0.04549   0.09009   0.00000  Uiso   1.00
N91    N     0.13102   0.71418   0.63565   0.00000  Uiso   1.00
N92    N     0.02933   0.35049   0.99652   0.00000  Uiso   1.00
C93    C     0.61685   0.65197   0.00206   0.00000  Uiso   1.00
C94    C     0.65600   0.60295   0.97406   0.00000  Uiso   1.00
C95    C     0.67676   0.65838   0.90421   0.00000  Uiso   1.00
C96    C     0.71200   0.59901   0.88932   0.00000  Uiso   1.00
C97    C     0.77067   0.53980   0.83779   0.00000  Uiso   1.00
C98    C     0.62008   0.69427   0.09931   0.00000  Uiso   1.00
C99    C     0.61064   0.82648   0.13476   0.00000  Uiso   1.00
C100   C     0.61563   0.84397   0.22531   0.00000  Uiso   1.00
C101   C     0.61851   0.92651   0.36824   0.00000  Uiso   1.00
C102   C     0.59206   0.51891   0.99984   0.00000  Uiso   1.00
C103   C     0.55905   0.50366   0.95168   0.00000  Uiso   1.00
C104   C     0.54045   0.37352   0.95850   0.00000  Uiso   1.00
C105   C     0.49982   0.18376   0.94699   0.00000  Uiso   1.00
C106   C     0.64250   0.44798   0.09986   0.00000  Uiso   1.00
C107   C     0.66993   0.49215   0.02718   0.00000  Uiso   1.00
C108   C     0.70514   0.43268   0.01240   0.00000  Uiso   1.00
C109   C     0.72596   0.48801   0.94253   0.00000  Uiso   1.00
C110   C     0.63401   0.58348   0.15243   0.00000  Uiso   1.00
C111   C     0.63902   0.60078   0.24295   0.00000  Uiso   1.00
C112   C     0.62959   0.73297   0.27853   0.00000  Uiso   1.00
C113   C     0.60599   0.40810   0.05296   0.00000  Uiso   1.00
C114   C     0.58743   0.27796   0.05987   0.00000  Uiso   1.00
C115   C     0.55440   0.26252   0.01172   0.00000  Uiso   1.00
H116   H     0.60600   0.73824   0.96072   0.00000  Uiso   1.00
H117   H     0.66597   0.74414   0.86312   0.00000  Uiso   1.00
H118   H     0.59985   0.91219   0.09364   0.00000  Uiso   1.00
H119   H     0.54828   0.58943   0.91058   0.00000  Uiso   1.00
H120   H     0.73861   0.70184   0.77836   0.00000  Uiso   1.00
H121   H     0.59918   0.05619   0.26443   0.00000  Uiso   1.00
H122   H     0.49042   0.37558   0.87841   0.00000  Uiso   1.00
H123   H     0.65335   0.36171   0.14121   0.00000  Uiso   1.00
H124   H     0.71591   0.34694   0.05352   0.00000  Uiso   1.00
H125   H     0.64980   0.51501   0.28404   0.00000  Uiso   1.00
H126   H     0.59822   0.19224   0.10098   0.00000  Uiso   1.00
H127   H     0.77914   0.37947   0.93290   0.00000  Uiso   1.00
H128   H     0.63972   0.73383   0.41896   0.00000  Uiso   1.00
H129   H     0.53096   0.05320   0.03295   0.00000  Uiso   1.00
O130   O     0.79919   0.53777   0.79470   0.00000  Uiso   1.00
O131   O     0.61626   0.00265   0.43240   0.00000  Uiso   1.00
O132   O     0.47357   0.10970   0.92596   0.00000  Uiso   1.00
N133   N     0.73956   0.62798   0.82676   0.00000  Uiso   1.00
N134   N     0.60921   0.95929   0.28119   0.00000  Uiso   1.00
N135   N     0.50752   0.32298   0.92032   0.00000  Uiso   1.00
N136   N     0.76137   0.45451   0.90991   0.00000  Uiso   1.00
N137   N     0.63102   0.78582   0.36435   0.00000  Uiso   1.00
N138   N     0.52933   0.14951   0.00348   0.00000  Uiso   1.00
C139   C     0.88315   0.84803   0.50206   0.00000  Uiso   1.00
C140   C     0.84400   0.89705   0.47406   0.00000  Uiso   1.00
C141   C     0.82324   0.84162   0.40421   0.00000  Uiso   1.00
C142   C     0.78800   0.90099   0.38932   0.00000  Uiso   1.00
C143   C     0.72933   0.96020   0.33779   0.00000  Uiso   1.00
C144   C     0.87992   0.80573   0.59931   0.00000  Uiso   1.00
C145   C     0.88936   0.67352   0.63476   0.00000  Uiso   1.00
C146   C     0.88437   0.65603   0.72531   0.00000  Uiso   1.00
C147   C     0.88149   0.57349   0.86824   0.00000  Uiso   1.00
C148   C     0.90794   0.98109   0.49984   0.00000  Uiso   1.00
C149   C     0.94095   0.99634   0.45168   0.00000  Uiso   1.00
C150   C     0.95955   0.12648   0.45850   0.00000  Uiso   1.00
C151   C     0.00018   0.31624   0.44699   0.00000  Uiso   1.00
C152   C     0.85750   0.05202   0.59986   0.00000  Uiso   1.00
C153   C     0.83007   0.00785   0.52718   0.00000  Uiso   1.00
C154   C     0.79486   0.06732   0.51240   0.00000  Uiso   1.00
C155   C     0.77404   0.01199   0.44253   0.00000  Uiso   1.00
C156   C     0.86599   0.91652   0.65243   0.00000  Uiso   1.00
C157   C     0.86098   0.89922   0.74295   0.00000  Uiso   1.00
C158   C     0.87041   0.76703   0.77853   0.00000  Uiso   1.00
C159   C     0.89401   0.09190   0.55296   0.00000  Uiso   1.00
C160   C     0.91257   0.22204   0.55987   0.00000  Uiso   1.00
C161   C     0.94560   0.23748   0.51172   0.00000  Uiso   1.00
H162   H     0.89400   0.76176   0.46072   0.00000  Uiso   1.00
H163   H     0.83403   0.75586   0.36312   0.00000  Uiso   1.00
H164   H     0.90015   0.58781   0.59364   0.00000  Uiso   1.00
H165   H     0.95172   0.91057   0.41058   0.00000  Uiso   1.00
H166   H     0.76139   0.79816   0.27836   0.00000  Uiso   1.00
H167   H     0.90082   0.44381   0.76443   0.00000  Uiso   1.00
H168   H     0.00958   0.12442   0.37841   0.00000  Uiso   1.00
H169   H     0.84665   0.13829   0.64121   0.00000  Uiso   1.00
H170   H     0.78409   0.15306   0.55352   0.00000  Uiso   1.00
H171   H     0.85020   0.98499   0.78404   0.00000  Uiso   1.00
H172   H     0.90178   0.30776   0.60098   0.00000  Uiso   1.00
H173   H     0.72086   0.12053   0.43290   0.00000  Uiso   1.00
H174   H     0.86028   0.76617   0.91896   0.00000  Uiso   1.00
H175   H     0.96904   0.44680   0.53295   0.00000  Uiso   1.00
O176   O     0.70081   0.96223   0.29470   0.00000  Uiso   1.00
O177   O     0.88374   0.49735   0.93240   0.00000  Uiso   1.00
O178   O     0.02643   0.39030   0.42596   0.00000  Uiso   1.00
N179   N     0.76044   0.87202   0.32676   0.00000  Uiso   1.00
N180   N     0.89079   0.54071   0.78119   0.00000  Uiso   1.00
N181   N     0.99248   0.17702   0.42032   0.00000  Uiso   1.00
N182   N     0.73863   0.04549   0.40991   0.00000  Uiso   1.00
N183   N     0.86898   0.71418   0.86435   0.00000  Uiso   1.00
N184   N     0.97067   0.35049   0.50348   0.00000  Uiso   1.00
C185   C     0.61685   0.34803   0.50206   0.00000  Uiso   1.00
C186   C     0.65600   0.39705   0.47406   0.00000  Uiso   1.00
C187   C     0.67676   0.34162   0.40421   0.00000  Uiso   1.00
C188   C     0.71200   0.40099   0.38932   0.00000  Uiso   1.00
C189   C     0.77067   0.46020   0.33779   0.00000  Uiso   1.00
C190   C     0.62008   0.30573   0.59931   0.00000  Uiso   1.00
C191   C     0.61064   0.17352   0.63476   0.00000  Uiso   1.00
C192   C     0.61563   0.15603   0.72531   0.00000  Uiso   1.00
C193   C     0.61851   0.07349   0.86824   0.00000  Uiso   1.00
C194   C     0.59206   0.48109   0.49984   0.00000  Uiso   1.00
C195   C     0.55905   0.49634   0.45168   0.00000  Uiso   1.00
C196   C     0.54045   0.62648   0.45850   0.00000  Uiso   1.00
C197   C     0.49982   0.81624   0.44699   0.00000  Uiso   1.00
C198   C     0.64250   0.55202   0.59986   0.00000  Uiso   1.00
C199   C     0.66993   0.50785   0.52718   0.00000  Uiso   1.00
C200   C     0.70514   0.56732   0.51240   0.00000  Uiso   1.00
C201   C     0.72596   0.51199   0.44253   0.00000  Uiso   1.00
C202   C     0.63401   0.41652   0.65243   0.00000  Uiso   1.00
C203   C     0.63902   0.39922   0.74295   0.00000  Uiso   1.00
C204   C     0.62959   0.26703   0.77853   0.00000  Uiso   1.00
C205   C     0.60599   0.59190   0.55296   0.00000  Uiso   1.00
C206   C     0.58743   0.72204   0.55987   0.00000  Uiso   1.00
C207   C     0.55440   0.73748   0.51172   0.00000  Uiso   1.00
H208   H     0.60600   0.26176   0.46072   0.00000  Uiso   1.00
H209   H     0.66597   0.25586   0.36312   0.00000  Uiso   1.00
H210   H     0.59985   0.08781   0.59364   0.00000  Uiso   1.00
H211   H     0.54828   0.41057   0.41058   0.00000  Uiso   1.00
H212   H     0.73861   0.29816   0.27836   0.00000  Uiso   1.00
H213   H     0.59918   0.94381   0.76443   0.00000  Uiso   1.00
H214   H     0.49042   0.62442   0.37841   0.00000  Uiso   1.00
H215   H     0.65335   0.63829   0.64121   0.00000  Uiso   1.00
H216   H     0.71591   0.65306   0.55352   0.00000  Uiso   1.00
H217   H     0.64980   0.48499   0.78404   0.00000  Uiso   1.00
H218   H     0.59822   0.80776   0.60098   0.00000  Uiso   1.00
H219   H     0.77914   0.62053   0.43290   0.00000  Uiso   1.00
H220   H     0.63972   0.26617   0.91896   0.00000  Uiso   1.00
H221   H     0.53096   0.94680   0.53295   0.00000  Uiso   1.00
O222   O     0.79919   0.46223   0.29470   0.00000  Uiso   1.00
O223   O     0.61626   0.99735   0.93240   0.00000  Uiso   1.00
O224   O     0.47357   0.89030   0.42596   0.00000  Uiso   1.00
N225   N     0.73956   0.37202   0.32676   0.00000  Uiso   1.00
N226   N     0.60921   0.04071   0.78119   0.00000  Uiso   1.00
N227   N     0.50752   0.67702   0.42032   0.00000  Uiso   1.00
N228   N     0.76137   0.54549   0.40991   0.00000  Uiso   1.00
N229   N     0.63102   0.21418   0.86435   0.00000  Uiso   1.00
N230   N     0.52933   0.85049   0.50348   0.00000  Uiso   1.00
C231   C     0.88315   0.15197   0.00206   0.00000  Uiso   1.00
C232   C     0.84400   0.10295   0.97406   0.00000  Uiso   1.00
C233   C     0.82324   0.15838   0.90421   0.00000  Uiso   1.00
C234   C     0.78800   0.09901   0.88932   0.00000  Uiso   1.00
C235   C     0.72933   0.03980   0.83779   0.00000  Uiso   1.00
C236   C     0.87992   0.19427   0.09931   0.00000  Uiso   1.00
C237   C     0.88936   0.32648   0.13476   0.00000  Uiso   1.00
C238   C     0.88437   0.34397   0.22531   0.00000  Uiso   1.00
C239   C     0.88149   0.42651   0.36824   0.00000  Uiso   1.00
C240   C     0.90794   0.01891   0.99984   0.00000  Uiso   1.00
C241   C     0.94095   0.00366   0.95168   0.00000  Uiso   1.00
C242   C     0.95955   0.87352   0.95850   0.00000  Uiso   1.00
C243   C     0.00018   0.68376   0.94699   0.00000  Uiso   1.00
C244   C     0.85750   0.94798   0.09986   0.00000  Uiso   1.00
C245   C     0.83007   0.99215   0.02718   0.00000  Uiso   1.00
C246   C     0.79486   0.93268   0.01240   0.00000  Uiso   1.00
C247   C     0.77404   0.98801   0.94253   0.00000  Uiso   1.00
C248   C     0.86599   0.08348   0.15243   0.00000  Uiso   1.00
C249   C     0.86098   0.10078   0.24295   0.00000  Uiso   1.00
C250   C     0.87041   0.23297   0.27853   0.00000  Uiso   1.00
C251   C     0.89401   0.90810   0.05296   0.00000  Uiso   1.00
C252   C     0.91257   0.77796   0.05987   0.00000  Uiso   1.00
C253   C     0.94560   0.76252   0.01172   0.00000  Uiso   1.00
H254   H     0.89400   0.23824   0.96072   0.00000  Uiso   1.00
H255   H     0.83403   0.24414   0.86312   0.00000  Uiso   1.00
H256   H     0.90015   0.41219   0.09364   0.00000  Uiso   1.00
H257   H     0.95172   0.08943   0.91058   0.00000  Uiso   1.00
H258   H     0.76139   0.20184   0.77836   0.00000  Uiso   1.00
H259   H     0.90082   0.55619   0.26443   0.00000  Uiso   1.00
H260   H     0.00958   0.87558   0.87841   0.00000  Uiso   1.00
H261   H     0.84665   0.86171   0.14121   0.00000  Uiso   1.00
H262   H     0.78409   0.84694   0.05352   0.00000  Uiso   1.00
H263   H     0.85020   0.01501   0.28404   0.00000  Uiso   1.00
H264   H     0.90178   0.69224   0.10098   0.00000  Uiso   1.00
H265   H     0.72086   0.87947   0.93290   0.00000  Uiso   1.00
H266   H     0.86028   0.23383   0.41896   0.00000  Uiso   1.00
H267   H     0.96904   0.55320   0.03295   0.00000  Uiso   1.00
O268   O     0.70081   0.03777   0.79470   0.00000  Uiso   1.00
O269   O     0.88374   0.50265   0.43240   0.00000  Uiso   1.00
O270   O     0.02643   0.60970   0.92596   0.00000  Uiso   1.00
N271   N     0.76044   0.12798   0.82676   0.00000  Uiso   1.00
N272   N     0.89079   0.45929   0.28119   0.00000  Uiso   1.00
N273   N     0.99248   0.82298   0.92032   0.00000  Uiso   1.00
N274   N     0.73863   0.95451   0.90991   0.00000  Uiso   1.00
N275   N     0.86898   0.28582   0.36435   0.00000  Uiso   1.00
N276   N     0.97067   0.64951   0.00348   0.00000  Uiso   1.00
C277   C     0.38315   0.34803   0.99794   0.00000  Uiso   1.00
C278   C     0.34400   0.39705   0.02594   0.00000  Uiso   1.00
C279   C     0.32324   0.34162   0.09579   0.00000  Uiso   1.00
C280   C     0.28800   0.40099   0.11068   0.00000  Uiso   1.00
C281   C     0.22933   0.46020   0.16221   0.00000  Uiso   1.00
C282   C     0.37992   0.30573   0.90069   0.00000  Uiso   1.00
C283   C     0.38936   0.17352   0.86524   0.00000  Uiso   1.00
C284   C     0.38437   0.15603   0.77469   0.00000  Uiso   1.00
C285   C     0.38149   0.07349   0.63176   0.00000  Uiso   1.00
C286   C     0.40794   0.48109   0.00016   0.00000  Uiso   1.00
C287   C     0.44095   0.49634   0.04832   0.00000  Uiso   1.00
C288   C     0.45955   0.62648   0.04150   0.00000  Uiso   1.00
C289   C     0.50018   0.81624   0.05301   0.00000  Uiso   1.00
C290   C     0.35750   0.55202   0.90014   0.00000  Uiso   1.00
C291   C     0.33007   0.50785   0.97282   0.00000  Uiso   1.00
C292   C     0.29486   0.56732   0.98760   0.00000  Uiso   1.00
C293   C     0.27404   0.51199   0.05747   0.00000  Uiso   1.00
C294   C     0.36599   0.41652   0.84757   0.00000  Uiso   1.00
C295   C     0.36098   0.39922   0.75705   0.00000  Uiso   1.00
C296   C     0.37041   0.26703   0.72147   0.00000  Uiso   1.00
C297   C     0.39401   0.59190   0.94704   0.00000  Uiso   1.00
C298   C     0.41257   0.72204   0.94013   0.00000  Uiso   1.00
C299   C     0.44560   0.73748   0.98828   0.00000  Uiso   1.00
H300   H     0.39400   0.26176   0.03928   0.00000  Uiso   1.00
H301   H     0.33403   0.25586   0.13688   0.00000  Uiso   1.00
H302   H     0.40015   0.08781   0.90636   0.00000  Uiso   1.00
H303   H     0.45172   0.41057   0.08942   0.00000  Uiso   1.00
H304   H     0.26139   0.29816   0.22164   0.00000  Uiso   1.00
H305   H     0.40082   0.94381   0.73557   0.00000  Uiso   1.00
H306   H     0.50958   0.62442   0.12159   0.00000  Uiso   1.00
H307   H     0.34665   0.63829   0.85879   0.00000  Uiso   1.00
H308   H     0.28409   0.65306   0.94648   0.00000  Uiso   1.00
H309   H     0.35020   0.48499   0.71596   0.00000  Uiso   1.00
H310   H     0.40178   0.80776   0.89902   0.00000  Uiso   1.00
H311   H     0.22086   0.62053   0.06710   0.00000  Uiso   1.00
H312   H     0.36028   0.26617   0.58104   0.00000  Uiso   1.00
H313   H     0.46904   0.94680   0.96705   0.00000  Uiso   1.00
O314   O     0.20081   0.46223   0.20530   0.00000  Uiso   1.00
O315   O     0.38374   0.99735   0.56760   0.00000  Uiso   1.00
O316   O     0.52643   0.89030   0.07404   0.00000  Uiso   1.00
N317   N     0.26044   0.37202   0.17324   0.00000  Uiso   1.00
N318   N     0.39079   0.04071   0.71881   0.00000  Uiso   1.00
N319   N     0.49248   0.67702   0.07968   0.00000  Uiso   1.00
N320   N     0.23863   0.54549   0.09009   0.00000  Uiso   1.00
N321   N     0.36898   0.21418   0.63565   0.00000  Uiso   1.00
N322   N     0.47067   0.85049   0.99652   0.00000  Uiso   1.00
C323   C     0.11685   0.15197   0.49794   0.00000  Uiso   1.00
C324   C     0.15600   0.10295   0.52594   0.00000  Uiso   1.00
C325   C     0.17676   0.15838   0.59579   0.00000  Uiso   1.00
C326   C     0.21200   0.09901   0.61068   0.00000  Uiso   1.00
C327   C     0.27067   0.03980   0.66221   0.00000  Uiso   1.00
C328   C     0.12008   0.19427   0.40069   0.00000  Uiso   1.00
C329   C     0.11064   0.32648   0.36524   0.00000  Uiso   1.00
C330   C     0.11563   0.34397   0.27469   0.00000  Uiso   1.00
C331   C     0.11851   0.42651   0.13176   0.00000  Uiso   1.00
C332   C     0.09206   0.01891   0.50016   0.00000  Uiso   1.00
C333   C     0.05905   0.00366   0.54832   0.00000  Uiso   1.00
C334   C     0.04045   0.87352   0.54150   0.00000  Uiso   1.00
C335   C     0.99982   0.68376   0.55301   0.00000  Uiso   1.00
C336   C     0.14250   0.94798   0.40014   0.00000  Uiso   1.00
C337   C     0.16993   0.99215   0.47282   0.00000  Uiso   1.00
C338   C     0.20514   0.93268   0.48760   0.00000  Uiso   1.00
C339   C     0.22596   0.98801   0.55747   0.00000  Uiso   1.00
C340   C     0.13401   0.08348   0.34757   0.00000  Uiso   1.00
C341   C     0.13902   0.10078   0.25705   0.00000  Uiso   1.00
C342   C     0.12959   0.23297   0.22147   0.00000  Uiso   1.00
C343   C     0.10599   0.90810   0.44704   0.00000  Uiso   1.00
C344   C     0.08743   0.77796   0.44013   0.00000  Uiso   1.00
C345   C     0.05440   0.76252   0.48828   0.00000  Uiso   1.00
H346   H     0.10600   0.23824   0.53928   0.00000  Uiso   1.00
H347   H     0.16597   0.24414   0.63688   0.00000  Uiso   1.00
H348   H     0.09985   0.41219   0.40636   0.00000  Uiso   1.00
H349   H     0.04828   0.08943   0.58942   0.00000  Uiso   1.00
H350   H     0.23861   0.20184   0.72164   0.00000  Uiso   1.00
H351   H     0.09918   0.55619   0.23557   0.00000  Uiso   1.00
H352   H     0.99042   0.87558   0.62159   0.00000  Uiso   1.00
H353   H     0.15335   0.86171   0.35879   0.00000  Uiso   1.00
H354   H     0.21591   0.84694   0.44648   0.00000  Uiso   1.00
H355   H     0.14980   0.01501   0.21596   0.00000  Uiso   1.00
H356   H     0.09822   0.69224   0.39902   0.00000  Uiso   1.00
H357   H     0.27914   0.87947   0.56710   0.00000  Uiso   1.00
H358   H     0.13972   0.23383   0.08104   0.00000  Uiso   1.00
H359   H     0.03096   0.55320   0.46705   0.00000  Uiso   1.00
O360   O     0.29919   0.03777   0.70530   0.00000  Uiso   1.00
O361   O     0.11626   0.50265   0.06760   0.00000  Uiso   1.00
O362   O     0.97357   0.60970   0.57404   0.00000  Uiso   1.00
N363   N     0.23956   0.12798   0.67324   0.00000  Uiso   1.00
N364   N     0.10921   0.45929   0.21881   0.00000  Uiso   1.00
N365   N     0.00752   0.82298   0.57968   0.00000  Uiso   1.00
N366   N     0.26137   0.95451   0.59009   0.00000  Uiso   1.00
N367   N     0.13102   0.28582   0.13565   0.00000  Uiso   1.00
N368   N     0.02933   0.64951   0.49652   0.00000  Uiso   1.00
