data_job_00947
_audit_creation_date              2018-12-19
_audit_creation_method            'Materials Studio'
_symmetry_space_group_name_H-M    'P1'
_symmetry_Int_Tables_number       1
_symmetry_cell_setting            triclinic
loop_
_symmetry_equiv_pos_as_xyz
  x,y,z
_cell_length_a                    10.9839
_cell_length_b                    10.9839
_cell_length_c                    18.3187
_cell_angle_alpha                 90.0000
_cell_angle_beta                  90.0000
_cell_angle_gamma                 90.0000
loop_
_atom_site_label
_atom_site_type_symbol
_atom_site_fract_x
_atom_site_fract_y
_atom_site_fract_z
_atom_site_U_iso_or_equiv
_atom_site_adp_type
_atom_site_occupancy
C1     C     0.35418   0.87827   0.72679   0.00000  Uiso   1.00
C2     C     0.30776   0.93782   0.65693   0.00000  Uiso   1.00
C3     C     0.18705   0.94365   0.63483   0.00000  Uiso   1.00
C4     C     0.16328   0.00205   0.56915   0.00000  Uiso   1.00
C5     C     0.07696   0.08675   0.46705   0.00000  Uiso   1.00
C6     C     0.44827   0.78427   0.70290   0.00000  Uiso   1.00
C7     C     0.44570   0.66100   0.71946   0.00000  Uiso   1.00
C8     C     0.54022   0.59016   0.69248   0.00000  Uiso   1.00
C9     C     0.67209   0.43649   0.66180   0.00000  Uiso   1.00
C10    C     0.42470   0.97669   0.76752   0.00000  Uiso   1.00
C11    C     0.40234   0.01520   0.83842   0.00000  Uiso   1.00
C12    C     0.47704   0.10634   0.86584   0.00000  Uiso   1.00
C13    C     0.57230   0.25143   0.93549   0.00000  Uiso   1.00
C14    C     0.52663   0.97164   0.64943   0.00000  Uiso   1.00
C15    C     0.40143   0.98853   0.61491   0.00000  Uiso   1.00
C16    C     0.37784   0.04695   0.54925   0.00000  Uiso   1.00
C17    C     0.25711   0.05287   0.52706   0.00000  Uiso   1.00
C18    C     0.54193   0.83499   0.66088   0.00000  Uiso   1.00
C19    C     0.63649   0.76431   0.63388   0.00000  Uiso   1.00
C20    C     0.63406   0.64097   0.65039   0.00000  Uiso   1.00
C21    C     0.51836   0.02741   0.72550   0.00000  Uiso   1.00
C22    C     0.59312   0.11851   0.75282   0.00000  Uiso   1.00
C23    C     0.57087   0.15714   0.82375   0.00000  Uiso   1.00
H24    H     0.28127   0.83878   0.75950   0.00000  Uiso   1.00
H25    H     0.11459   0.90438   0.66736   0.00000  Uiso   1.00
H26    H     0.37321   0.62179   0.75199   0.00000  Uiso   1.00
H27    H     0.32985   0.97593   0.87092   0.00000  Uiso   1.00
H28    H     0.97111   0.99943   0.54667   0.00000  Uiso   1.00
H29    H     0.51644   0.40358   0.72512   0.00000  Uiso   1.00
H30    H     0.42501   0.15035   0.97591   0.00000  Uiso   1.00
H31    H     0.59955   0.01113   0.61672   0.00000  Uiso   1.00
H32    H     0.45034   0.08619   0.51674   0.00000  Uiso   1.00
H33    H     0.70896   0.80359   0.60137   0.00000  Uiso   1.00
H34    H     0.66559   0.15773   0.72029   0.00000  Uiso   1.00
H35    H     0.24362   0.14699   0.42442   0.00000  Uiso   1.00
H36    H     0.78895   0.55113   0.60287   0.00000  Uiso   1.00
H37    H     0.69751   0.29791   0.85366   0.00000  Uiso   1.00
O38    O     0.00347   0.11944   0.42234   0.00000  Uiso   1.00
O39    O     0.71893   0.33771   0.65648   0.00000  Uiso   1.00
O40    O     0.59896   0.31746   0.98550   0.00000  Uiso   1.00
N41    N     0.05572   0.02388   0.53162   0.00000  Uiso   1.00
N42    N     0.56556   0.46679   0.69846   0.00000  Uiso   1.00
N43    N     0.48010   0.16493   0.93293   0.00000  Uiso   1.00
N44    N     0.20236   0.10328   0.46584   0.00000  Uiso   1.00
N45    N     0.71220   0.54619   0.63268   0.00000  Uiso   1.00
N46    N     0.62673   0.24434   0.86715   0.00000  Uiso   1.00
C47    C     0.64582   0.12173   0.22679   0.00000  Uiso   1.00
C48    C     0.69224   0.06218   0.15693   0.00000  Uiso   1.00
C49    C     0.81295   0.05635   0.13483   0.00000  Uiso   1.00
C50    C     0.83672   0.99795   0.06915   0.00000  Uiso   1.00
C51    C     0.92304   0.91325   0.96705   0.00000  Uiso   1.00
C52    C     0.55173   0.21573   0.20290   0.00000  Uiso   1.00
C53    C     0.55430   0.33900   0.21946   0.00000  Uiso   1.00
C54    C     0.45978   0.40984   0.19248   0.00000  Uiso   1.00
C55    C     0.32791   0.56351   0.16180   0.00000  Uiso   1.00
C56    C     0.57530   0.02331   0.26752   0.00000  Uiso   1.00
C57    C     0.59766   0.98480   0.33842   0.00000  Uiso   1.00
C58    C     0.52296   0.89366   0.36584   0.00000  Uiso   1.00
C59    C     0.42770   0.74857   0.43549   0.00000  Uiso   1.00
C60    C     0.47337   0.02836   0.14943   0.00000  Uiso   1.00
C61    C     0.59857   0.01147   0.11491   0.00000  Uiso   1.00
C62    C     0.62216   0.95305   0.04925   0.00000  Uiso   1.00
C63    C     0.74289   0.94713   0.02706   0.00000  Uiso   1.00
C64    C     0.45807   0.16501   0.16088   0.00000  Uiso   1.00
C65    C     0.36351   0.23569   0.13388   0.00000  Uiso   1.00
C66    C     0.36594   0.35903   0.15039   0.00000  Uiso   1.00
C67    C     0.48164   0.97259   0.22550   0.00000  Uiso   1.00
C68    C     0.40688   0.88149   0.25282   0.00000  Uiso   1.00
C69    C     0.42913   0.84286   0.32375   0.00000  Uiso   1.00
H70    H     0.71873   0.16122   0.25950   0.00000  Uiso   1.00
H71    H     0.88541   0.09562   0.16736   0.00000  Uiso   1.00
H72    H     0.62679   0.37821   0.25199   0.00000  Uiso   1.00
H73    H     0.67015   0.02407   0.37092   0.00000  Uiso   1.00
H74    H     0.02889   0.00057   0.04667   0.00000  Uiso   1.00
H75    H     0.48356   0.59642   0.22512   0.00000  Uiso   1.00
H76    H     0.57499   0.84965   0.47591   0.00000  Uiso   1.00
H77    H     0.40045   0.98887   0.11672   0.00000  Uiso   1.00
H78    H     0.54966   0.91381   0.01674   0.00000  Uiso   1.00
H79    H     0.29104   0.19641   0.10137   0.00000  Uiso   1.00
H80    H     0.33441   0.84227   0.22029   0.00000  Uiso   1.00
H81    H     0.75638   0.85301   0.92442   0.00000  Uiso   1.00
H82    H     0.21105   0.44887   0.10287   0.00000  Uiso   1.00
H83    H     0.30249   0.70209   0.35366   0.00000  Uiso   1.00
O84    O     0.99653   0.88056   0.92234   0.00000  Uiso   1.00
O85    O     0.28107   0.66229   0.15648   0.00000  Uiso   1.00
O86    O     0.40104   0.68254   0.48550   0.00000  Uiso   1.00
N87    N     0.94428   0.97612   0.03162   0.00000  Uiso   1.00
N88    N     0.43444   0.53321   0.19846   0.00000  Uiso   1.00
N89    N     0.51990   0.83507   0.43293   0.00000  Uiso   1.00
N90    N     0.79764   0.89672   0.96584   0.00000  Uiso   1.00
N91    N     0.28780   0.45381   0.13268   0.00000  Uiso   1.00
N92    N     0.37327   0.75566   0.36715   0.00000  Uiso   1.00
C93    C     0.12173   0.35418   0.97679   0.00000  Uiso   1.00
C94    C     0.06218   0.30776   0.90693   0.00000  Uiso   1.00
C95    C     0.05635   0.18705   0.88483   0.00000  Uiso   1.00
C96    C     0.99795   0.16328   0.81915   0.00000  Uiso   1.00
C97    C     0.91325   0.07696   0.71705   0.00000  Uiso   1.00
C98    C     0.21573   0.44827   0.95290   0.00000  Uiso   1.00
C99    C     0.33900   0.44570   0.96946   0.00000  Uiso   1.00
C100   C     0.40984   0.54022   0.94248   0.00000  Uiso   1.00
C101   C     0.56351   0.67209   0.91180   0.00000  Uiso   1.00
C102   C     0.02331   0.42470   0.01752   0.00000  Uiso   1.00
C103   C     0.98480   0.40234   0.08842   0.00000  Uiso   1.00
C104   C     0.89366   0.47704   0.11584   0.00000  Uiso   1.00
C105   C     0.74857   0.57230   0.18549   0.00000  Uiso   1.00
C106   C     0.02836   0.52663   0.89943   0.00000  Uiso   1.00
C107   C     0.01147   0.40143   0.86491   0.00000  Uiso   1.00
C108   C     0.95305   0.37784   0.79925   0.00000  Uiso   1.00
C109   C     0.94713   0.25711   0.77706   0.00000  Uiso   1.00
C110   C     0.16501   0.54193   0.91088   0.00000  Uiso   1.00
C111   C     0.23569   0.63649   0.88388   0.00000  Uiso   1.00
C112   C     0.35903   0.63406   0.90039   0.00000  Uiso   1.00
C113   C     0.97259   0.51836   0.97550   0.00000  Uiso   1.00
C114   C     0.88149   0.59312   0.00282   0.00000  Uiso   1.00
C115   C     0.84286   0.57087   0.07375   0.00000  Uiso   1.00
H116   H     0.16122   0.28127   0.00950   0.00000  Uiso   1.00
H117   H     0.09562   0.11459   0.91736   0.00000  Uiso   1.00
H118   H     0.37821   0.37321   0.00199   0.00000  Uiso   1.00
H119   H     0.02407   0.32985   0.12092   0.00000  Uiso   1.00
H120   H     0.00057   0.97111   0.79667   0.00000  Uiso   1.00
H121   H     0.59642   0.51644   0.97512   0.00000  Uiso   1.00
H122   H     0.84965   0.42501   0.22591   0.00000  Uiso   1.00
H123   H     0.98887   0.59955   0.86672   0.00000  Uiso   1.00
H124   H     0.91381   0.45034   0.76674   0.00000  Uiso   1.00
H125   H     0.19641   0.70896   0.85137   0.00000  Uiso   1.00
H126   H     0.84227   0.66559   0.97029   0.00000  Uiso   1.00
H127   H     0.85301   0.24362   0.67442   0.00000  Uiso   1.00
H128   H     0.44887   0.78895   0.85287   0.00000  Uiso   1.00
H129   H     0.70209   0.69751   0.10366   0.00000  Uiso   1.00
O130   O     0.88056   0.00347   0.67234   0.00000  Uiso   1.00
O131   O     0.66229   0.71893   0.90648   0.00000  Uiso   1.00
O132   O     0.68254   0.59896   0.23550   0.00000  Uiso   1.00
N133   N     0.97612   0.05572   0.78162   0.00000  Uiso   1.00
N134   N     0.53321   0.56556   0.94846   0.00000  Uiso   1.00
N135   N     0.83507   0.48010   0.18293   0.00000  Uiso   1.00
N136   N     0.89672   0.20236   0.71584   0.00000  Uiso   1.00
N137   N     0.45381   0.71220   0.88268   0.00000  Uiso   1.00
N138   N     0.75566   0.62673   0.11715   0.00000  Uiso   1.00
C139   C     0.87827   0.64582   0.47679   0.00000  Uiso   1.00
C140   C     0.93782   0.69224   0.40693   0.00000  Uiso   1.00
C141   C     0.94365   0.81295   0.38483   0.00000  Uiso   1.00
C142   C     0.00205   0.83672   0.31915   0.00000  Uiso   1.00
C143   C     0.08675   0.92304   0.21705   0.00000  Uiso   1.00
C144   C     0.78427   0.55173   0.45290   0.00000  Uiso   1.00
C145   C     0.66100   0.55430   0.46946   0.00000  Uiso   1.00
C146   C     0.59016   0.45978   0.44248   0.00000  Uiso   1.00
C147   C     0.43649   0.32791   0.41180   0.00000  Uiso   1.00
C148   C     0.97669   0.57530   0.51752   0.00000  Uiso   1.00
C149   C     0.01520   0.59766   0.58842   0.00000  Uiso   1.00
C150   C     0.10634   0.52296   0.61584   0.00000  Uiso   1.00
C151   C     0.25143   0.42770   0.68549   0.00000  Uiso   1.00
C152   C     0.97164   0.47337   0.39943   0.00000  Uiso   1.00
C153   C     0.98853   0.59857   0.36491   0.00000  Uiso   1.00
C154   C     0.04695   0.62216   0.29925   0.00000  Uiso   1.00
C155   C     0.05287   0.74289   0.27706   0.00000  Uiso   1.00
C156   C     0.83499   0.45807   0.41088   0.00000  Uiso   1.00
C157   C     0.76431   0.36351   0.38388   0.00000  Uiso   1.00
C158   C     0.64097   0.36594   0.40039   0.00000  Uiso   1.00
C159   C     0.02741   0.48164   0.47550   0.00000  Uiso   1.00
C160   C     0.11851   0.40688   0.50282   0.00000  Uiso   1.00
C161   C     0.15714   0.42913   0.57375   0.00000  Uiso   1.00
H162   H     0.83878   0.71873   0.50950   0.00000  Uiso   1.00
H163   H     0.90438   0.88541   0.41736   0.00000  Uiso   1.00
H164   H     0.62179   0.62679   0.50199   0.00000  Uiso   1.00
H165   H     0.97593   0.67015   0.62092   0.00000  Uiso   1.00
H166   H     0.99943   0.02889   0.29667   0.00000  Uiso   1.00
H167   H     0.40358   0.48356   0.47512   0.00000  Uiso   1.00
H168   H     0.15035   0.57499   0.72591   0.00000  Uiso   1.00
H169   H     0.01113   0.40045   0.36672   0.00000  Uiso   1.00
H170   H     0.08619   0.54966   0.26674   0.00000  Uiso   1.00
H171   H     0.80359   0.29104   0.35137   0.00000  Uiso   1.00
H172   H     0.15773   0.33441   0.47029   0.00000  Uiso   1.00
H173   H     0.14699   0.75638   0.17442   0.00000  Uiso   1.00
H174   H     0.55113   0.21105   0.35287   0.00000  Uiso   1.00
H175   H     0.29791   0.30249   0.60366   0.00000  Uiso   1.00
O176   O     0.11944   0.99653   0.17234   0.00000  Uiso   1.00
O177   O     0.33771   0.28107   0.40648   0.00000  Uiso   1.00
O178   O     0.31746   0.40104   0.73550   0.00000  Uiso   1.00
N179   N     0.02388   0.94428   0.28162   0.00000  Uiso   1.00
N180   N     0.46679   0.43444   0.44846   0.00000  Uiso   1.00
N181   N     0.16493   0.51990   0.68293   0.00000  Uiso   1.00
N182   N     0.10328   0.79764   0.21584   0.00000  Uiso   1.00
N183   N     0.54619   0.28780   0.38268   0.00000  Uiso   1.00
N184   N     0.24434   0.37327   0.61715   0.00000  Uiso   1.00
