data_job_04534
_audit_creation_date              2018-12-19
_audit_creation_method            'Materials Studio'
_symmetry_space_group_name_H-M    'P1'
_symmetry_Int_Tables_number       1
_symmetry_cell_setting            triclinic
loop_
_symmetry_equiv_pos_as_xyz
  x,y,z
_cell_length_a                    23.7075
_cell_length_b                    10.4146
_cell_length_c                    35.0146
_cell_angle_alpha                 90.0000
_cell_angle_beta                  31.7109
_cell_angle_gamma                 90.0000
loop_
_atom_site_label
_atom_site_type_symbol
_atom_site_fract_x
_atom_site_fract_y
_atom_site_fract_z
_atom_site_U_iso_or_equiv
_atom_site_adp_type
_atom_site_occupancy
C1     C     0.67186   0.71439   0.14499   0.00000  Uiso   1.00
C2     C     0.67609   0.68559   0.18523   0.00000  Uiso   1.00
C3     C     0.60110   0.61466   0.24875   0.00000  Uiso   1.00
C4     C     0.61937   0.59919   0.27707   0.00000  Uiso   1.00
C5     C     0.61221   0.54638   0.34475   0.00000  Uiso   1.00
C6     C     0.67588   0.86023   0.13905   0.00000  Uiso   1.00
C7     C     0.60071   0.93612   0.16375   0.00000  Uiso   1.00
C8     C     0.61882   0.06766   0.15319   0.00000  Uiso   1.00
C9     C     0.61137   0.28596   0.14914   0.00000  Uiso   1.00
C10    C     0.77724   0.66499   0.06774   0.00000  Uiso   1.00
C11    C     0.78731   0.57674   0.03246   0.00000  Uiso   1.00
C12    C     0.89076   0.54393   0.96184   0.00000  Uiso   1.00
C13    C     0.04070   0.45909   0.84705   0.00000  Uiso   1.00
C14    C     0.83768   0.81307   0.08231   0.00000  Uiso   1.00
C15    C     0.76616   0.73920   0.15118   0.00000  Uiso   1.00
C16    C     0.78456   0.72383   0.17940   0.00000  Uiso   1.00
C17    C     0.70960   0.65288   0.24296   0.00000  Uiso   1.00
C18    C     0.76594   0.91383   0.10501   0.00000  Uiso   1.00
C19    C     0.78417   0.04529   0.09440   0.00000  Uiso   1.00
C20    C     0.70905   0.12136   0.11908   0.00000  Uiso   1.00
C21    C     0.86731   0.71859   0.03369   0.00000  Uiso   1.00
C22    C     0.97077   0.68591   0.96311   0.00000  Uiso   1.00
C23    C     0.98099   0.59763   0.92773   0.00000  Uiso   1.00
H24    H     0.60174   0.67267   0.17149   0.00000  Uiso   1.00
H25    H     0.53140   0.57320   0.27509   0.00000  Uiso   1.00
H26    H     0.53102   0.89461   0.19009   0.00000  Uiso   1.00
H27    H     0.71759   0.53529   0.05882   0.00000  Uiso   1.00
H28    H     0.49311   0.48660   0.37494   0.00000  Uiso   1.00
H29    H     0.49234   0.16430   0.19570   0.00000  Uiso   1.00
H30    H     0.88576   0.40660   0.91888   0.00000  Uiso   1.00
H31    H     0.90781   0.85480   0.05580   0.00000  Uiso   1.00
H32    H     0.85426   0.76532   0.15305   0.00000  Uiso   1.00
H33    H     0.85388   0.08673   0.06805   0.00000  Uiso   1.00
H34    H     0.04045   0.72741   0.93678   0.00000  Uiso   1.00
H35    H     0.75516   0.64253   0.27589   0.00000  Uiso   1.00
H36    H     0.75438   0.32024   0.09665   0.00000  Uiso   1.00
H37    H     0.14780   0.56253   0.81983   0.00000  Uiso   1.00
O38    O     0.58337   0.50245   0.39149   0.00000  Uiso   1.00
O39    O     0.58237   0.39156   0.15632   0.00000  Uiso   1.00
O40    O     0.09852   0.39748   0.79315   0.00000  Uiso   1.00
N41    N     0.56214   0.53556   0.33827   0.00000  Uiso   1.00
N42    N     0.56141   0.16917   0.17071   0.00000  Uiso   1.00
N43    N     0.92922   0.46081   0.91190   0.00000  Uiso   1.00
N44    N     0.70315   0.61946   0.28498   0.00000  Uiso   1.00
N45    N     0.70242   0.25307   0.11741   0.00000  Uiso   1.00
N46    N     0.07023   0.54471   0.85860   0.00000  Uiso   1.00
C47    C     0.17186   0.21439   0.14499   0.00000  Uiso   1.00
C48    C     0.17609   0.18559   0.18523   0.00000  Uiso   1.00
C49    C     0.10110   0.11466   0.24875   0.00000  Uiso   1.00
C50    C     0.11937   0.09919   0.27707   0.00000  Uiso   1.00
C51    C     0.11221   0.04638   0.34475   0.00000  Uiso   1.00
C52    C     0.17588   0.36023   0.13905   0.00000  Uiso   1.00
C53    C     0.10071   0.43612   0.16375   0.00000  Uiso   1.00
C54    C     0.11882   0.56766   0.15319   0.00000  Uiso   1.00
C55    C     0.11137   0.78596   0.14914   0.00000  Uiso   1.00
C56    C     0.27724   0.16499   0.06774   0.00000  Uiso   1.00
C57    C     0.28731   0.07674   0.03246   0.00000  Uiso   1.00
C58    C     0.39076   0.04393   0.96184   0.00000  Uiso   1.00
C59    C     0.54070   0.95909   0.84705   0.00000  Uiso   1.00
C60    C     0.33768   0.31307   0.08231   0.00000  Uiso   1.00
C61    C     0.26616   0.23920   0.15118   0.00000  Uiso   1.00
C62    C     0.28456   0.22383   0.17940   0.00000  Uiso   1.00
C63    C     0.20960   0.15288   0.24296   0.00000  Uiso   1.00
C64    C     0.26594   0.41383   0.10501   0.00000  Uiso   1.00
C65    C     0.28417   0.54529   0.09440   0.00000  Uiso   1.00
C66    C     0.20905   0.62136   0.11908   0.00000  Uiso   1.00
C67    C     0.36731   0.21859   0.03369   0.00000  Uiso   1.00
C68    C     0.47077   0.18591   0.96311   0.00000  Uiso   1.00
C69    C     0.48099   0.09763   0.92773   0.00000  Uiso   1.00
H70    H     0.10174   0.17267   0.17149   0.00000  Uiso   1.00
H71    H     0.03140   0.07320   0.27509   0.00000  Uiso   1.00
H72    H     0.03102   0.39461   0.19009   0.00000  Uiso   1.00
H73    H     0.21759   0.03529   0.05882   0.00000  Uiso   1.00
H74    H     0.99311   0.98660   0.37494   0.00000  Uiso   1.00
H75    H     0.99234   0.66430   0.19570   0.00000  Uiso   1.00
H76    H     0.38576   0.90660   0.91888   0.00000  Uiso   1.00
H77    H     0.40781   0.35480   0.05580   0.00000  Uiso   1.00
H78    H     0.35426   0.26532   0.15305   0.00000  Uiso   1.00
H79    H     0.35388   0.58673   0.06805   0.00000  Uiso   1.00
H80    H     0.54045   0.22741   0.93678   0.00000  Uiso   1.00
H81    H     0.25516   0.14253   0.27589   0.00000  Uiso   1.00
H82    H     0.25438   0.82024   0.09665   0.00000  Uiso   1.00
H83    H     0.64780   0.06253   0.81983   0.00000  Uiso   1.00
O84    O     0.08337   0.00245   0.39149   0.00000  Uiso   1.00
O85    O     0.08237   0.89156   0.15632   0.00000  Uiso   1.00
O86    O     0.59852   0.89748   0.79315   0.00000  Uiso   1.00
N87    N     0.06214   0.03556   0.33827   0.00000  Uiso   1.00
N88    N     0.06141   0.66917   0.17071   0.00000  Uiso   1.00
N89    N     0.42922   0.96081   0.91190   0.00000  Uiso   1.00
N90    N     0.20315   0.11946   0.28498   0.00000  Uiso   1.00
N91    N     0.20242   0.75307   0.11741   0.00000  Uiso   1.00
N92    N     0.57023   0.04471   0.85860   0.00000  Uiso   1.00
C93    C     0.32814   0.71439   0.35501   0.00000  Uiso   1.00
C94    C     0.32391   0.68559   0.31477   0.00000  Uiso   1.00
C95    C     0.39890   0.61466   0.25125   0.00000  Uiso   1.00
C96    C     0.38063   0.59919   0.22293   0.00000  Uiso   1.00
C97    C     0.38779   0.54638   0.15525   0.00000  Uiso   1.00
C98    C     0.32412   0.86023   0.36095   0.00000  Uiso   1.00
C99    C     0.39929   0.93612   0.33625   0.00000  Uiso   1.00
C100   C     0.38118   0.06766   0.34681   0.00000  Uiso   1.00
C101   C     0.38863   0.28596   0.35086   0.00000  Uiso   1.00
C102   C     0.22276   0.66499   0.43226   0.00000  Uiso   1.00
C103   C     0.21269   0.57674   0.46754   0.00000  Uiso   1.00
C104   C     0.10924   0.54393   0.53816   0.00000  Uiso   1.00
C105   C     0.95930   0.45909   0.65295   0.00000  Uiso   1.00
C106   C     0.16232   0.81307   0.41769   0.00000  Uiso   1.00
C107   C     0.23384   0.73920   0.34882   0.00000  Uiso   1.00
C108   C     0.21544   0.72383   0.32060   0.00000  Uiso   1.00
C109   C     0.29040   0.65288   0.25704   0.00000  Uiso   1.00
C110   C     0.23406   0.91383   0.39499   0.00000  Uiso   1.00
C111   C     0.21583   0.04529   0.40560   0.00000  Uiso   1.00
C112   C     0.29095   0.12136   0.38092   0.00000  Uiso   1.00
C113   C     0.13269   0.71859   0.46631   0.00000  Uiso   1.00
C114   C     0.02923   0.68591   0.53689   0.00000  Uiso   1.00
C115   C     0.01901   0.59763   0.57227   0.00000  Uiso   1.00
H116   H     0.39826   0.67267   0.32851   0.00000  Uiso   1.00
H117   H     0.46860   0.57320   0.22491   0.00000  Uiso   1.00
H118   H     0.46898   0.89461   0.30991   0.00000  Uiso   1.00
H119   H     0.28241   0.53529   0.44118   0.00000  Uiso   1.00
H120   H     0.50689   0.48660   0.12506   0.00000  Uiso   1.00
H121   H     0.50766   0.16430   0.30430   0.00000  Uiso   1.00
H122   H     0.11424   0.40660   0.58112   0.00000  Uiso   1.00
H123   H     0.09219   0.85480   0.44420   0.00000  Uiso   1.00
H124   H     0.14574   0.76532   0.34695   0.00000  Uiso   1.00
H125   H     0.14612   0.08673   0.43195   0.00000  Uiso   1.00
H126   H     0.95955   0.72741   0.56322   0.00000  Uiso   1.00
H127   H     0.24484   0.64253   0.22411   0.00000  Uiso   1.00
H128   H     0.24562   0.32024   0.40335   0.00000  Uiso   1.00
H129   H     0.85220   0.56253   0.68017   0.00000  Uiso   1.00
O130   O     0.41663   0.50245   0.10851   0.00000  Uiso   1.00
O131   O     0.41763   0.39156   0.34368   0.00000  Uiso   1.00
O132   O     0.90148   0.39748   0.70685   0.00000  Uiso   1.00
N133   N     0.43786   0.53556   0.16173   0.00000  Uiso   1.00
N134   N     0.43859   0.16917   0.32929   0.00000  Uiso   1.00
N135   N     0.07078   0.46081   0.58810   0.00000  Uiso   1.00
N136   N     0.29685   0.61946   0.21502   0.00000  Uiso   1.00
N137   N     0.29758   0.25307   0.38259   0.00000  Uiso   1.00
N138   N     0.92977   0.54471   0.64140   0.00000  Uiso   1.00
C139   C     0.82814   0.21439   0.35501   0.00000  Uiso   1.00
C140   C     0.82391   0.18559   0.31477   0.00000  Uiso   1.00
C141   C     0.89890   0.11466   0.25125   0.00000  Uiso   1.00
C142   C     0.88063   0.09919   0.22293   0.00000  Uiso   1.00
C143   C     0.88779   0.04638   0.15525   0.00000  Uiso   1.00
C144   C     0.82412   0.36023   0.36095   0.00000  Uiso   1.00
C145   C     0.89929   0.43612   0.33625   0.00000  Uiso   1.00
C146   C     0.88118   0.56766   0.34681   0.00000  Uiso   1.00
C147   C     0.88863   0.78596   0.35086   0.00000  Uiso   1.00
C148   C     0.72276   0.16499   0.43226   0.00000  Uiso   1.00
C149   C     0.71269   0.07674   0.46754   0.00000  Uiso   1.00
C150   C     0.60924   0.04393   0.53816   0.00000  Uiso   1.00
C151   C     0.45930   0.95909   0.65295   0.00000  Uiso   1.00
C152   C     0.66232   0.31307   0.41769   0.00000  Uiso   1.00
C153   C     0.73384   0.23920   0.34882   0.00000  Uiso   1.00
C154   C     0.71544   0.22383   0.32060   0.00000  Uiso   1.00
C155   C     0.79040   0.15288   0.25704   0.00000  Uiso   1.00
C156   C     0.73406   0.41383   0.39499   0.00000  Uiso   1.00
C157   C     0.71583   0.54529   0.40560   0.00000  Uiso   1.00
C158   C     0.79095   0.62136   0.38092   0.00000  Uiso   1.00
C159   C     0.63269   0.21859   0.46631   0.00000  Uiso   1.00
C160   C     0.52923   0.18591   0.53689   0.00000  Uiso   1.00
C161   C     0.51901   0.09763   0.57227   0.00000  Uiso   1.00
H162   H     0.89826   0.17267   0.32851   0.00000  Uiso   1.00
H163   H     0.96860   0.07320   0.22491   0.00000  Uiso   1.00
H164   H     0.96898   0.39461   0.30991   0.00000  Uiso   1.00
H165   H     0.78241   0.03529   0.44118   0.00000  Uiso   1.00
H166   H     0.00689   0.98660   0.12506   0.00000  Uiso   1.00
H167   H     0.00766   0.66430   0.30430   0.00000  Uiso   1.00
H168   H     0.61424   0.90660   0.58112   0.00000  Uiso   1.00
H169   H     0.59219   0.35480   0.44420   0.00000  Uiso   1.00
H170   H     0.64574   0.26532   0.34695   0.00000  Uiso   1.00
H171   H     0.64612   0.58673   0.43195   0.00000  Uiso   1.00
H172   H     0.45955   0.22741   0.56322   0.00000  Uiso   1.00
H173   H     0.74484   0.14253   0.22411   0.00000  Uiso   1.00
H174   H     0.74562   0.82024   0.40335   0.00000  Uiso   1.00
H175   H     0.35220   0.06253   0.68017   0.00000  Uiso   1.00
O176   O     0.91663   0.00245   0.10851   0.00000  Uiso   1.00
O177   O     0.91763   0.89156   0.34368   0.00000  Uiso   1.00
O178   O     0.40148   0.89748   0.70685   0.00000  Uiso   1.00
N179   N     0.93786   0.03556   0.16173   0.00000  Uiso   1.00
N180   N     0.93859   0.66917   0.32929   0.00000  Uiso   1.00
N181   N     0.57078   0.96081   0.58810   0.00000  Uiso   1.00
N182   N     0.79685   0.11946   0.21502   0.00000  Uiso   1.00
N183   N     0.79758   0.75307   0.38259   0.00000  Uiso   1.00
N184   N     0.42977   0.04471   0.64140   0.00000  Uiso   1.00
C185   C     0.32814   0.28561   0.85501   0.00000  Uiso   1.00
C186   C     0.32391   0.31441   0.81477   0.00000  Uiso   1.00
C187   C     0.39890   0.38534   0.75125   0.00000  Uiso   1.00
C188   C     0.38063   0.40081   0.72293   0.00000  Uiso   1.00
C189   C     0.38779   0.45362   0.65525   0.00000  Uiso   1.00
C190   C     0.32412   0.13977   0.86095   0.00000  Uiso   1.00
C191   C     0.39929   0.06388   0.83625   0.00000  Uiso   1.00
C192   C     0.38118   0.93234   0.84681   0.00000  Uiso   1.00
C193   C     0.38863   0.71404   0.85086   0.00000  Uiso   1.00
C194   C     0.22276   0.33501   0.93226   0.00000  Uiso   1.00
C195   C     0.21269   0.42326   0.96754   0.00000  Uiso   1.00
C196   C     0.10924   0.45607   0.03816   0.00000  Uiso   1.00
C197   C     0.95930   0.54091   0.15295   0.00000  Uiso   1.00
C198   C     0.16232   0.18693   0.91769   0.00000  Uiso   1.00
C199   C     0.23384   0.26080   0.84882   0.00000  Uiso   1.00
C200   C     0.21544   0.27617   0.82060   0.00000  Uiso   1.00
C201   C     0.29040   0.34712   0.75704   0.00000  Uiso   1.00
C202   C     0.23406   0.08617   0.89499   0.00000  Uiso   1.00
C203   C     0.21583   0.95471   0.90560   0.00000  Uiso   1.00
C204   C     0.29095   0.87864   0.88092   0.00000  Uiso   1.00
C205   C     0.13269   0.28141   0.96631   0.00000  Uiso   1.00
C206   C     0.02923   0.31409   0.03689   0.00000  Uiso   1.00
C207   C     0.01901   0.40237   0.07227   0.00000  Uiso   1.00
H208   H     0.39826   0.32733   0.82851   0.00000  Uiso   1.00
H209   H     0.46860   0.42680   0.72491   0.00000  Uiso   1.00
H210   H     0.46898   0.10539   0.80991   0.00000  Uiso   1.00
H211   H     0.28241   0.46471   0.94118   0.00000  Uiso   1.00
H212   H     0.50689   0.51340   0.62506   0.00000  Uiso   1.00
H213   H     0.50766   0.83570   0.80430   0.00000  Uiso   1.00
H214   H     0.11424   0.59340   0.08112   0.00000  Uiso   1.00
H215   H     0.09219   0.14520   0.94420   0.00000  Uiso   1.00
H216   H     0.14574   0.23468   0.84695   0.00000  Uiso   1.00
H217   H     0.14612   0.91327   0.93195   0.00000  Uiso   1.00
H218   H     0.95955   0.27259   0.06322   0.00000  Uiso   1.00
H219   H     0.24484   0.35747   0.72411   0.00000  Uiso   1.00
H220   H     0.24562   0.67976   0.90335   0.00000  Uiso   1.00
H221   H     0.85220   0.43747   0.18017   0.00000  Uiso   1.00
O222   O     0.41663   0.49755   0.60851   0.00000  Uiso   1.00
O223   O     0.41763   0.60844   0.84368   0.00000  Uiso   1.00
O224   O     0.90148   0.60252   0.20685   0.00000  Uiso   1.00
N225   N     0.43786   0.46444   0.66173   0.00000  Uiso   1.00
N226   N     0.43859   0.83083   0.82929   0.00000  Uiso   1.00
N227   N     0.07078   0.53919   0.08810   0.00000  Uiso   1.00
N228   N     0.29685   0.38054   0.71502   0.00000  Uiso   1.00
N229   N     0.29758   0.74693   0.88259   0.00000  Uiso   1.00
N230   N     0.92977   0.45529   0.14140   0.00000  Uiso   1.00
C231   C     0.82814   0.78561   0.85501   0.00000  Uiso   1.00
C232   C     0.82391   0.81441   0.81477   0.00000  Uiso   1.00
C233   C     0.89890   0.88534   0.75125   0.00000  Uiso   1.00
C234   C     0.88063   0.90081   0.72293   0.00000  Uiso   1.00
C235   C     0.88779   0.95362   0.65525   0.00000  Uiso   1.00
C236   C     0.82412   0.63977   0.86095   0.00000  Uiso   1.00
C237   C     0.89929   0.56388   0.83625   0.00000  Uiso   1.00
C238   C     0.88118   0.43234   0.84681   0.00000  Uiso   1.00
C239   C     0.88863   0.21404   0.85086   0.00000  Uiso   1.00
C240   C     0.72276   0.83501   0.93226   0.00000  Uiso   1.00
C241   C     0.71269   0.92326   0.96754   0.00000  Uiso   1.00
C242   C     0.60924   0.95607   0.03816   0.00000  Uiso   1.00
C243   C     0.45930   0.04091   0.15295   0.00000  Uiso   1.00
C244   C     0.66232   0.68693   0.91769   0.00000  Uiso   1.00
C245   C     0.73384   0.76080   0.84882   0.00000  Uiso   1.00
C246   C     0.71544   0.77617   0.82060   0.00000  Uiso   1.00
C247   C     0.79040   0.84712   0.75704   0.00000  Uiso   1.00
C248   C     0.73406   0.58617   0.89499   0.00000  Uiso   1.00
C249   C     0.71583   0.45471   0.90560   0.00000  Uiso   1.00
C250   C     0.79095   0.37864   0.88092   0.00000  Uiso   1.00
C251   C     0.63269   0.78141   0.96631   0.00000  Uiso   1.00
C252   C     0.52923   0.81409   0.03689   0.00000  Uiso   1.00
C253   C     0.51901   0.90237   0.07227   0.00000  Uiso   1.00
H254   H     0.89826   0.82733   0.82851   0.00000  Uiso   1.00
H255   H     0.96860   0.92680   0.72491   0.00000  Uiso   1.00
H256   H     0.96898   0.60539   0.80991   0.00000  Uiso   1.00
H257   H     0.78241   0.96471   0.94118   0.00000  Uiso   1.00
H258   H     0.00689   0.01340   0.62506   0.00000  Uiso   1.00
H259   H     0.00766   0.33570   0.80430   0.00000  Uiso   1.00
H260   H     0.61424   0.09340   0.08112   0.00000  Uiso   1.00
H261   H     0.59219   0.64520   0.94420   0.00000  Uiso   1.00
H262   H     0.64574   0.73468   0.84695   0.00000  Uiso   1.00
H263   H     0.64612   0.41327   0.93195   0.00000  Uiso   1.00
H264   H     0.45955   0.77259   0.06322   0.00000  Uiso   1.00
H265   H     0.74484   0.85747   0.72411   0.00000  Uiso   1.00
H266   H     0.74562   0.17976   0.90335   0.00000  Uiso   1.00
H267   H     0.35220   0.93747   0.18017   0.00000  Uiso   1.00
O268   O     0.91663   0.99755   0.60851   0.00000  Uiso   1.00
O269   O     0.91763   0.10844   0.84368   0.00000  Uiso   1.00
O270   O     0.40148   0.10252   0.20685   0.00000  Uiso   1.00
N271   N     0.93786   0.96444   0.66173   0.00000  Uiso   1.00
N272   N     0.93859   0.33083   0.82929   0.00000  Uiso   1.00
N273   N     0.57078   0.03919   0.08810   0.00000  Uiso   1.00
N274   N     0.79685   0.88054   0.71502   0.00000  Uiso   1.00
N275   N     0.79758   0.24693   0.88259   0.00000  Uiso   1.00
N276   N     0.42977   0.95529   0.14140   0.00000  Uiso   1.00
C277   C     0.67186   0.28561   0.64499   0.00000  Uiso   1.00
C278   C     0.67609   0.31441   0.68523   0.00000  Uiso   1.00
C279   C     0.60110   0.38534   0.74875   0.00000  Uiso   1.00
C280   C     0.61937   0.40081   0.77707   0.00000  Uiso   1.00
C281   C     0.61221   0.45362   0.84475   0.00000  Uiso   1.00
C282   C     0.67588   0.13977   0.63905   0.00000  Uiso   1.00
C283   C     0.60071   0.06388   0.66375   0.00000  Uiso   1.00
C284   C     0.61882   0.93234   0.65319   0.00000  Uiso   1.00
C285   C     0.61137   0.71404   0.64914   0.00000  Uiso   1.00
C286   C     0.77724   0.33501   0.56774   0.00000  Uiso   1.00
C287   C     0.78731   0.42326   0.53246   0.00000  Uiso   1.00
C288   C     0.89076   0.45607   0.46184   0.00000  Uiso   1.00
C289   C     0.04070   0.54091   0.34705   0.00000  Uiso   1.00
C290   C     0.83768   0.18693   0.58231   0.00000  Uiso   1.00
C291   C     0.76616   0.26080   0.65118   0.00000  Uiso   1.00
C292   C     0.78456   0.27617   0.67940   0.00000  Uiso   1.00
C293   C     0.70960   0.34712   0.74296   0.00000  Uiso   1.00
C294   C     0.76594   0.08617   0.60501   0.00000  Uiso   1.00
C295   C     0.78417   0.95471   0.59440   0.00000  Uiso   1.00
C296   C     0.70905   0.87864   0.61908   0.00000  Uiso   1.00
C297   C     0.86731   0.28141   0.53369   0.00000  Uiso   1.00
C298   C     0.97077   0.31409   0.46311   0.00000  Uiso   1.00
C299   C     0.98099   0.40237   0.42773   0.00000  Uiso   1.00
H300   H     0.60174   0.32733   0.67149   0.00000  Uiso   1.00
H301   H     0.53140   0.42680   0.77509   0.00000  Uiso   1.00
H302   H     0.53102   0.10539   0.69009   0.00000  Uiso   1.00
H303   H     0.71759   0.46471   0.55882   0.00000  Uiso   1.00
H304   H     0.49311   0.51340   0.87494   0.00000  Uiso   1.00
H305   H     0.49234   0.83570   0.69570   0.00000  Uiso   1.00
H306   H     0.88576   0.59340   0.41888   0.00000  Uiso   1.00
H307   H     0.90781   0.14520   0.55580   0.00000  Uiso   1.00
H308   H     0.85426   0.23468   0.65305   0.00000  Uiso   1.00
H309   H     0.85388   0.91327   0.56805   0.00000  Uiso   1.00
H310   H     0.04045   0.27259   0.43678   0.00000  Uiso   1.00
H311   H     0.75516   0.35747   0.77589   0.00000  Uiso   1.00
H312   H     0.75438   0.67976   0.59665   0.00000  Uiso   1.00
H313   H     0.14780   0.43747   0.31983   0.00000  Uiso   1.00
O314   O     0.58337   0.49755   0.89149   0.00000  Uiso   1.00
O315   O     0.58237   0.60844   0.65632   0.00000  Uiso   1.00
O316   O     0.09852   0.60252   0.29315   0.00000  Uiso   1.00
N317   N     0.56214   0.46444   0.83827   0.00000  Uiso   1.00
N318   N     0.56141   0.83083   0.67071   0.00000  Uiso   1.00
N319   N     0.92922   0.53919   0.41190   0.00000  Uiso   1.00
N320   N     0.70315   0.38054   0.78498   0.00000  Uiso   1.00
N321   N     0.70242   0.74693   0.61741   0.00000  Uiso   1.00
N322   N     0.07023   0.45529   0.35860   0.00000  Uiso   1.00
C323   C     0.17186   0.78561   0.64499   0.00000  Uiso   1.00
C324   C     0.17609   0.81441   0.68523   0.00000  Uiso   1.00
C325   C     0.10110   0.88534   0.74875   0.00000  Uiso   1.00
C326   C     0.11937   0.90081   0.77707   0.00000  Uiso   1.00
C327   C     0.11221   0.95362   0.84475   0.00000  Uiso   1.00
C328   C     0.17588   0.63977   0.63905   0.00000  Uiso   1.00
C329   C     0.10071   0.56388   0.66375   0.00000  Uiso   1.00
C330   C     0.11882   0.43234   0.65319   0.00000  Uiso   1.00
C331   C     0.11137   0.21404   0.64914   0.00000  Uiso   1.00
C332   C     0.27724   0.83501   0.56774   0.00000  Uiso   1.00
C333   C     0.28731   0.92326   0.53246   0.00000  Uiso   1.00
C334   C     0.39076   0.95607   0.46184   0.00000  Uiso   1.00
C335   C     0.54070   0.04091   0.34705   0.00000  Uiso   1.00
C336   C     0.33768   0.68693   0.58231   0.00000  Uiso   1.00
C337   C     0.26616   0.76080   0.65118   0.00000  Uiso   1.00
C338   C     0.28456   0.77617   0.67940   0.00000  Uiso   1.00
C339   C     0.20960   0.84712   0.74296   0.00000  Uiso   1.00
C340   C     0.26594   0.58617   0.60501   0.00000  Uiso   1.00
C341   C     0.28417   0.45471   0.59440   0.00000  Uiso   1.00
C342   C     0.20905   0.37864   0.61908   0.00000  Uiso   1.00
C343   C     0.36731   0.78141   0.53369   0.00000  Uiso   1.00
C344   C     0.47077   0.81409   0.46311   0.00000  Uiso   1.00
C345   C     0.48099   0.90237   0.42773   0.00000  Uiso   1.00
H346   H     0.10174   0.82733   0.67149   0.00000  Uiso   1.00
H347   H     0.03140   0.92680   0.77509   0.00000  Uiso   1.00
H348   H     0.03102   0.60539   0.69009   0.00000  Uiso   1.00
H349   H     0.21759   0.96471   0.55882   0.00000  Uiso   1.00
H350   H     0.99311   0.01340   0.87494   0.00000  Uiso   1.00
H351   H     0.99234   0.33570   0.69570   0.00000  Uiso   1.00
H352   H     0.38576   0.09340   0.41888   0.00000  Uiso   1.00
H353   H     0.40781   0.64520   0.55580   0.00000  Uiso   1.00
H354   H     0.35426   0.73468   0.65305   0.00000  Uiso   1.00
H355   H     0.35388   0.41327   0.56805   0.00000  Uiso   1.00
H356   H     0.54045   0.77259   0.43678   0.00000  Uiso   1.00
H357   H     0.25516   0.85747   0.77589   0.00000  Uiso   1.00
H358   H     0.25438   0.17976   0.59665   0.00000  Uiso   1.00
H359   H     0.64780   0.93747   0.31983   0.00000  Uiso   1.00
O360   O     0.08337   0.99755   0.89149   0.00000  Uiso   1.00
O361   O     0.08237   0.10844   0.65632   0.00000  Uiso   1.00
O362   O     0.59852   0.10252   0.29315   0.00000  Uiso   1.00
N363   N     0.06214   0.96444   0.83827   0.00000  Uiso   1.00
N364   N     0.06141   0.33083   0.67071   0.00000  Uiso   1.00
N365   N     0.42922   0.03919   0.41190   0.00000  Uiso   1.00
N366   N     0.20315   0.88054   0.78498   0.00000  Uiso   1.00
N367   N     0.20242   0.24693   0.61741   0.00000  Uiso   1.00
N368   N     0.57023   0.95529   0.35860   0.00000  Uiso   1.00
