data_job_02966
_audit_creation_date              2018-12-19
_audit_creation_method            'Materials Studio'
_symmetry_space_group_name_H-M    'P1'
_symmetry_Int_Tables_number       1
_symmetry_cell_setting            triclinic
loop_
_symmetry_equiv_pos_as_xyz
  x,y,z
_cell_length_a                    42.2367
_cell_length_b                    7.1231
_cell_length_c                    23.1979
_cell_angle_alpha                 90.0000
_cell_angle_beta                  90.0000
_cell_angle_gamma                 90.0000
loop_
_atom_site_label
_atom_site_type_symbol
_atom_site_fract_x
_atom_site_fract_y
_atom_site_fract_z
_atom_site_U_iso_or_equiv
_atom_site_adp_type
_atom_site_occupancy
C1     C     0.57578   0.45461   0.82155   0.00000  Uiso   1.00
C2     C     0.56224   0.59335   0.77798   0.00000  Uiso   1.00
C3     C     0.53998   0.55216   0.73583   0.00000  Uiso   1.00
C4     C     0.53062   0.69855   0.70018   0.00000  Uiso   1.00
C5     C     0.50770   0.88644   0.63156   0.00000  Uiso   1.00
C6     C     0.61162   0.46049   0.81377   0.00000  Uiso   1.00
C7     C     0.63088   0.30757   0.80173   0.00000  Uiso   1.00
C8     C     0.66309   0.34212   0.79622   0.00000  Uiso   1.00
C9     C     0.71684   0.32370   0.78321   0.00000  Uiso   1.00
C10    C     0.56922   0.53834   0.88085   0.00000  Uiso   1.00
C11    C     0.55285   0.45087   0.92522   0.00000  Uiso   1.00
C12    C     0.54937   0.55094   0.97619   0.00000  Uiso   1.00
C13    C     0.53730   0.65340   0.06733   0.00000  Uiso   1.00
C14    C     0.59874   0.78784   0.83318   0.00000  Uiso   1.00
C15    C     0.57471   0.77435   0.78430   0.00000  Uiso   1.00
C16    C     0.56538   0.92085   0.74871   0.00000  Uiso   1.00
C17    C     0.54311   0.87988   0.70651   0.00000  Uiso   1.00
C18    C     0.62409   0.64148   0.82009   0.00000  Uiso   1.00
C19    C     0.65628   0.67626   0.81460   0.00000  Uiso   1.00
C20    C     0.67558   0.52345   0.80255   0.00000  Uiso   1.00
C21    C     0.58169   0.71934   0.88717   0.00000  Uiso   1.00
C22    C     0.57825   0.81956   0.93809   0.00000  Uiso   1.00
C23    C     0.56186   0.73227   0.98252   0.00000  Uiso   1.00
H24    H     0.56607   0.31369   0.81663   0.00000  Uiso   1.00
H25    H     0.53033   0.41207   0.73095   0.00000  Uiso   1.00
H26    H     0.62122   0.16752   0.79685   0.00000  Uiso   1.00
H27    H     0.54320   0.31080   0.92031   0.00000  Uiso   1.00
H28    H     0.49622   0.60094   0.63874   0.00000  Uiso   1.00
H29    H     0.68786   0.08529   0.77770   0.00000  Uiso   1.00
H30    H     0.52333   0.38741   0.03806   0.00000  Uiso   1.00
H31    H     0.60845   0.92876   0.83810   0.00000  Uiso   1.00
H32    H     0.57503   0.06090   0.75361   0.00000  Uiso   1.00
H33    H     0.66592   0.81635   0.81950   0.00000  Uiso   1.00
H34    H     0.58790   0.95963   0.94296   0.00000  Uiso   1.00
H35    H     0.53250   0.12756   0.65713   0.00000  Uiso   1.00
H36    H     0.72414   0.61190   0.79609   0.00000  Uiso   1.00
H37    H     0.55962   0.91403   0.05644   0.00000  Uiso   1.00
O38    O     0.49162   0.94006   0.59195   0.00000  Uiso   1.00
O39    O     0.74304   0.26354   0.77427   0.00000  Uiso   1.00
O40    O     0.52719   0.65992   0.11585   0.00000  Uiso   1.00
N41    N     0.50934   0.70676   0.65467   0.00000  Uiso   1.00
N42    N     0.68851   0.22465   0.78458   0.00000  Uiso   1.00
N43    N     0.53470   0.50710   0.02800   0.00000  Uiso   1.00
N44    N     0.52886   0.99013   0.66457   0.00000  Uiso   1.00
N45    N     0.70803   0.50802   0.79448   0.00000  Uiso   1.00
N46    N     0.55422   0.79047   0.03789   0.00000  Uiso   1.00
C47    C     0.92422   0.54539   0.82155   0.00000  Uiso   1.00
C48    C     0.93776   0.40665   0.77798   0.00000  Uiso   1.00
C49    C     0.96002   0.44784   0.73583   0.00000  Uiso   1.00
C50    C     0.96938   0.30145   0.70018   0.00000  Uiso   1.00
C51    C     0.99230   0.11356   0.63156   0.00000  Uiso   1.00
C52    C     0.88838   0.53951   0.81377   0.00000  Uiso   1.00
C53    C     0.86912   0.69243   0.80173   0.00000  Uiso   1.00
C54    C     0.83691   0.65788   0.79622   0.00000  Uiso   1.00
C55    C     0.78316   0.67630   0.78321   0.00000  Uiso   1.00
C56    C     0.93078   0.46166   0.88085   0.00000  Uiso   1.00
C57    C     0.94715   0.54913   0.92522   0.00000  Uiso   1.00
C58    C     0.95063   0.44906   0.97619   0.00000  Uiso   1.00
C59    C     0.96270   0.34660   0.06733   0.00000  Uiso   1.00
C60    C     0.90126   0.21216   0.83318   0.00000  Uiso   1.00
C61    C     0.92529   0.22565   0.78430   0.00000  Uiso   1.00
C62    C     0.93462   0.07915   0.74871   0.00000  Uiso   1.00
C63    C     0.95689   0.12012   0.70651   0.00000  Uiso   1.00
C64    C     0.87591   0.35852   0.82009   0.00000  Uiso   1.00
C65    C     0.84372   0.32374   0.81460   0.00000  Uiso   1.00
C66    C     0.82442   0.47655   0.80255   0.00000  Uiso   1.00
C67    C     0.91831   0.28066   0.88717   0.00000  Uiso   1.00
C68    C     0.92175   0.18044   0.93809   0.00000  Uiso   1.00
C69    C     0.93814   0.26773   0.98252   0.00000  Uiso   1.00
H70    H     0.93393   0.68631   0.81663   0.00000  Uiso   1.00
H71    H     0.96967   0.58793   0.73095   0.00000  Uiso   1.00
H72    H     0.87878   0.83248   0.79685   0.00000  Uiso   1.00
H73    H     0.95680   0.68920   0.92031   0.00000  Uiso   1.00
H74    H     0.00378   0.39906   0.63874   0.00000  Uiso   1.00
H75    H     0.81214   0.91471   0.77770   0.00000  Uiso   1.00
H76    H     0.97667   0.61259   0.03806   0.00000  Uiso   1.00
H77    H     0.89155   0.07124   0.83810   0.00000  Uiso   1.00
H78    H     0.92497   0.93910   0.75361   0.00000  Uiso   1.00
H79    H     0.83408   0.18365   0.81950   0.00000  Uiso   1.00
H80    H     0.91210   0.04037   0.94296   0.00000  Uiso   1.00
H81    H     0.96750   0.87244   0.65713   0.00000  Uiso   1.00
H82    H     0.77586   0.38810   0.79609   0.00000  Uiso   1.00
H83    H     0.94038   0.08597   0.05644   0.00000  Uiso   1.00
O84    O     0.00838   0.05994   0.59195   0.00000  Uiso   1.00
O85    O     0.75696   0.73646   0.77427   0.00000  Uiso   1.00
O86    O     0.97281   0.34008   0.11585   0.00000  Uiso   1.00
N87    N     0.99066   0.29324   0.65467   0.00000  Uiso   1.00
N88    N     0.81149   0.77535   0.78458   0.00000  Uiso   1.00
N89    N     0.96530   0.49290   0.02800   0.00000  Uiso   1.00
N90    N     0.97114   0.00987   0.66457   0.00000  Uiso   1.00
N91    N     0.79197   0.49198   0.79448   0.00000  Uiso   1.00
N92    N     0.94578   0.20953   0.03789   0.00000  Uiso   1.00
C93    C     0.42422   0.45461   0.67845   0.00000  Uiso   1.00
C94    C     0.43776   0.59335   0.72202   0.00000  Uiso   1.00
C95    C     0.46002   0.55216   0.76417   0.00000  Uiso   1.00
C96    C     0.46938   0.69855   0.79982   0.00000  Uiso   1.00
C97    C     0.49230   0.88644   0.86844   0.00000  Uiso   1.00
C98    C     0.38838   0.46049   0.68623   0.00000  Uiso   1.00
C99    C     0.36912   0.30757   0.69827   0.00000  Uiso   1.00
C100   C     0.33691   0.34212   0.70378   0.00000  Uiso   1.00
C101   C     0.28316   0.32370   0.71679   0.00000  Uiso   1.00
C102   C     0.43078   0.53834   0.61915   0.00000  Uiso   1.00
C103   C     0.44715   0.45087   0.57478   0.00000  Uiso   1.00
C104   C     0.45063   0.55094   0.52381   0.00000  Uiso   1.00
C105   C     0.46270   0.65340   0.43267   0.00000  Uiso   1.00
C106   C     0.40126   0.78784   0.66682   0.00000  Uiso   1.00
C107   C     0.42529   0.77435   0.71570   0.00000  Uiso   1.00
C108   C     0.43462   0.92085   0.75129   0.00000  Uiso   1.00
C109   C     0.45689   0.87988   0.79349   0.00000  Uiso   1.00
C110   C     0.37591   0.64148   0.67991   0.00000  Uiso   1.00
C111   C     0.34372   0.67626   0.68540   0.00000  Uiso   1.00
C112   C     0.32442   0.52345   0.69745   0.00000  Uiso   1.00
C113   C     0.41831   0.71934   0.61283   0.00000  Uiso   1.00
C114   C     0.42175   0.81956   0.56191   0.00000  Uiso   1.00
C115   C     0.43814   0.73227   0.51748   0.00000  Uiso   1.00
H116   H     0.43393   0.31369   0.68337   0.00000  Uiso   1.00
H117   H     0.46967   0.41207   0.76905   0.00000  Uiso   1.00
H118   H     0.37878   0.16752   0.70315   0.00000  Uiso   1.00
H119   H     0.45680   0.31080   0.57969   0.00000  Uiso   1.00
H120   H     0.50378   0.60094   0.86126   0.00000  Uiso   1.00
H121   H     0.31214   0.08529   0.72230   0.00000  Uiso   1.00
H122   H     0.47667   0.38741   0.46194   0.00000  Uiso   1.00
H123   H     0.39155   0.92876   0.66190   0.00000  Uiso   1.00
H124   H     0.42497   0.06090   0.74639   0.00000  Uiso   1.00
H125   H     0.33408   0.81635   0.68050   0.00000  Uiso   1.00
H126   H     0.41210   0.95963   0.55704   0.00000  Uiso   1.00
H127   H     0.46750   0.12756   0.84287   0.00000  Uiso   1.00
H128   H     0.27586   0.61190   0.70391   0.00000  Uiso   1.00
H129   H     0.44038   0.91403   0.44356   0.00000  Uiso   1.00
O130   O     0.50838   0.94006   0.90805   0.00000  Uiso   1.00
O131   O     0.25696   0.26354   0.72573   0.00000  Uiso   1.00
O132   O     0.47281   0.65992   0.38415   0.00000  Uiso   1.00
N133   N     0.49066   0.70676   0.84533   0.00000  Uiso   1.00
N134   N     0.31149   0.22465   0.71542   0.00000  Uiso   1.00
N135   N     0.46530   0.50710   0.47200   0.00000  Uiso   1.00
N136   N     0.47114   0.99013   0.83543   0.00000  Uiso   1.00
N137   N     0.29197   0.50802   0.70552   0.00000  Uiso   1.00
N138   N     0.44578   0.79047   0.46211   0.00000  Uiso   1.00
C139   C     0.07578   0.54539   0.67845   0.00000  Uiso   1.00
C140   C     0.06224   0.40665   0.72202   0.00000  Uiso   1.00
C141   C     0.03998   0.44784   0.76417   0.00000  Uiso   1.00
C142   C     0.03062   0.30145   0.79982   0.00000  Uiso   1.00
C143   C     0.00770   0.11356   0.86844   0.00000  Uiso   1.00
C144   C     0.11162   0.53951   0.68623   0.00000  Uiso   1.00
C145   C     0.13088   0.69243   0.69827   0.00000  Uiso   1.00
C146   C     0.16309   0.65788   0.70378   0.00000  Uiso   1.00
C147   C     0.21684   0.67630   0.71679   0.00000  Uiso   1.00
C148   C     0.06922   0.46166   0.61915   0.00000  Uiso   1.00
C149   C     0.05285   0.54913   0.57478   0.00000  Uiso   1.00
C150   C     0.04937   0.44906   0.52381   0.00000  Uiso   1.00
C151   C     0.03730   0.34660   0.43267   0.00000  Uiso   1.00
C152   C     0.09874   0.21216   0.66682   0.00000  Uiso   1.00
C153   C     0.07471   0.22565   0.71570   0.00000  Uiso   1.00
C154   C     0.06538   0.07915   0.75129   0.00000  Uiso   1.00
C155   C     0.04311   0.12012   0.79349   0.00000  Uiso   1.00
C156   C     0.12409   0.35852   0.67991   0.00000  Uiso   1.00
C157   C     0.15628   0.32374   0.68540   0.00000  Uiso   1.00
C158   C     0.17558   0.47655   0.69745   0.00000  Uiso   1.00
C159   C     0.08169   0.28066   0.61283   0.00000  Uiso   1.00
C160   C     0.07825   0.18044   0.56191   0.00000  Uiso   1.00
C161   C     0.06186   0.26773   0.51748   0.00000  Uiso   1.00
H162   H     0.06607   0.68631   0.68337   0.00000  Uiso   1.00
H163   H     0.03033   0.58793   0.76905   0.00000  Uiso   1.00
H164   H     0.12122   0.83248   0.70315   0.00000  Uiso   1.00
H165   H     0.04320   0.68920   0.57969   0.00000  Uiso   1.00
H166   H     0.99622   0.39906   0.86126   0.00000  Uiso   1.00
H167   H     0.18786   0.91471   0.72230   0.00000  Uiso   1.00
H168   H     0.02333   0.61259   0.46194   0.00000  Uiso   1.00
H169   H     0.10845   0.07124   0.66190   0.00000  Uiso   1.00
H170   H     0.07503   0.93910   0.74639   0.00000  Uiso   1.00
H171   H     0.16592   0.18365   0.68050   0.00000  Uiso   1.00
H172   H     0.08790   0.04037   0.55704   0.00000  Uiso   1.00
H173   H     0.03250   0.87244   0.84287   0.00000  Uiso   1.00
H174   H     0.22414   0.38810   0.70391   0.00000  Uiso   1.00
H175   H     0.05962   0.08597   0.44356   0.00000  Uiso   1.00
O176   O     0.99162   0.05994   0.90805   0.00000  Uiso   1.00
O177   O     0.24304   0.73646   0.72573   0.00000  Uiso   1.00
O178   O     0.02719   0.34008   0.38415   0.00000  Uiso   1.00
N179   N     0.00934   0.29324   0.84533   0.00000  Uiso   1.00
N180   N     0.18851   0.77535   0.71542   0.00000  Uiso   1.00
N181   N     0.03470   0.49290   0.47200   0.00000  Uiso   1.00
N182   N     0.02886   0.00987   0.83543   0.00000  Uiso   1.00
N183   N     0.20803   0.49198   0.70552   0.00000  Uiso   1.00
N184   N     0.05422   0.20953   0.46211   0.00000  Uiso   1.00
C185   C     0.42422   0.54539   0.17845   0.00000  Uiso   1.00
C186   C     0.43776   0.40665   0.22202   0.00000  Uiso   1.00
C187   C     0.46002   0.44784   0.26417   0.00000  Uiso   1.00
C188   C     0.46938   0.30145   0.29982   0.00000  Uiso   1.00
C189   C     0.49230   0.11356   0.36844   0.00000  Uiso   1.00
C190   C     0.38838   0.53951   0.18623   0.00000  Uiso   1.00
C191   C     0.36912   0.69243   0.19827   0.00000  Uiso   1.00
C192   C     0.33691   0.65788   0.20378   0.00000  Uiso   1.00
C193   C     0.28316   0.67630   0.21679   0.00000  Uiso   1.00
C194   C     0.43078   0.46166   0.11915   0.00000  Uiso   1.00
C195   C     0.44715   0.54913   0.07478   0.00000  Uiso   1.00
C196   C     0.45063   0.44906   0.02381   0.00000  Uiso   1.00
C197   C     0.46270   0.34660   0.93267   0.00000  Uiso   1.00
C198   C     0.40126   0.21216   0.16682   0.00000  Uiso   1.00
C199   C     0.42529   0.22565   0.21570   0.00000  Uiso   1.00
C200   C     0.43462   0.07915   0.25129   0.00000  Uiso   1.00
C201   C     0.45689   0.12012   0.29349   0.00000  Uiso   1.00
C202   C     0.37591   0.35852   0.17991   0.00000  Uiso   1.00
C203   C     0.34372   0.32374   0.18540   0.00000  Uiso   1.00
C204   C     0.32442   0.47655   0.19745   0.00000  Uiso   1.00
C205   C     0.41831   0.28066   0.11283   0.00000  Uiso   1.00
C206   C     0.42175   0.18044   0.06191   0.00000  Uiso   1.00
C207   C     0.43814   0.26773   0.01748   0.00000  Uiso   1.00
H208   H     0.43393   0.68631   0.18337   0.00000  Uiso   1.00
H209   H     0.46967   0.58793   0.26905   0.00000  Uiso   1.00
H210   H     0.37878   0.83248   0.20315   0.00000  Uiso   1.00
H211   H     0.45680   0.68920   0.07969   0.00000  Uiso   1.00
H212   H     0.50378   0.39906   0.36126   0.00000  Uiso   1.00
H213   H     0.31214   0.91471   0.22230   0.00000  Uiso   1.00
H214   H     0.47667   0.61259   0.96194   0.00000  Uiso   1.00
H215   H     0.39155   0.07124   0.16190   0.00000  Uiso   1.00
H216   H     0.42497   0.93910   0.24639   0.00000  Uiso   1.00
H217   H     0.33408   0.18365   0.18050   0.00000  Uiso   1.00
H218   H     0.41210   0.04037   0.05704   0.00000  Uiso   1.00
H219   H     0.46750   0.87244   0.34287   0.00000  Uiso   1.00
H220   H     0.27586   0.38810   0.20391   0.00000  Uiso   1.00
H221   H     0.44038   0.08597   0.94356   0.00000  Uiso   1.00
O222   O     0.50838   0.05994   0.40805   0.00000  Uiso   1.00
O223   O     0.25696   0.73646   0.22573   0.00000  Uiso   1.00
O224   O     0.47281   0.34008   0.88415   0.00000  Uiso   1.00
N225   N     0.49066   0.29324   0.34533   0.00000  Uiso   1.00
N226   N     0.31149   0.77535   0.21542   0.00000  Uiso   1.00
N227   N     0.46530   0.49290   0.97200   0.00000  Uiso   1.00
N228   N     0.47114   0.00987   0.33543   0.00000  Uiso   1.00
N229   N     0.29197   0.49198   0.20552   0.00000  Uiso   1.00
N230   N     0.44578   0.20953   0.96211   0.00000  Uiso   1.00
C231   C     0.07578   0.45461   0.17845   0.00000  Uiso   1.00
C232   C     0.06224   0.59335   0.22202   0.00000  Uiso   1.00
C233   C     0.03998   0.55216   0.26417   0.00000  Uiso   1.00
C234   C     0.03062   0.69855   0.29982   0.00000  Uiso   1.00
C235   C     0.00770   0.88644   0.36844   0.00000  Uiso   1.00
C236   C     0.11162   0.46049   0.18623   0.00000  Uiso   1.00
C237   C     0.13088   0.30757   0.19827   0.00000  Uiso   1.00
C238   C     0.16309   0.34212   0.20378   0.00000  Uiso   1.00
C239   C     0.21684   0.32370   0.21679   0.00000  Uiso   1.00
C240   C     0.06922   0.53834   0.11915   0.00000  Uiso   1.00
C241   C     0.05285   0.45087   0.07478   0.00000  Uiso   1.00
C242   C     0.04937   0.55094   0.02381   0.00000  Uiso   1.00
C243   C     0.03730   0.65340   0.93267   0.00000  Uiso   1.00
C244   C     0.09874   0.78784   0.16682   0.00000  Uiso   1.00
C245   C     0.07471   0.77435   0.21570   0.00000  Uiso   1.00
C246   C     0.06538   0.92085   0.25129   0.00000  Uiso   1.00
C247   C     0.04311   0.87988   0.29349   0.00000  Uiso   1.00
C248   C     0.12409   0.64148   0.17991   0.00000  Uiso   1.00
C249   C     0.15628   0.67626   0.18540   0.00000  Uiso   1.00
C250   C     0.17558   0.52345   0.19745   0.00000  Uiso   1.00
C251   C     0.08169   0.71934   0.11283   0.00000  Uiso   1.00
C252   C     0.07825   0.81956   0.06191   0.00000  Uiso   1.00
C253   C     0.06186   0.73227   0.01748   0.00000  Uiso   1.00
H254   H     0.06607   0.31369   0.18337   0.00000  Uiso   1.00
H255   H     0.03033   0.41207   0.26905   0.00000  Uiso   1.00
H256   H     0.12122   0.16752   0.20315   0.00000  Uiso   1.00
H257   H     0.04320   0.31080   0.07969   0.00000  Uiso   1.00
H258   H     0.99622   0.60094   0.36126   0.00000  Uiso   1.00
H259   H     0.18786   0.08529   0.22230   0.00000  Uiso   1.00
H260   H     0.02333   0.38741   0.96194   0.00000  Uiso   1.00
H261   H     0.10845   0.92876   0.16190   0.00000  Uiso   1.00
H262   H     0.07503   0.06090   0.24639   0.00000  Uiso   1.00
H263   H     0.16592   0.81635   0.18050   0.00000  Uiso   1.00
H264   H     0.08790   0.95963   0.05704   0.00000  Uiso   1.00
H265   H     0.03250   0.12756   0.34287   0.00000  Uiso   1.00
H266   H     0.22414   0.61190   0.20391   0.00000  Uiso   1.00
H267   H     0.05962   0.91403   0.94356   0.00000  Uiso   1.00
O268   O     0.99162   0.94006   0.40805   0.00000  Uiso   1.00
O269   O     0.24304   0.26354   0.22573   0.00000  Uiso   1.00
O270   O     0.02719   0.65992   0.88415   0.00000  Uiso   1.00
N271   N     0.00934   0.70676   0.34533   0.00000  Uiso   1.00
N272   N     0.18851   0.22465   0.21542   0.00000  Uiso   1.00
N273   N     0.03470   0.50710   0.97200   0.00000  Uiso   1.00
N274   N     0.02886   0.99013   0.33543   0.00000  Uiso   1.00
N275   N     0.20803   0.50802   0.20552   0.00000  Uiso   1.00
N276   N     0.05422   0.79047   0.96211   0.00000  Uiso   1.00
C277   C     0.57578   0.54539   0.32155   0.00000  Uiso   1.00
C278   C     0.56224   0.40665   0.27798   0.00000  Uiso   1.00
C279   C     0.53998   0.44784   0.23583   0.00000  Uiso   1.00
C280   C     0.53062   0.30145   0.20018   0.00000  Uiso   1.00
C281   C     0.50770   0.11356   0.13156   0.00000  Uiso   1.00
C282   C     0.61162   0.53951   0.31377   0.00000  Uiso   1.00
C283   C     0.63088   0.69243   0.30173   0.00000  Uiso   1.00
C284   C     0.66309   0.65788   0.29622   0.00000  Uiso   1.00
C285   C     0.71684   0.67630   0.28321   0.00000  Uiso   1.00
C286   C     0.56922   0.46166   0.38085   0.00000  Uiso   1.00
C287   C     0.55285   0.54913   0.42522   0.00000  Uiso   1.00
C288   C     0.54937   0.44906   0.47619   0.00000  Uiso   1.00
C289   C     0.53730   0.34660   0.56733   0.00000  Uiso   1.00
C290   C     0.59874   0.21216   0.33318   0.00000  Uiso   1.00
C291   C     0.57471   0.22565   0.28430   0.00000  Uiso   1.00
C292   C     0.56538   0.07915   0.24871   0.00000  Uiso   1.00
C293   C     0.54311   0.12012   0.20651   0.00000  Uiso   1.00
C294   C     0.62409   0.35852   0.32009   0.00000  Uiso   1.00
C295   C     0.65628   0.32374   0.31460   0.00000  Uiso   1.00
C296   C     0.67558   0.47655   0.30255   0.00000  Uiso   1.00
C297   C     0.58169   0.28066   0.38717   0.00000  Uiso   1.00
C298   C     0.57825   0.18044   0.43809   0.00000  Uiso   1.00
C299   C     0.56186   0.26773   0.48252   0.00000  Uiso   1.00
H300   H     0.56607   0.68631   0.31663   0.00000  Uiso   1.00
H301   H     0.53033   0.58793   0.23095   0.00000  Uiso   1.00
H302   H     0.62122   0.83248   0.29685   0.00000  Uiso   1.00
H303   H     0.54320   0.68920   0.42031   0.00000  Uiso   1.00
H304   H     0.49622   0.39906   0.13874   0.00000  Uiso   1.00
H305   H     0.68786   0.91471   0.27770   0.00000  Uiso   1.00
H306   H     0.52333   0.61259   0.53806   0.00000  Uiso   1.00
H307   H     0.60845   0.07124   0.33810   0.00000  Uiso   1.00
H308   H     0.57503   0.93910   0.25361   0.00000  Uiso   1.00
H309   H     0.66592   0.18365   0.31950   0.00000  Uiso   1.00
H310   H     0.58790   0.04037   0.44296   0.00000  Uiso   1.00
H311   H     0.53250   0.87244   0.15713   0.00000  Uiso   1.00
H312   H     0.72414   0.38810   0.29609   0.00000  Uiso   1.00
H313   H     0.55962   0.08597   0.55644   0.00000  Uiso   1.00
O314   O     0.49162   0.05994   0.09195   0.00000  Uiso   1.00
O315   O     0.74304   0.73646   0.27427   0.00000  Uiso   1.00
O316   O     0.52719   0.34008   0.61585   0.00000  Uiso   1.00
N317   N     0.50934   0.29324   0.15467   0.00000  Uiso   1.00
N318   N     0.68851   0.77535   0.28458   0.00000  Uiso   1.00
N319   N     0.53470   0.49290   0.52800   0.00000  Uiso   1.00
N320   N     0.52886   0.00987   0.16457   0.00000  Uiso   1.00
N321   N     0.70803   0.49198   0.29448   0.00000  Uiso   1.00
N322   N     0.55422   0.20953   0.53789   0.00000  Uiso   1.00
C323   C     0.92422   0.45461   0.32155   0.00000  Uiso   1.00
C324   C     0.93776   0.59335   0.27798   0.00000  Uiso   1.00
C325   C     0.96002   0.55216   0.23583   0.00000  Uiso   1.00
C326   C     0.96938   0.69855   0.20018   0.00000  Uiso   1.00
C327   C     0.99230   0.88644   0.13156   0.00000  Uiso   1.00
C328   C     0.88838   0.46049   0.31377   0.00000  Uiso   1.00
C329   C     0.86912   0.30757   0.30173   0.00000  Uiso   1.00
C330   C     0.83691   0.34212   0.29622   0.00000  Uiso   1.00
C331   C     0.78316   0.32370   0.28321   0.00000  Uiso   1.00
C332   C     0.93078   0.53834   0.38085   0.00000  Uiso   1.00
C333   C     0.94715   0.45087   0.42522   0.00000  Uiso   1.00
C334   C     0.95063   0.55094   0.47619   0.00000  Uiso   1.00
C335   C     0.96270   0.65340   0.56733   0.00000  Uiso   1.00
C336   C     0.90126   0.78784   0.33318   0.00000  Uiso   1.00
C337   C     0.92529   0.77435   0.28430   0.00000  Uiso   1.00
C338   C     0.93462   0.92085   0.24871   0.00000  Uiso   1.00
C339   C     0.95689   0.87988   0.20651   0.00000  Uiso   1.00
C340   C     0.87591   0.64148   0.32009   0.00000  Uiso   1.00
C341   C     0.84372   0.67626   0.31460   0.00000  Uiso   1.00
C342   C     0.82442   0.52345   0.30255   0.00000  Uiso   1.00
C343   C     0.91831   0.71934   0.38717   0.00000  Uiso   1.00
C344   C     0.92175   0.81956   0.43809   0.00000  Uiso   1.00
C345   C     0.93814   0.73227   0.48252   0.00000  Uiso   1.00
H346   H     0.93393   0.31369   0.31663   0.00000  Uiso   1.00
H347   H     0.96967   0.41207   0.23095   0.00000  Uiso   1.00
H348   H     0.87878   0.16752   0.29685   0.00000  Uiso   1.00
H349   H     0.95680   0.31080   0.42031   0.00000  Uiso   1.00
H350   H     0.00378   0.60094   0.13874   0.00000  Uiso   1.00
H351   H     0.81214   0.08529   0.27770   0.00000  Uiso   1.00
H352   H     0.97667   0.38741   0.53806   0.00000  Uiso   1.00
H353   H     0.89155   0.92876   0.33810   0.00000  Uiso   1.00
H354   H     0.92497   0.06090   0.25361   0.00000  Uiso   1.00
H355   H     0.83408   0.81635   0.31950   0.00000  Uiso   1.00
H356   H     0.91210   0.95963   0.44296   0.00000  Uiso   1.00
H357   H     0.96750   0.12756   0.15713   0.00000  Uiso   1.00
H358   H     0.77586   0.61190   0.29609   0.00000  Uiso   1.00
H359   H     0.94038   0.91403   0.55644   0.00000  Uiso   1.00
O360   O     0.00838   0.94006   0.09195   0.00000  Uiso   1.00
O361   O     0.75696   0.26354   0.27427   0.00000  Uiso   1.00
O362   O     0.97281   0.65992   0.61585   0.00000  Uiso   1.00
N363   N     0.99066   0.70676   0.15467   0.00000  Uiso   1.00
N364   N     0.81149   0.22465   0.28458   0.00000  Uiso   1.00
N365   N     0.96530   0.50710   0.52800   0.00000  Uiso   1.00
N366   N     0.97114   0.99013   0.16457   0.00000  Uiso   1.00
N367   N     0.79197   0.50802   0.29448   0.00000  Uiso   1.00
N368   N     0.94578   0.79047   0.53789   0.00000  Uiso   1.00
