data_job_05860
_audit_creation_date              2018-12-19
_audit_creation_method            'Materials Studio'
_symmetry_space_group_name_H-M    'P1'
_symmetry_Int_Tables_number       1
_symmetry_cell_setting            triclinic
loop_
_symmetry_equiv_pos_as_xyz
  x,y,z
_cell_length_a                    18.2370
_cell_length_b                    11.0740
_cell_length_c                    24.5752
_cell_angle_alpha                 90.0000
_cell_angle_beta                  150.2417
_cell_angle_gamma                 90.0000
loop_
_atom_site_label
_atom_site_type_symbol
_atom_site_fract_x
_atom_site_fract_y
_atom_site_fract_z
_atom_site_U_iso_or_equiv
_atom_site_adp_type
_atom_site_occupancy
C1     C     0.00711   0.05326   0.57030   0.00000  Uiso   1.00
C2     C     0.96940   0.18628   0.55403   0.00000  Uiso   1.00
C3     C     0.89213   0.23443   0.54792   0.00000  Uiso   1.00
C4     C     0.86890   0.35836   0.53279   0.00000  Uiso   1.00
C5     C     0.80234   0.55379   0.50879   0.00000  Uiso   1.00
C6     C     0.94326   0.01819   0.47396   0.00000  Uiso   1.00
C7     C     0.84402   0.92500   0.40054   0.00000  Uiso   1.00
C8     C     0.79881   0.90743   0.31801   0.00000  Uiso   1.00
C9     C     0.69175   0.84184   0.16976   0.00000  Uiso   1.00
C10    C     0.17456   0.04744   0.67191   0.00000  Uiso   1.00
C11    C     0.26981   0.97882   0.76493   0.00000  Uiso   1.00
C12    C     0.41933   0.98585   0.84905   0.00000  Uiso   1.00
C13    C     0.67139   0.96568   0.00815   0.00000  Uiso   1.00
C14    C     0.10328   0.18772   0.55427   0.00000  Uiso   1.00
C15    C     0.02164   0.25931   0.54532   0.00000  Uiso   1.00
C16    C     0.99853   0.38320   0.53019   0.00000  Uiso   1.00
C17    C     0.92123   0.43153   0.52407   0.00000  Uiso   1.00
C18    C     0.99549   0.09122   0.46525   0.00000  Uiso   1.00
C19    C     0.95043   0.07377   0.38281   0.00000  Uiso   1.00
C20    C     0.85114   0.98059   0.30929   0.00000  Uiso   1.00
C21    C     0.22680   0.12048   0.66321   0.00000  Uiso   1.00
C22    C     0.37621   0.12760   0.74720   0.00000  Uiso   1.00
C23    C     0.47166   0.05901   0.84033   0.00000  Uiso   1.00
H24    H     0.96644   0.99639   0.57707   0.00000  Uiso   1.00
H25    H     0.85171   0.17788   0.55465   0.00000  Uiso   1.00
H26    H     0.80363   0.86849   0.40730   0.00000  Uiso   1.00
H27    H     0.22934   0.92232   0.77163   0.00000  Uiso   1.00
H28    H     0.74749   0.41129   0.52592   0.00000  Uiso   1.00
H29    H     0.64616   0.75891   0.21525   0.00000  Uiso   1.00
H30    H     0.54386   0.87240   0.98352   0.00000  Uiso   1.00
H31    H     0.14395   0.24458   0.54749   0.00000  Uiso   1.00
H32    H     0.03897   0.43969   0.52346   0.00000  Uiso   1.00
H33    H     0.99088   0.13030   0.37611   0.00000  Uiso   1.00
H34    H     0.41659   0.18413   0.74044   0.00000  Uiso   1.00
H35    H     0.89947   0.62379   0.50060   0.00000  Uiso   1.00
H36    H     0.79814   0.97140   0.18993   0.00000  Uiso   1.00
H37    H     0.69583   0.08490   0.95819   0.00000  Uiso   1.00
O38    O     0.75117   0.64141   0.49795   0.00000  Uiso   1.00
O39    O     0.61824   0.78550   0.09038   0.00000  Uiso   1.00
O40    O     0.79600   0.93439   0.09832   0.00000  Uiso   1.00
N41    N     0.79770   0.43453   0.52328   0.00000  Uiso   1.00
N42    N     0.70293   0.82461   0.23282   0.00000  Uiso   1.00
N43    N     0.54220   0.93068   0.95107   0.00000  Uiso   1.00
N44    N     0.87948   0.54888   0.50966   0.00000  Uiso   1.00
N45    N     0.78471   0.93895   0.21919   0.00000  Uiso   1.00
N46    N     0.62398   0.04502   0.93744   0.00000  Uiso   1.00
C47    C     0.50711   0.55326   0.57030   0.00000  Uiso   1.00
C48    C     0.46940   0.68628   0.55403   0.00000  Uiso   1.00
C49    C     0.39213   0.73443   0.54792   0.00000  Uiso   1.00
C50    C     0.36890   0.85836   0.53279   0.00000  Uiso   1.00
C51    C     0.30234   0.05379   0.50879   0.00000  Uiso   1.00
C52    C     0.44326   0.51819   0.47396   0.00000  Uiso   1.00
C53    C     0.34402   0.42500   0.40054   0.00000  Uiso   1.00
C54    C     0.29881   0.40743   0.31801   0.00000  Uiso   1.00
C55    C     0.19175   0.34184   0.16976   0.00000  Uiso   1.00
C56    C     0.67456   0.54744   0.67191   0.00000  Uiso   1.00
C57    C     0.76981   0.47882   0.76493   0.00000  Uiso   1.00
C58    C     0.91933   0.48585   0.84905   0.00000  Uiso   1.00
C59    C     0.17139   0.46568   0.00815   0.00000  Uiso   1.00
C60    C     0.60328   0.68772   0.55427   0.00000  Uiso   1.00
C61    C     0.52164   0.75931   0.54532   0.00000  Uiso   1.00
C62    C     0.49853   0.88320   0.53019   0.00000  Uiso   1.00
C63    C     0.42123   0.93153   0.52407   0.00000  Uiso   1.00
C64    C     0.49549   0.59122   0.46525   0.00000  Uiso   1.00
C65    C     0.45043   0.57377   0.38281   0.00000  Uiso   1.00
C66    C     0.35114   0.48059   0.30929   0.00000  Uiso   1.00
C67    C     0.72680   0.62048   0.66321   0.00000  Uiso   1.00
C68    C     0.87621   0.62760   0.74720   0.00000  Uiso   1.00
C69    C     0.97166   0.55901   0.84033   0.00000  Uiso   1.00
H70    H     0.46644   0.49639   0.57707   0.00000  Uiso   1.00
H71    H     0.35171   0.67788   0.55465   0.00000  Uiso   1.00
H72    H     0.30363   0.36849   0.40730   0.00000  Uiso   1.00
H73    H     0.72934   0.42232   0.77163   0.00000  Uiso   1.00
H74    H     0.24749   0.91129   0.52592   0.00000  Uiso   1.00
H75    H     0.14616   0.25891   0.21525   0.00000  Uiso   1.00
H76    H     0.04386   0.37240   0.98352   0.00000  Uiso   1.00
H77    H     0.64395   0.74458   0.54749   0.00000  Uiso   1.00
H78    H     0.53897   0.93969   0.52346   0.00000  Uiso   1.00
H79    H     0.49088   0.63030   0.37611   0.00000  Uiso   1.00
H80    H     0.91659   0.68413   0.74044   0.00000  Uiso   1.00
H81    H     0.39947   0.12379   0.50060   0.00000  Uiso   1.00
H82    H     0.29814   0.47140   0.18993   0.00000  Uiso   1.00
H83    H     0.19583   0.58490   0.95819   0.00000  Uiso   1.00
O84    O     0.25117   0.14141   0.49795   0.00000  Uiso   1.00
O85    O     0.11824   0.28550   0.09038   0.00000  Uiso   1.00
O86    O     0.29600   0.43439   0.09832   0.00000  Uiso   1.00
N87    N     0.29770   0.93453   0.52328   0.00000  Uiso   1.00
N88    N     0.20293   0.32461   0.23282   0.00000  Uiso   1.00
N89    N     0.04220   0.43068   0.95107   0.00000  Uiso   1.00
N90    N     0.37948   0.04888   0.50966   0.00000  Uiso   1.00
N91    N     0.28471   0.43895   0.21919   0.00000  Uiso   1.00
N92    N     0.12398   0.54502   0.93744   0.00000  Uiso   1.00
C93    C     0.00711   0.94674   0.07030   0.00000  Uiso   1.00
C94    C     0.96940   0.81372   0.05403   0.00000  Uiso   1.00
C95    C     0.89213   0.76557   0.04792   0.00000  Uiso   1.00
C96    C     0.86890   0.64164   0.03279   0.00000  Uiso   1.00
C97    C     0.80234   0.44621   0.00879   0.00000  Uiso   1.00
C98    C     0.94326   0.98181   0.97396   0.00000  Uiso   1.00
C99    C     0.84402   0.07500   0.90054   0.00000  Uiso   1.00
C100   C     0.79881   0.09257   0.81801   0.00000  Uiso   1.00
C101   C     0.69175   0.15816   0.66976   0.00000  Uiso   1.00
C102   C     0.17456   0.95256   0.17191   0.00000  Uiso   1.00
C103   C     0.26981   0.02118   0.26493   0.00000  Uiso   1.00
C104   C     0.41933   0.01415   0.34905   0.00000  Uiso   1.00
C105   C     0.67139   0.03432   0.50815   0.00000  Uiso   1.00
C106   C     0.10328   0.81228   0.05427   0.00000  Uiso   1.00
C107   C     0.02164   0.74069   0.04532   0.00000  Uiso   1.00
C108   C     0.99853   0.61680   0.03019   0.00000  Uiso   1.00
C109   C     0.92123   0.56847   0.02407   0.00000  Uiso   1.00
C110   C     0.99549   0.90878   0.96525   0.00000  Uiso   1.00
C111   C     0.95043   0.92623   0.88281   0.00000  Uiso   1.00
C112   C     0.85114   0.01941   0.80929   0.00000  Uiso   1.00
C113   C     0.22680   0.87952   0.16321   0.00000  Uiso   1.00
C114   C     0.37621   0.87240   0.24720   0.00000  Uiso   1.00
C115   C     0.47166   0.94099   0.34033   0.00000  Uiso   1.00
H116   H     0.96644   0.00361   0.07707   0.00000  Uiso   1.00
H117   H     0.85171   0.82212   0.05465   0.00000  Uiso   1.00
H118   H     0.80363   0.13151   0.90730   0.00000  Uiso   1.00
H119   H     0.22934   0.07768   0.27163   0.00000  Uiso   1.00
H120   H     0.74749   0.58871   0.02592   0.00000  Uiso   1.00
H121   H     0.64616   0.24109   0.71525   0.00000  Uiso   1.00
H122   H     0.54386   0.12760   0.48352   0.00000  Uiso   1.00
H123   H     0.14395   0.75542   0.04749   0.00000  Uiso   1.00
H124   H     0.03897   0.56031   0.02346   0.00000  Uiso   1.00
H125   H     0.99088   0.86970   0.87611   0.00000  Uiso   1.00
H126   H     0.41659   0.81587   0.24044   0.00000  Uiso   1.00
H127   H     0.89947   0.37621   0.00060   0.00000  Uiso   1.00
H128   H     0.79814   0.02860   0.68993   0.00000  Uiso   1.00
H129   H     0.69583   0.91510   0.45819   0.00000  Uiso   1.00
O130   O     0.75117   0.35859   0.99795   0.00000  Uiso   1.00
O131   O     0.61824   0.21450   0.59038   0.00000  Uiso   1.00
O132   O     0.79600   0.06561   0.59832   0.00000  Uiso   1.00
N133   N     0.79770   0.56547   0.02328   0.00000  Uiso   1.00
N134   N     0.70293   0.17539   0.73282   0.00000  Uiso   1.00
N135   N     0.54220   0.06932   0.45107   0.00000  Uiso   1.00
N136   N     0.87948   0.45112   0.00966   0.00000  Uiso   1.00
N137   N     0.78471   0.06105   0.71919   0.00000  Uiso   1.00
N138   N     0.62398   0.95498   0.43744   0.00000  Uiso   1.00
C139   C     0.50711   0.44674   0.07030   0.00000  Uiso   1.00
C140   C     0.46940   0.31372   0.05403   0.00000  Uiso   1.00
C141   C     0.39213   0.26557   0.04792   0.00000  Uiso   1.00
C142   C     0.36890   0.14164   0.03279   0.00000  Uiso   1.00
C143   C     0.30234   0.94621   0.00879   0.00000  Uiso   1.00
C144   C     0.44326   0.48181   0.97396   0.00000  Uiso   1.00
C145   C     0.34402   0.57500   0.90054   0.00000  Uiso   1.00
C146   C     0.29881   0.59257   0.81801   0.00000  Uiso   1.00
C147   C     0.19175   0.65816   0.66976   0.00000  Uiso   1.00
C148   C     0.67456   0.45256   0.17191   0.00000  Uiso   1.00
C149   C     0.76981   0.52118   0.26493   0.00000  Uiso   1.00
C150   C     0.91933   0.51415   0.34905   0.00000  Uiso   1.00
C151   C     0.17139   0.53432   0.50815   0.00000  Uiso   1.00
C152   C     0.60328   0.31228   0.05427   0.00000  Uiso   1.00
C153   C     0.52164   0.24069   0.04532   0.00000  Uiso   1.00
C154   C     0.49853   0.11680   0.03019   0.00000  Uiso   1.00
C155   C     0.42123   0.06847   0.02407   0.00000  Uiso   1.00
C156   C     0.49549   0.40878   0.96525   0.00000  Uiso   1.00
C157   C     0.45043   0.42623   0.88281   0.00000  Uiso   1.00
C158   C     0.35114   0.51941   0.80929   0.00000  Uiso   1.00
C159   C     0.72680   0.37952   0.16321   0.00000  Uiso   1.00
C160   C     0.87621   0.37240   0.24720   0.00000  Uiso   1.00
C161   C     0.97166   0.44099   0.34033   0.00000  Uiso   1.00
H162   H     0.46644   0.50361   0.07707   0.00000  Uiso   1.00
H163   H     0.35171   0.32212   0.05465   0.00000  Uiso   1.00
H164   H     0.30363   0.63151   0.90730   0.00000  Uiso   1.00
H165   H     0.72934   0.57768   0.27163   0.00000  Uiso   1.00
H166   H     0.24749   0.08871   0.02592   0.00000  Uiso   1.00
H167   H     0.14616   0.74109   0.71525   0.00000  Uiso   1.00
H168   H     0.04386   0.62760   0.48352   0.00000  Uiso   1.00
H169   H     0.64395   0.25542   0.04749   0.00000  Uiso   1.00
H170   H     0.53897   0.06031   0.02346   0.00000  Uiso   1.00
H171   H     0.49088   0.36970   0.87611   0.00000  Uiso   1.00
H172   H     0.91659   0.31587   0.24044   0.00000  Uiso   1.00
H173   H     0.39947   0.87621   0.00060   0.00000  Uiso   1.00
H174   H     0.29814   0.52860   0.68993   0.00000  Uiso   1.00
H175   H     0.19583   0.41510   0.45819   0.00000  Uiso   1.00
O176   O     0.25117   0.85859   0.99795   0.00000  Uiso   1.00
O177   O     0.11824   0.71450   0.59038   0.00000  Uiso   1.00
O178   O     0.29600   0.56561   0.59832   0.00000  Uiso   1.00
N179   N     0.29770   0.06547   0.02328   0.00000  Uiso   1.00
N180   N     0.20293   0.67539   0.73282   0.00000  Uiso   1.00
N181   N     0.04220   0.56932   0.45107   0.00000  Uiso   1.00
N182   N     0.37948   0.95112   0.00966   0.00000  Uiso   1.00
N183   N     0.28471   0.56105   0.71919   0.00000  Uiso   1.00
N184   N     0.12398   0.45498   0.43744   0.00000  Uiso   1.00
