data_job_02845
_audit_creation_date              2018-12-19
_audit_creation_method            'Materials Studio'
_symmetry_space_group_name_H-M    'P1'
_symmetry_Int_Tables_number       1
_symmetry_cell_setting            triclinic
loop_
_symmetry_equiv_pos_as_xyz
  x,y,z
_cell_length_a                    21.8308
_cell_length_b                    19.6757
_cell_length_c                    15.0849
_cell_angle_alpha                 90.0000
_cell_angle_beta                  90.0000
_cell_angle_gamma                 90.0000
loop_
_atom_site_label
_atom_site_type_symbol
_atom_site_fract_x
_atom_site_fract_y
_atom_site_fract_z
_atom_site_U_iso_or_equiv
_atom_site_adp_type
_atom_site_occupancy
C1     C     0.28069   0.38226   0.92843   0.00000  Uiso   1.00
C2     C     0.25314   0.45272   0.91490   0.00000  Uiso   1.00
C3     C     0.22142   0.48990   0.97817   0.00000  Uiso   1.00
C4     C     0.19982   0.55335   0.95278   0.00000  Uiso   1.00
C5     C     0.15553   0.65890   0.94478   0.00000  Uiso   1.00
C6     C     0.25281   0.33720   0.85675   0.00000  Uiso   1.00
C7     C     0.22082   0.27726   0.87114   0.00000  Uiso   1.00
C8     C     0.19895   0.24346   0.79680   0.00000  Uiso   1.00
C9     C     0.15418   0.16964   0.69852   0.00000  Uiso   1.00
C10    C     0.34849   0.38876   0.90563   0.00000  Uiso   1.00
C11    C     0.39694   0.37214   0.96110   0.00000  Uiso   1.00
C12    C     0.45563   0.38174   0.92789   0.00000  Uiso   1.00
C13    C     0.55941   0.38797   0.90550   0.00000  Uiso   1.00
C14    C     0.29875   0.42882   0.77082   0.00000  Uiso   1.00
C15    C     0.26295   0.47801   0.82929   0.00000  Uiso   1.00
C16    C     0.24140   0.54142   0.80380   0.00000  Uiso   1.00
C17    C     0.20965   0.57870   0.86702   0.00000  Uiso   1.00
C18    C     0.26262   0.36249   0.77114   0.00000  Uiso   1.00
C19    C     0.24080   0.32878   0.69676   0.00000  Uiso   1.00
C20    C     0.20877   0.26880   0.71103   0.00000  Uiso   1.00
C21    C     0.35830   0.41405   0.82002   0.00000  Uiso   1.00
C22    C     0.41692   0.42367   0.78672   0.00000  Uiso   1.00
C23    C     0.46545   0.40708   0.84213   0.00000  Uiso   1.00
H24    H     0.27305   0.36256   0.99508   0.00000  Uiso   1.00
H25    H     0.21383   0.47031   0.04442   0.00000  Uiso   1.00
H26    H     0.21324   0.25769   0.93740   0.00000  Uiso   1.00
H27    H     0.38934   0.35257   0.02734   0.00000  Uiso   1.00
H28    H     0.15249   0.60091   0.06136   0.00000  Uiso   1.00
H29    H     0.15125   0.15259   0.83570   0.00000  Uiso   1.00
H30    H     0.52258   0.35265   0.02536   0.00000  Uiso   1.00
H31    H     0.30638   0.44852   0.70416   0.00000  Uiso   1.00
H32    H     0.24899   0.56098   0.73754   0.00000  Uiso   1.00
H33    H     0.24840   0.34836   0.63052   0.00000  Uiso   1.00
H34    H     0.42449   0.44324   0.72047   0.00000  Uiso   1.00
H35    H     0.18102   0.67450   0.81228   0.00000  Uiso   1.00
H36    H     0.17978   0.22617   0.58662   0.00000  Uiso   1.00
H37    H     0.55111   0.42624   0.77629   0.00000  Uiso   1.00
O38    O     0.12838   0.71013   0.96402   0.00000  Uiso   1.00
O39    O     0.12677   0.12194   0.66796   0.00000  Uiso   1.00
O40    O     0.61394   0.38442   0.91680   0.00000  Uiso   1.00
N41    N     0.16709   0.60280   0.99816   0.00000  Uiso   1.00
N42    N     0.16592   0.18365   0.78718   0.00000  Uiso   1.00
N43    N     0.51309   0.37068   0.96450   0.00000  Uiso   1.00
N44    N     0.18244   0.64240   0.86414   0.00000  Uiso   1.00
N45    N     0.18128   0.22325   0.65316   0.00000  Uiso   1.00
N46    N     0.52844   0.41028   0.83047   0.00000  Uiso   1.00
C47    C     0.28069   0.88226   0.42843   0.00000  Uiso   1.00
C48    C     0.25314   0.95272   0.41490   0.00000  Uiso   1.00
C49    C     0.22142   0.98990   0.47817   0.00000  Uiso   1.00
C50    C     0.19982   0.05335   0.45278   0.00000  Uiso   1.00
C51    C     0.15553   0.15890   0.44478   0.00000  Uiso   1.00
C52    C     0.25281   0.83720   0.35675   0.00000  Uiso   1.00
C53    C     0.22082   0.77726   0.37114   0.00000  Uiso   1.00
C54    C     0.19895   0.74346   0.29680   0.00000  Uiso   1.00
C55    C     0.15418   0.66964   0.19852   0.00000  Uiso   1.00
C56    C     0.34849   0.88876   0.40563   0.00000  Uiso   1.00
C57    C     0.39694   0.87214   0.46110   0.00000  Uiso   1.00
C58    C     0.45563   0.88174   0.42789   0.00000  Uiso   1.00
C59    C     0.55941   0.88797   0.40550   0.00000  Uiso   1.00
C60    C     0.29875   0.92882   0.27082   0.00000  Uiso   1.00
C61    C     0.26295   0.97801   0.32929   0.00000  Uiso   1.00
C62    C     0.24140   0.04142   0.30380   0.00000  Uiso   1.00
C63    C     0.20965   0.07870   0.36702   0.00000  Uiso   1.00
C64    C     0.26262   0.86249   0.27114   0.00000  Uiso   1.00
C65    C     0.24080   0.82878   0.19676   0.00000  Uiso   1.00
C66    C     0.20877   0.76880   0.21103   0.00000  Uiso   1.00
C67    C     0.35830   0.91405   0.32002   0.00000  Uiso   1.00
C68    C     0.41692   0.92367   0.28672   0.00000  Uiso   1.00
C69    C     0.46545   0.90708   0.34213   0.00000  Uiso   1.00
H70    H     0.27305   0.86256   0.49508   0.00000  Uiso   1.00
H71    H     0.21383   0.97031   0.54442   0.00000  Uiso   1.00
H72    H     0.21324   0.75769   0.43740   0.00000  Uiso   1.00
H73    H     0.38934   0.85257   0.52734   0.00000  Uiso   1.00
H74    H     0.15249   0.10091   0.56136   0.00000  Uiso   1.00
H75    H     0.15125   0.65259   0.33570   0.00000  Uiso   1.00
H76    H     0.52258   0.85265   0.52536   0.00000  Uiso   1.00
H77    H     0.30638   0.94852   0.20416   0.00000  Uiso   1.00
H78    H     0.24899   0.06098   0.23754   0.00000  Uiso   1.00
H79    H     0.24840   0.84836   0.13052   0.00000  Uiso   1.00
H80    H     0.42449   0.94324   0.22047   0.00000  Uiso   1.00
H81    H     0.18102   0.17450   0.31228   0.00000  Uiso   1.00
H82    H     0.17978   0.72617   0.08662   0.00000  Uiso   1.00
H83    H     0.55111   0.92624   0.27629   0.00000  Uiso   1.00
O84    O     0.12838   0.21013   0.46402   0.00000  Uiso   1.00
O85    O     0.12677   0.62194   0.16796   0.00000  Uiso   1.00
O86    O     0.61394   0.88442   0.41680   0.00000  Uiso   1.00
N87    N     0.16709   0.10280   0.49816   0.00000  Uiso   1.00
N88    N     0.16592   0.68365   0.28718   0.00000  Uiso   1.00
N89    N     0.51309   0.87068   0.46450   0.00000  Uiso   1.00
N90    N     0.18244   0.14240   0.36414   0.00000  Uiso   1.00
N91    N     0.18128   0.72325   0.15316   0.00000  Uiso   1.00
N92    N     0.52844   0.91028   0.33047   0.00000  Uiso   1.00
C93    C     0.71931   0.61774   0.92843   0.00000  Uiso   1.00
C94    C     0.74686   0.54728   0.91490   0.00000  Uiso   1.00
C95    C     0.77858   0.51010   0.97817   0.00000  Uiso   1.00
C96    C     0.80018   0.44665   0.95278   0.00000  Uiso   1.00
C97    C     0.84447   0.34110   0.94478   0.00000  Uiso   1.00
C98    C     0.74719   0.66280   0.85675   0.00000  Uiso   1.00
C99    C     0.77918   0.72274   0.87114   0.00000  Uiso   1.00
C100   C     0.80105   0.75654   0.79680   0.00000  Uiso   1.00
C101   C     0.84582   0.83036   0.69852   0.00000  Uiso   1.00
C102   C     0.65151   0.61124   0.90563   0.00000  Uiso   1.00
C103   C     0.60306   0.62786   0.96110   0.00000  Uiso   1.00
C104   C     0.54437   0.61826   0.92789   0.00000  Uiso   1.00
C105   C     0.44059   0.61203   0.90550   0.00000  Uiso   1.00
C106   C     0.70125   0.57118   0.77082   0.00000  Uiso   1.00
C107   C     0.73705   0.52199   0.82929   0.00000  Uiso   1.00
C108   C     0.75860   0.45858   0.80380   0.00000  Uiso   1.00
C109   C     0.79035   0.42130   0.86702   0.00000  Uiso   1.00
C110   C     0.73738   0.63751   0.77114   0.00000  Uiso   1.00
C111   C     0.75920   0.67122   0.69676   0.00000  Uiso   1.00
C112   C     0.79123   0.73120   0.71103   0.00000  Uiso   1.00
C113   C     0.64170   0.58595   0.82002   0.00000  Uiso   1.00
C114   C     0.58308   0.57633   0.78672   0.00000  Uiso   1.00
C115   C     0.53455   0.59292   0.84213   0.00000  Uiso   1.00
H116   H     0.72695   0.63744   0.99508   0.00000  Uiso   1.00
H117   H     0.78617   0.52969   0.04442   0.00000  Uiso   1.00
H118   H     0.78676   0.74231   0.93740   0.00000  Uiso   1.00
H119   H     0.61066   0.64743   0.02734   0.00000  Uiso   1.00
H120   H     0.84751   0.39909   0.06136   0.00000  Uiso   1.00
H121   H     0.84875   0.84741   0.83570   0.00000  Uiso   1.00
H122   H     0.47742   0.64735   0.02536   0.00000  Uiso   1.00
H123   H     0.69362   0.55148   0.70416   0.00000  Uiso   1.00
H124   H     0.75101   0.43902   0.73754   0.00000  Uiso   1.00
H125   H     0.75160   0.65164   0.63052   0.00000  Uiso   1.00
H126   H     0.57551   0.55676   0.72047   0.00000  Uiso   1.00
H127   H     0.81898   0.32550   0.81228   0.00000  Uiso   1.00
H128   H     0.82022   0.77383   0.58662   0.00000  Uiso   1.00
H129   H     0.44889   0.57376   0.77629   0.00000  Uiso   1.00
O130   O     0.87162   0.28987   0.96402   0.00000  Uiso   1.00
O131   O     0.87323   0.87806   0.66796   0.00000  Uiso   1.00
O132   O     0.38606   0.61558   0.91680   0.00000  Uiso   1.00
N133   N     0.83291   0.39720   0.99816   0.00000  Uiso   1.00
N134   N     0.83408   0.81635   0.78718   0.00000  Uiso   1.00
N135   N     0.48691   0.62932   0.96450   0.00000  Uiso   1.00
N136   N     0.81756   0.35760   0.86414   0.00000  Uiso   1.00
N137   N     0.81872   0.77675   0.65316   0.00000  Uiso   1.00
N138   N     0.47156   0.58972   0.83047   0.00000  Uiso   1.00
C139   C     0.71931   0.11774   0.42843   0.00000  Uiso   1.00
C140   C     0.74686   0.04728   0.41490   0.00000  Uiso   1.00
C141   C     0.77858   0.01010   0.47817   0.00000  Uiso   1.00
C142   C     0.80018   0.94665   0.45278   0.00000  Uiso   1.00
C143   C     0.84447   0.84110   0.44478   0.00000  Uiso   1.00
C144   C     0.74719   0.16280   0.35675   0.00000  Uiso   1.00
C145   C     0.77918   0.22274   0.37114   0.00000  Uiso   1.00
C146   C     0.80105   0.25654   0.29680   0.00000  Uiso   1.00
C147   C     0.84582   0.33036   0.19852   0.00000  Uiso   1.00
C148   C     0.65151   0.11124   0.40563   0.00000  Uiso   1.00
C149   C     0.60306   0.12786   0.46110   0.00000  Uiso   1.00
C150   C     0.54437   0.11826   0.42789   0.00000  Uiso   1.00
C151   C     0.44059   0.11203   0.40550   0.00000  Uiso   1.00
C152   C     0.70125   0.07118   0.27082   0.00000  Uiso   1.00
C153   C     0.73705   0.02199   0.32929   0.00000  Uiso   1.00
C154   C     0.75860   0.95858   0.30380   0.00000  Uiso   1.00
C155   C     0.79035   0.92130   0.36702   0.00000  Uiso   1.00
C156   C     0.73738   0.13751   0.27114   0.00000  Uiso   1.00
C157   C     0.75920   0.17122   0.19676   0.00000  Uiso   1.00
C158   C     0.79123   0.23120   0.21103   0.00000  Uiso   1.00
C159   C     0.64170   0.08595   0.32002   0.00000  Uiso   1.00
C160   C     0.58308   0.07633   0.28672   0.00000  Uiso   1.00
C161   C     0.53455   0.09292   0.34213   0.00000  Uiso   1.00
H162   H     0.72695   0.13744   0.49508   0.00000  Uiso   1.00
H163   H     0.78617   0.02969   0.54442   0.00000  Uiso   1.00
H164   H     0.78676   0.24231   0.43740   0.00000  Uiso   1.00
H165   H     0.61066   0.14743   0.52734   0.00000  Uiso   1.00
H166   H     0.84751   0.89909   0.56136   0.00000  Uiso   1.00
H167   H     0.84875   0.34741   0.33570   0.00000  Uiso   1.00
H168   H     0.47742   0.14735   0.52536   0.00000  Uiso   1.00
H169   H     0.69362   0.05148   0.20416   0.00000  Uiso   1.00
H170   H     0.75101   0.93902   0.23754   0.00000  Uiso   1.00
H171   H     0.75160   0.15164   0.13052   0.00000  Uiso   1.00
H172   H     0.57551   0.05676   0.22047   0.00000  Uiso   1.00
H173   H     0.81898   0.82550   0.31228   0.00000  Uiso   1.00
H174   H     0.82022   0.27383   0.08662   0.00000  Uiso   1.00
H175   H     0.44889   0.07376   0.27629   0.00000  Uiso   1.00
O176   O     0.87162   0.78987   0.46402   0.00000  Uiso   1.00
O177   O     0.87323   0.37806   0.16796   0.00000  Uiso   1.00
O178   O     0.38606   0.11558   0.41680   0.00000  Uiso   1.00
N179   N     0.83291   0.89720   0.49816   0.00000  Uiso   1.00
N180   N     0.83408   0.31635   0.28718   0.00000  Uiso   1.00
N181   N     0.48691   0.12932   0.46450   0.00000  Uiso   1.00
N182   N     0.81756   0.85760   0.36414   0.00000  Uiso   1.00
N183   N     0.81872   0.27675   0.15316   0.00000  Uiso   1.00
N184   N     0.47156   0.08972   0.33047   0.00000  Uiso   1.00
C185   C     0.78069   0.11774   0.92843   0.00000  Uiso   1.00
C186   C     0.75314   0.04728   0.91490   0.00000  Uiso   1.00
C187   C     0.72142   0.01010   0.97817   0.00000  Uiso   1.00
C188   C     0.69982   0.94665   0.95278   0.00000  Uiso   1.00
C189   C     0.65553   0.84110   0.94478   0.00000  Uiso   1.00
C190   C     0.75281   0.16280   0.85675   0.00000  Uiso   1.00
C191   C     0.72082   0.22274   0.87114   0.00000  Uiso   1.00
C192   C     0.69895   0.25654   0.79680   0.00000  Uiso   1.00
C193   C     0.65418   0.33036   0.69852   0.00000  Uiso   1.00
C194   C     0.84849   0.11124   0.90563   0.00000  Uiso   1.00
C195   C     0.89694   0.12786   0.96110   0.00000  Uiso   1.00
C196   C     0.95563   0.11826   0.92789   0.00000  Uiso   1.00
C197   C     0.05941   0.11203   0.90550   0.00000  Uiso   1.00
C198   C     0.79875   0.07118   0.77082   0.00000  Uiso   1.00
C199   C     0.76295   0.02199   0.82929   0.00000  Uiso   1.00
C200   C     0.74140   0.95858   0.80380   0.00000  Uiso   1.00
C201   C     0.70965   0.92130   0.86702   0.00000  Uiso   1.00
C202   C     0.76262   0.13751   0.77114   0.00000  Uiso   1.00
C203   C     0.74080   0.17122   0.69676   0.00000  Uiso   1.00
C204   C     0.70877   0.23120   0.71103   0.00000  Uiso   1.00
C205   C     0.85830   0.08595   0.82002   0.00000  Uiso   1.00
C206   C     0.91692   0.07633   0.78672   0.00000  Uiso   1.00
C207   C     0.96545   0.09292   0.84213   0.00000  Uiso   1.00
H208   H     0.77305   0.13744   0.99508   0.00000  Uiso   1.00
H209   H     0.71383   0.02969   0.04442   0.00000  Uiso   1.00
H210   H     0.71324   0.24231   0.93740   0.00000  Uiso   1.00
H211   H     0.88934   0.14743   0.02734   0.00000  Uiso   1.00
H212   H     0.65249   0.89909   0.06136   0.00000  Uiso   1.00
H213   H     0.65125   0.34741   0.83570   0.00000  Uiso   1.00
H214   H     0.02258   0.14735   0.02536   0.00000  Uiso   1.00
H215   H     0.80638   0.05148   0.70416   0.00000  Uiso   1.00
H216   H     0.74899   0.93902   0.73754   0.00000  Uiso   1.00
H217   H     0.74840   0.15164   0.63052   0.00000  Uiso   1.00
H218   H     0.92449   0.05676   0.72047   0.00000  Uiso   1.00
H219   H     0.68102   0.82550   0.81228   0.00000  Uiso   1.00
H220   H     0.67978   0.27383   0.58662   0.00000  Uiso   1.00
H221   H     0.05111   0.07376   0.77629   0.00000  Uiso   1.00
O222   O     0.62838   0.78987   0.96402   0.00000  Uiso   1.00
O223   O     0.62677   0.37806   0.66796   0.00000  Uiso   1.00
O224   O     0.11394   0.11558   0.91680   0.00000  Uiso   1.00
N225   N     0.66709   0.89720   0.99816   0.00000  Uiso   1.00
N226   N     0.66592   0.31635   0.78718   0.00000  Uiso   1.00
N227   N     0.01309   0.12932   0.96450   0.00000  Uiso   1.00
N228   N     0.68244   0.85760   0.86414   0.00000  Uiso   1.00
N229   N     0.68128   0.27675   0.65316   0.00000  Uiso   1.00
N230   N     0.02844   0.08972   0.83047   0.00000  Uiso   1.00
C231   C     0.78069   0.61774   0.42843   0.00000  Uiso   1.00
C232   C     0.75314   0.54728   0.41490   0.00000  Uiso   1.00
C233   C     0.72142   0.51010   0.47817   0.00000  Uiso   1.00
C234   C     0.69982   0.44665   0.45278   0.00000  Uiso   1.00
C235   C     0.65553   0.34110   0.44478   0.00000  Uiso   1.00
C236   C     0.75281   0.66280   0.35675   0.00000  Uiso   1.00
C237   C     0.72082   0.72274   0.37114   0.00000  Uiso   1.00
C238   C     0.69895   0.75654   0.29680   0.00000  Uiso   1.00
C239   C     0.65418   0.83036   0.19852   0.00000  Uiso   1.00
C240   C     0.84849   0.61124   0.40563   0.00000  Uiso   1.00
C241   C     0.89694   0.62786   0.46110   0.00000  Uiso   1.00
C242   C     0.95563   0.61826   0.42789   0.00000  Uiso   1.00
C243   C     0.05941   0.61203   0.40550   0.00000  Uiso   1.00
C244   C     0.79875   0.57118   0.27082   0.00000  Uiso   1.00
C245   C     0.76295   0.52199   0.32929   0.00000  Uiso   1.00
C246   C     0.74140   0.45858   0.30380   0.00000  Uiso   1.00
C247   C     0.70965   0.42130   0.36702   0.00000  Uiso   1.00
C248   C     0.76262   0.63751   0.27114   0.00000  Uiso   1.00
C249   C     0.74080   0.67122   0.19676   0.00000  Uiso   1.00
C250   C     0.70877   0.73120   0.21103   0.00000  Uiso   1.00
C251   C     0.85830   0.58595   0.32002   0.00000  Uiso   1.00
C252   C     0.91692   0.57633   0.28672   0.00000  Uiso   1.00
C253   C     0.96545   0.59292   0.34213   0.00000  Uiso   1.00
H254   H     0.77305   0.63744   0.49508   0.00000  Uiso   1.00
H255   H     0.71383   0.52969   0.54442   0.00000  Uiso   1.00
H256   H     0.71324   0.74231   0.43740   0.00000  Uiso   1.00
H257   H     0.88934   0.64743   0.52734   0.00000  Uiso   1.00
H258   H     0.65249   0.39909   0.56136   0.00000  Uiso   1.00
H259   H     0.65125   0.84741   0.33570   0.00000  Uiso   1.00
H260   H     0.02258   0.64735   0.52536   0.00000  Uiso   1.00
H261   H     0.80638   0.55148   0.20416   0.00000  Uiso   1.00
H262   H     0.74899   0.43902   0.23754   0.00000  Uiso   1.00
H263   H     0.74840   0.65164   0.13052   0.00000  Uiso   1.00
H264   H     0.92449   0.55676   0.22047   0.00000  Uiso   1.00
H265   H     0.68102   0.32550   0.31228   0.00000  Uiso   1.00
H266   H     0.67978   0.77383   0.08662   0.00000  Uiso   1.00
H267   H     0.05111   0.57376   0.27629   0.00000  Uiso   1.00
O268   O     0.62838   0.28987   0.46402   0.00000  Uiso   1.00
O269   O     0.62677   0.87806   0.16796   0.00000  Uiso   1.00
O270   O     0.11394   0.61558   0.41680   0.00000  Uiso   1.00
N271   N     0.66709   0.39720   0.49816   0.00000  Uiso   1.00
N272   N     0.66592   0.81635   0.28718   0.00000  Uiso   1.00
N273   N     0.01309   0.62932   0.46450   0.00000  Uiso   1.00
N274   N     0.68244   0.35760   0.36414   0.00000  Uiso   1.00
N275   N     0.68128   0.77675   0.15316   0.00000  Uiso   1.00
N276   N     0.02844   0.58972   0.33047   0.00000  Uiso   1.00
C277   C     0.21931   0.88226   0.92843   0.00000  Uiso   1.00
C278   C     0.24686   0.95272   0.91490   0.00000  Uiso   1.00
C279   C     0.27858   0.98990   0.97817   0.00000  Uiso   1.00
C280   C     0.30018   0.05335   0.95278   0.00000  Uiso   1.00
C281   C     0.34447   0.15890   0.94478   0.00000  Uiso   1.00
C282   C     0.24719   0.83720   0.85675   0.00000  Uiso   1.00
C283   C     0.27918   0.77726   0.87114   0.00000  Uiso   1.00
C284   C     0.30105   0.74346   0.79680   0.00000  Uiso   1.00
C285   C     0.34582   0.66964   0.69852   0.00000  Uiso   1.00
C286   C     0.15151   0.88876   0.90563   0.00000  Uiso   1.00
C287   C     0.10306   0.87214   0.96110   0.00000  Uiso   1.00
C288   C     0.04437   0.88174   0.92789   0.00000  Uiso   1.00
C289   C     0.94059   0.88797   0.90550   0.00000  Uiso   1.00
C290   C     0.20125   0.92882   0.77082   0.00000  Uiso   1.00
C291   C     0.23705   0.97801   0.82929   0.00000  Uiso   1.00
C292   C     0.25860   0.04142   0.80380   0.00000  Uiso   1.00
C293   C     0.29035   0.07870   0.86702   0.00000  Uiso   1.00
C294   C     0.23738   0.86249   0.77114   0.00000  Uiso   1.00
C295   C     0.25920   0.82878   0.69676   0.00000  Uiso   1.00
C296   C     0.29123   0.76880   0.71103   0.00000  Uiso   1.00
C297   C     0.14170   0.91405   0.82002   0.00000  Uiso   1.00
C298   C     0.08308   0.92367   0.78672   0.00000  Uiso   1.00
C299   C     0.03455   0.90708   0.84213   0.00000  Uiso   1.00
H300   H     0.22695   0.86256   0.99508   0.00000  Uiso   1.00
H301   H     0.28617   0.97031   0.04442   0.00000  Uiso   1.00
H302   H     0.28676   0.75769   0.93740   0.00000  Uiso   1.00
H303   H     0.11066   0.85257   0.02734   0.00000  Uiso   1.00
H304   H     0.34751   0.10091   0.06136   0.00000  Uiso   1.00
H305   H     0.34875   0.65259   0.83570   0.00000  Uiso   1.00
H306   H     0.97742   0.85265   0.02536   0.00000  Uiso   1.00
H307   H     0.19362   0.94852   0.70416   0.00000  Uiso   1.00
H308   H     0.25101   0.06098   0.73754   0.00000  Uiso   1.00
H309   H     0.25160   0.84836   0.63052   0.00000  Uiso   1.00
H310   H     0.07551   0.94324   0.72047   0.00000  Uiso   1.00
H311   H     0.31898   0.17450   0.81228   0.00000  Uiso   1.00
H312   H     0.32022   0.72617   0.58662   0.00000  Uiso   1.00
H313   H     0.94889   0.92624   0.77629   0.00000  Uiso   1.00
O314   O     0.37162   0.21013   0.96402   0.00000  Uiso   1.00
O315   O     0.37323   0.62194   0.66796   0.00000  Uiso   1.00
O316   O     0.88606   0.88442   0.91680   0.00000  Uiso   1.00
N317   N     0.33291   0.10280   0.99816   0.00000  Uiso   1.00
N318   N     0.33408   0.68365   0.78718   0.00000  Uiso   1.00
N319   N     0.98691   0.87068   0.96450   0.00000  Uiso   1.00
N320   N     0.31756   0.14240   0.86414   0.00000  Uiso   1.00
N321   N     0.31872   0.72325   0.65316   0.00000  Uiso   1.00
N322   N     0.97156   0.91028   0.83047   0.00000  Uiso   1.00
C323   C     0.21931   0.38226   0.42843   0.00000  Uiso   1.00
C324   C     0.24686   0.45272   0.41490   0.00000  Uiso   1.00
C325   C     0.27858   0.48990   0.47817   0.00000  Uiso   1.00
C326   C     0.30018   0.55335   0.45278   0.00000  Uiso   1.00
C327   C     0.34447   0.65890   0.44478   0.00000  Uiso   1.00
C328   C     0.24719   0.33720   0.35675   0.00000  Uiso   1.00
C329   C     0.27918   0.27726   0.37114   0.00000  Uiso   1.00
C330   C     0.30105   0.24346   0.29680   0.00000  Uiso   1.00
C331   C     0.34582   0.16964   0.19852   0.00000  Uiso   1.00
C332   C     0.15151   0.38876   0.40563   0.00000  Uiso   1.00
C333   C     0.10306   0.37214   0.46110   0.00000  Uiso   1.00
C334   C     0.04437   0.38174   0.42789   0.00000  Uiso   1.00
C335   C     0.94059   0.38797   0.40550   0.00000  Uiso   1.00
C336   C     0.20125   0.42882   0.27082   0.00000  Uiso   1.00
C337   C     0.23705   0.47801   0.32929   0.00000  Uiso   1.00
C338   C     0.25860   0.54142   0.30380   0.00000  Uiso   1.00
C339   C     0.29035   0.57870   0.36702   0.00000  Uiso   1.00
C340   C     0.23738   0.36249   0.27114   0.00000  Uiso   1.00
C341   C     0.25920   0.32878   0.19676   0.00000  Uiso   1.00
C342   C     0.29123   0.26880   0.21103   0.00000  Uiso   1.00
C343   C     0.14170   0.41405   0.32002   0.00000  Uiso   1.00
C344   C     0.08308   0.42367   0.28672   0.00000  Uiso   1.00
C345   C     0.03455   0.40708   0.34213   0.00000  Uiso   1.00
H346   H     0.22695   0.36256   0.49508   0.00000  Uiso   1.00
H347   H     0.28617   0.47031   0.54442   0.00000  Uiso   1.00
H348   H     0.28676   0.25769   0.43740   0.00000  Uiso   1.00
H349   H     0.11066   0.35257   0.52734   0.00000  Uiso   1.00
H350   H     0.34751   0.60091   0.56136   0.00000  Uiso   1.00
H351   H     0.34875   0.15259   0.33570   0.00000  Uiso   1.00
H352   H     0.97742   0.35265   0.52536   0.00000  Uiso   1.00
H353   H     0.19362   0.44852   0.20416   0.00000  Uiso   1.00
H354   H     0.25101   0.56098   0.23754   0.00000  Uiso   1.00
H355   H     0.25160   0.34836   0.13052   0.00000  Uiso   1.00
H356   H     0.07551   0.44324   0.22047   0.00000  Uiso   1.00
H357   H     0.31898   0.67450   0.31228   0.00000  Uiso   1.00
H358   H     0.32022   0.22617   0.08662   0.00000  Uiso   1.00
H359   H     0.94889   0.42624   0.27629   0.00000  Uiso   1.00
O360   O     0.37162   0.71013   0.46402   0.00000  Uiso   1.00
O361   O     0.37323   0.12194   0.16796   0.00000  Uiso   1.00
O362   O     0.88606   0.38442   0.41680   0.00000  Uiso   1.00
N363   N     0.33291   0.60280   0.49816   0.00000  Uiso   1.00
N364   N     0.33408   0.18365   0.28718   0.00000  Uiso   1.00
N365   N     0.98691   0.37068   0.46450   0.00000  Uiso   1.00
N366   N     0.31756   0.64240   0.36414   0.00000  Uiso   1.00
N367   N     0.31872   0.22325   0.15316   0.00000  Uiso   1.00
N368   N     0.97156   0.41028   0.33047   0.00000  Uiso   1.00
