data_job_05493
_audit_creation_date              2018-12-19
_audit_creation_method            'Materials Studio'
_symmetry_space_group_name_H-M    'P1'
_symmetry_Int_Tables_number       1
_symmetry_cell_setting            triclinic
loop_
_symmetry_equiv_pos_as_xyz
  x,y,z
_cell_length_a                    14.2297
_cell_length_b                    23.1377
_cell_length_c                    9.4922
_cell_angle_alpha                 90.0000
_cell_angle_beta                  90.0000
_cell_angle_gamma                 90.0000
loop_
_atom_site_label
_atom_site_type_symbol
_atom_site_fract_x
_atom_site_fract_y
_atom_site_fract_z
_atom_site_U_iso_or_equiv
_atom_site_adp_type
_atom_site_occupancy
C1     C     0.16077   0.92454   0.14907   0.00000  Uiso   1.00
C2     C     0.15127   0.92489   0.98905   0.00000  Uiso   1.00
C3     C     0.06736   0.92489   0.91453   0.00000  Uiso   1.00
C4     C     0.07359   0.92523   0.76857   0.00000  Uiso   1.00
C5     C     0.04559   0.92570   0.53057   0.00000  Uiso   1.00
C6     C     0.22071   0.87192   0.18493   0.00000  Uiso   1.00
C7     C     0.19519   0.82739   0.27511   0.00000  Uiso   1.00
C8     C     0.25989   0.78314   0.29404   0.00000  Uiso   1.00
C9     C     0.33972   0.70140   0.36022   0.00000  Uiso   1.00
C10    C     0.22017   0.97721   0.18640   0.00000  Uiso   1.00
C11    C     0.19422   0.02120   0.27785   0.00000  Uiso   1.00
C12    C     0.25847   0.06560   0.29805   0.00000  Uiso   1.00
C13    C     0.33747   0.14733   0.36652   0.00000  Uiso   1.00
C14    C     0.32104   0.92514   0.02237   0.00000  Uiso   1.00
C15    C     0.23832   0.92522   0.92024   0.00000  Uiso   1.00
C16    C     0.24468   0.92556   0.77435   0.00000  Uiso   1.00
C17    C     0.16080   0.92556   0.69962   0.00000  Uiso   1.00
C18    C     0.30776   0.87225   0.11611   0.00000  Uiso   1.00
C19    C     0.37251   0.82806   0.13492   0.00000  Uiso   1.00
C20    C     0.34709   0.78347   0.22510   0.00000  Uiso   1.00
C21    C     0.30722   0.97754   0.11758   0.00000  Uiso   1.00
C22    C     0.37153   0.02187   0.13765   0.00000  Uiso   1.00
C23    C     0.34568   0.06593   0.22911   0.00000  Uiso   1.00
H24    H     0.09300   0.92428   0.20266   0.00000  Uiso   1.00
H25    H     0.00001   0.92463   0.96783   0.00000  Uiso   1.00
H26    H     0.12783   0.82715   0.32836   0.00000  Uiso   1.00
H27    H     0.12685   0.02093   0.33109   0.00000  Uiso   1.00
H28    H     0.93530   0.92515   0.67713   0.00000  Uiso   1.00
H29    H     0.20482   0.71961   0.43736   0.00000  Uiso   1.00
H30    H     0.20275   0.12824   0.44313   0.00000  Uiso   1.00
H31    H     0.38882   0.92540   0.96879   0.00000  Uiso   1.00
H32    H     0.31205   0.92582   0.72112   0.00000  Uiso   1.00
H33    H     0.43987   0.82833   0.08165   0.00000  Uiso   1.00
H34    H     0.43889   0.02211   0.08438   0.00000  Uiso   1.00
H35    H     0.18857   0.92611   0.47689   0.00000  Uiso   1.00
H36    H     0.45808   0.72057   0.23714   0.00000  Uiso   1.00
H37    H     0.45602   0.12920   0.24289   0.00000  Uiso   1.00
O38    O     0.00610   0.92586   0.41831   0.00000  Uiso   1.00
O39    O     0.35970   0.65621   0.41573   0.00000  Uiso   1.00
O40    O     0.35699   0.19232   0.42328   0.00000  Uiso   1.00
N41    N     0.00544   0.92533   0.66400   0.00000  Uiso   1.00
N42    N     0.25742   0.73316   0.37475   0.00000  Uiso   1.00
N43    N     0.25550   0.11518   0.38017   0.00000  Uiso   1.00
N44    N     0.14172   0.92584   0.55625   0.00000  Uiso   1.00
N45    N     0.39370   0.73367   0.26700   0.00000  Uiso   1.00
N46    N     0.39178   0.11570   0.27242   0.00000  Uiso   1.00
C47    C     0.83923   0.07546   0.14907   0.00000  Uiso   1.00
C48    C     0.84873   0.07511   0.98905   0.00000  Uiso   1.00
C49    C     0.93264   0.07511   0.91453   0.00000  Uiso   1.00
C50    C     0.92641   0.07477   0.76857   0.00000  Uiso   1.00
C51    C     0.95441   0.07430   0.53057   0.00000  Uiso   1.00
C52    C     0.77929   0.12808   0.18493   0.00000  Uiso   1.00
C53    C     0.80481   0.17261   0.27511   0.00000  Uiso   1.00
C54    C     0.74011   0.21686   0.29404   0.00000  Uiso   1.00
C55    C     0.66028   0.29860   0.36022   0.00000  Uiso   1.00
C56    C     0.77983   0.02279   0.18640   0.00000  Uiso   1.00
C57    C     0.80578   0.97880   0.27785   0.00000  Uiso   1.00
C58    C     0.74153   0.93440   0.29805   0.00000  Uiso   1.00
C59    C     0.66253   0.85267   0.36652   0.00000  Uiso   1.00
C60    C     0.67896   0.07486   0.02237   0.00000  Uiso   1.00
C61    C     0.76168   0.07478   0.92024   0.00000  Uiso   1.00
C62    C     0.75532   0.07444   0.77435   0.00000  Uiso   1.00
C63    C     0.83920   0.07444   0.69962   0.00000  Uiso   1.00
C64    C     0.69224   0.12775   0.11611   0.00000  Uiso   1.00
C65    C     0.62749   0.17194   0.13492   0.00000  Uiso   1.00
C66    C     0.65291   0.21653   0.22510   0.00000  Uiso   1.00
C67    C     0.69278   0.02246   0.11758   0.00000  Uiso   1.00
C68    C     0.62847   0.97813   0.13765   0.00000  Uiso   1.00
C69    C     0.65432   0.93407   0.22911   0.00000  Uiso   1.00
H70    H     0.90700   0.07572   0.20266   0.00000  Uiso   1.00
H71    H    -0.00001   0.07537   0.96783   0.00000  Uiso   1.00
H72    H     0.87217   0.17285   0.32836   0.00000  Uiso   1.00
H73    H     0.87315   0.97907   0.33109   0.00000  Uiso   1.00
H74    H     0.06470   0.07485   0.67713   0.00000  Uiso   1.00
H75    H     0.79518   0.28039   0.43736   0.00000  Uiso   1.00
H76    H     0.79725   0.87176   0.44313   0.00000  Uiso   1.00
H77    H     0.61118   0.07460   0.96879   0.00000  Uiso   1.00
H78    H     0.68795   0.07418   0.72112   0.00000  Uiso   1.00
H79    H     0.56013   0.17167   0.08165   0.00000  Uiso   1.00
H80    H     0.56111   0.97789   0.08438   0.00000  Uiso   1.00
H81    H     0.81143   0.07389   0.47689   0.00000  Uiso   1.00
H82    H     0.54192   0.27943   0.23714   0.00000  Uiso   1.00
H83    H     0.54398   0.87080   0.24289   0.00000  Uiso   1.00
O84    O     0.99390   0.07414   0.41831   0.00000  Uiso   1.00
O85    O     0.64030   0.34379   0.41573   0.00000  Uiso   1.00
O86    O     0.64301   0.80768   0.42328   0.00000  Uiso   1.00
N87    N     0.99456   0.07467   0.66400   0.00000  Uiso   1.00
N88    N     0.74258   0.26684   0.37475   0.00000  Uiso   1.00
N89    N     0.74450   0.88482   0.38017   0.00000  Uiso   1.00
N90    N     0.85828   0.07416   0.55625   0.00000  Uiso   1.00
N91    N     0.60630   0.26633   0.26700   0.00000  Uiso   1.00
N92    N     0.60822   0.88430   0.27242   0.00000  Uiso   1.00
C93    C     0.33923   0.42454   0.85093   0.00000  Uiso   1.00
C94    C     0.34873   0.42489   0.01095   0.00000  Uiso   1.00
C95    C     0.43264   0.42489   0.08547   0.00000  Uiso   1.00
C96    C     0.42641   0.42523   0.23143   0.00000  Uiso   1.00
C97    C     0.45441   0.42570   0.46943   0.00000  Uiso   1.00
C98    C     0.27929   0.37192   0.81507   0.00000  Uiso   1.00
C99    C     0.30481   0.32739   0.72489   0.00000  Uiso   1.00
C100   C     0.24011   0.28314   0.70596   0.00000  Uiso   1.00
C101   C     0.16028   0.20140   0.63978   0.00000  Uiso   1.00
C102   C     0.27983   0.47721   0.81360   0.00000  Uiso   1.00
C103   C     0.30578   0.52120   0.72215   0.00000  Uiso   1.00
C104   C     0.24153   0.56560   0.70195   0.00000  Uiso   1.00
C105   C     0.16253   0.64733   0.63348   0.00000  Uiso   1.00
C106   C     0.17896   0.42514   0.97763   0.00000  Uiso   1.00
C107   C     0.26168   0.42522   0.07976   0.00000  Uiso   1.00
C108   C     0.25532   0.42556   0.22565   0.00000  Uiso   1.00
C109   C     0.33920   0.42556   0.30038   0.00000  Uiso   1.00
C110   C     0.19224   0.37225   0.88389   0.00000  Uiso   1.00
C111   C     0.12749   0.32806   0.86508   0.00000  Uiso   1.00
C112   C     0.15291   0.28347   0.77490   0.00000  Uiso   1.00
C113   C     0.19278   0.47754   0.88242   0.00000  Uiso   1.00
C114   C     0.12847   0.52187   0.86235   0.00000  Uiso   1.00
C115   C     0.15432   0.56593   0.77089   0.00000  Uiso   1.00
H116   H     0.40700   0.42428   0.79734   0.00000  Uiso   1.00
H117   H     0.49999   0.42463   0.03217   0.00000  Uiso   1.00
H118   H     0.37217   0.32715   0.67164   0.00000  Uiso   1.00
H119   H     0.37315   0.52093   0.66891   0.00000  Uiso   1.00
H120   H     0.56470   0.42515   0.32287   0.00000  Uiso   1.00
H121   H     0.29518   0.21961   0.56264   0.00000  Uiso   1.00
H122   H     0.29725   0.62824   0.55687   0.00000  Uiso   1.00
H123   H     0.11118   0.42540   0.03121   0.00000  Uiso   1.00
H124   H     0.18795   0.42582   0.27888   0.00000  Uiso   1.00
H125   H     0.06013   0.32833   0.91835   0.00000  Uiso   1.00
H126   H     0.06111   0.52211   0.91562   0.00000  Uiso   1.00
H127   H     0.31143   0.42611   0.52311   0.00000  Uiso   1.00
H128   H     0.04192   0.22057   0.76286   0.00000  Uiso   1.00
H129   H     0.04398   0.62920   0.75711   0.00000  Uiso   1.00
O130   O     0.49390   0.42586   0.58169   0.00000  Uiso   1.00
O131   O     0.14030   0.15621   0.58427   0.00000  Uiso   1.00
O132   O     0.14301   0.69232   0.57672   0.00000  Uiso   1.00
N133   N     0.49456   0.42533   0.33600   0.00000  Uiso   1.00
N134   N     0.24258   0.23316   0.62525   0.00000  Uiso   1.00
N135   N     0.24450   0.61518   0.61983   0.00000  Uiso   1.00
N136   N     0.35828   0.42584   0.44375   0.00000  Uiso   1.00
N137   N     0.10630   0.23367   0.73300   0.00000  Uiso   1.00
N138   N     0.10822   0.61570   0.72758   0.00000  Uiso   1.00
C139   C     0.66077   0.57546   0.85093   0.00000  Uiso   1.00
C140   C     0.65127   0.57511   0.01095   0.00000  Uiso   1.00
C141   C     0.56736   0.57511   0.08547   0.00000  Uiso   1.00
C142   C     0.57359   0.57477   0.23143   0.00000  Uiso   1.00
C143   C     0.54559   0.57430   0.46943   0.00000  Uiso   1.00
C144   C     0.72071   0.62808   0.81507   0.00000  Uiso   1.00
C145   C     0.69519   0.67261   0.72489   0.00000  Uiso   1.00
C146   C     0.75989   0.71686   0.70596   0.00000  Uiso   1.00
C147   C     0.83972   0.79860   0.63978   0.00000  Uiso   1.00
C148   C     0.72017   0.52279   0.81360   0.00000  Uiso   1.00
C149   C     0.69422   0.47880   0.72215   0.00000  Uiso   1.00
C150   C     0.75847   0.43440   0.70195   0.00000  Uiso   1.00
C151   C     0.83747   0.35267   0.63348   0.00000  Uiso   1.00
C152   C     0.82104   0.57486   0.97763   0.00000  Uiso   1.00
C153   C     0.73832   0.57478   0.07976   0.00000  Uiso   1.00
C154   C     0.74468   0.57444   0.22565   0.00000  Uiso   1.00
C155   C     0.66080   0.57444   0.30038   0.00000  Uiso   1.00
C156   C     0.80776   0.62775   0.88389   0.00000  Uiso   1.00
C157   C     0.87251   0.67194   0.86508   0.00000  Uiso   1.00
C158   C     0.84709   0.71653   0.77490   0.00000  Uiso   1.00
C159   C     0.80722   0.52246   0.88242   0.00000  Uiso   1.00
C160   C     0.87153   0.47813   0.86235   0.00000  Uiso   1.00
C161   C     0.84568   0.43407   0.77089   0.00000  Uiso   1.00
H162   H     0.59300   0.57572   0.79734   0.00000  Uiso   1.00
H163   H     0.50001   0.57537   0.03217   0.00000  Uiso   1.00
H164   H     0.62783   0.67285   0.67164   0.00000  Uiso   1.00
H165   H     0.62685   0.47907   0.66891   0.00000  Uiso   1.00
H166   H     0.43530   0.57485   0.32287   0.00000  Uiso   1.00
H167   H     0.70482   0.78039   0.56264   0.00000  Uiso   1.00
H168   H     0.70275   0.37176   0.55687   0.00000  Uiso   1.00
H169   H     0.88882   0.57460   0.03121   0.00000  Uiso   1.00
H170   H     0.81205   0.57418   0.27888   0.00000  Uiso   1.00
H171   H     0.93987   0.67167   0.91835   0.00000  Uiso   1.00
H172   H     0.93889   0.47789   0.91562   0.00000  Uiso   1.00
H173   H     0.68857   0.57389   0.52311   0.00000  Uiso   1.00
H174   H     0.95808   0.77943   0.76286   0.00000  Uiso   1.00
H175   H     0.95602   0.37080   0.75711   0.00000  Uiso   1.00
O176   O     0.50610   0.57414   0.58169   0.00000  Uiso   1.00
O177   O     0.85970   0.84379   0.58427   0.00000  Uiso   1.00
O178   O     0.85699   0.30768   0.57672   0.00000  Uiso   1.00
N179   N     0.50544   0.57467   0.33600   0.00000  Uiso   1.00
N180   N     0.75742   0.76684   0.62525   0.00000  Uiso   1.00
N181   N     0.75550   0.38482   0.61983   0.00000  Uiso   1.00
N182   N     0.64172   0.57416   0.44375   0.00000  Uiso   1.00
N183   N     0.89370   0.76633   0.73300   0.00000  Uiso   1.00
N184   N     0.89178   0.38430   0.72758   0.00000  Uiso   1.00
