data_job_06395
_audit_creation_date              2018-12-19
_audit_creation_method            'Materials Studio'
_symmetry_space_group_name_H-M    'P1'
_symmetry_Int_Tables_number       1
_symmetry_cell_setting            triclinic
loop_
_symmetry_equiv_pos_as_xyz
  x,y,z
_cell_length_a                    12.7481
_cell_length_b                    18.6396
_cell_length_c                    18.6771
_cell_angle_alpha                 65.0930
_cell_angle_beta                  77.0436
_cell_angle_gamma                 102.9324
loop_
_atom_site_label
_atom_site_type_symbol
_atom_site_fract_x
_atom_site_fract_y
_atom_site_fract_z
_atom_site_U_iso_or_equiv
_atom_site_adp_type
_atom_site_occupancy
C1     C     0.93531   0.16531   0.55761   0.00000  Uiso   1.00
C2     C     0.02402   0.14030   0.59589   0.00000  Uiso   1.00
C3     C     0.00860   0.10434   0.68117   0.00000  Uiso   1.00
C4     C     0.10016   0.08610   0.70345   0.00000  Uiso   1.00
C5     C     0.22222   0.04470   0.77215   0.00000  Uiso   1.00
C6     C     0.99410   0.25908   0.49124   0.00000  Uiso   1.00
C7     C     0.95350   0.32299   0.48853   0.00000  Uiso   1.00
C8     C     0.01987   0.40474   0.42270   0.00000  Uiso   1.00
C9     C     0.09542   0.54774   0.32890   0.00000  Uiso   1.00
C10    C     0.91806   0.11817   0.50888   0.00000  Uiso   1.00
C11    C     0.81352   0.06362   0.52097   0.00000  Uiso   1.00
C12    C     0.81586   0.02675   0.46998   0.00000  Uiso   1.00
C13    C     0.77336   0.95097   0.40356   0.00000  Uiso   1.00
C14    C     0.12535   0.19686   0.44554   0.00000  Uiso   1.00
C15    C     0.12724   0.15744   0.53502   0.00000  Uiso   1.00
C16    C     0.21885   0.13924   0.55718   0.00000  Uiso   1.00
C17    C     0.20356   0.10326   0.64247   0.00000  Uiso   1.00
C18    C     0.09731   0.27622   0.43037   0.00000  Uiso   1.00
C19    C     0.16375   0.35790   0.36454   0.00000  Uiso   1.00
C20    C     0.12327   0.42191   0.36172   0.00000  Uiso   1.00
C21    C     0.02127   0.13531   0.44801   0.00000  Uiso   1.00
C22    C     0.02378   0.09852   0.39699   0.00000  Uiso   1.00
C23    C     0.91927   0.04392   0.40900   0.00000  Uiso   1.00
H24    H     0.85496   0.15197   0.60499   0.00000  Uiso   1.00
H25    H     0.92871   0.09109   0.72825   0.00000  Uiso   1.00
H26    H     0.87362   0.30971   0.53563   0.00000  Uiso   1.00
H27    H     0.73366   0.05037   0.56808   0.00000  Uiso   1.00
H28    H     0.05601   0.03118   0.83806   0.00000  Uiso   1.00
H29    H     0.93983   0.49214   0.43190   0.00000  Uiso   1.00
H30    H     0.64471   0.94528   0.50032   0.00000  Uiso   1.00
H31    H     0.20571   0.21020   0.39814   0.00000  Uiso   1.00
H32    H     0.29871   0.15251   0.51006   0.00000  Uiso   1.00
H33    H     0.24362   0.37113   0.31744   0.00000  Uiso   1.00
H34    H     0.10367   0.11180   0.34989   0.00000  Uiso   1.00
H35    H     0.35632   0.08104   0.66097   0.00000  Uiso   1.00
H36    H     0.24013   0.54200   0.25480   0.00000  Uiso   1.00
H37    H     0.94502   0.99514   0.32322   0.00000  Uiso   1.00
O38    O     0.26103   0.01714   0.82686   0.00000  Uiso   1.00
O39    O     0.10859   0.62189   0.29399   0.00000  Uiso   1.00
O40    O     0.72140   0.90443   0.38375   0.00000  Uiso   1.00
N41    N     0.11392   0.05082   0.78103   0.00000  Uiso   1.00
N42    N     0.00530   0.48179   0.40130   0.00000  Uiso   1.00
N43    N     0.72938   0.97054   0.46525   0.00000  Uiso   1.00
N44    N     0.27551   0.07764   0.68573   0.00000  Uiso   1.00
N45    N     0.16690   0.50861   0.30600   0.00000  Uiso   1.00
N46    N     0.89098   0.99737   0.36995   0.00000  Uiso   1.00
C47    C     0.76903   0.27692   0.16555   0.00000  Uiso   1.00
C48    C     0.88225   0.26322   0.14104   0.00000  Uiso   1.00
C49    C     0.90251   0.21371   0.10494   0.00000  Uiso   1.00
C50    C     0.01186   0.20928   0.08721   0.00000  Uiso   1.00
C51    C     0.17458   0.18135   0.04648   0.00000  Uiso   1.00
C52    C     0.73496   0.24992   0.25928   0.00000  Uiso   1.00
C53    C     0.63138   0.18924   0.32259   0.00000  Uiso   1.00
C54    C     0.61675   0.17363   0.40440   0.00000  Uiso   1.00
C55    C     0.55076   0.12509   0.54724   0.00000  Uiso   1.00
C56    C     0.79827   0.37257   0.11878   0.00000  Uiso   1.00
C57    C     0.74790   0.41501   0.06397   0.00000  Uiso   1.00
C58    C     0.78656   0.50266   0.02751   0.00000  Uiso   1.00
C59    C     0.81888   0.64455   0.95219   0.00000  Uiso   1.00
C60    C     0.92722   0.35711   0.19827   0.00000  Uiso   1.00
C61    C     0.96817   0.30678   0.15881   0.00000  Uiso   1.00
C62    C     0.07753   0.30243   0.14114   0.00000  Uiso   1.00
C63    C     0.09795   0.25292   0.10501   0.00000  Uiso   1.00
C64    C     0.82088   0.29348   0.27705   0.00000  Uiso   1.00
C65    C     0.80640   0.27796   0.35879   0.00000  Uiso   1.00
C66    C     0.70282   0.21726   0.42221   0.00000  Uiso   1.00
C67    C     0.88420   0.41613   0.13655   0.00000  Uiso   1.00
C68    C     0.92293   0.50373   0.10017   0.00000  Uiso   1.00
C69    C     0.87263   0.54629   0.04531   0.00000  Uiso   1.00
H70    H     0.70213   0.24301   0.15173   0.00000  Uiso   1.00
H71    H     0.83598   0.18000   0.09120   0.00000  Uiso   1.00
H72    H     0.56489   0.15554   0.30882   0.00000  Uiso   1.00
H73    H     0.68141   0.38128   0.05024   0.00000  Uiso   1.00
H74    H     0.02227   0.12933   0.03196   0.00000  Uiso   1.00
H75    H     0.45065   0.07778   0.49082   0.00000  Uiso   1.00
H76    H     0.69634   0.55379   0.94555   0.00000  Uiso   1.00
H77    H     0.99411   0.39103   0.21211   0.00000  Uiso   1.00
H78    H     0.14400   0.33614   0.15490   0.00000  Uiso   1.00
H79    H     0.87290   0.31168   0.37252   0.00000  Uiso   1.00
H80    H     0.98942   0.53742   0.11394   0.00000  Uiso   1.00
H81    H     0.27227   0.25606   0.08367   0.00000  Uiso   1.00
H82    H     0.70064   0.20451   0.54252   0.00000  Uiso   1.00
H83    H     0.94634   0.68051   0.99725   0.00000  Uiso   1.00
O84    O     0.24059   0.15390   0.01911   0.00000  Uiso   1.00
O85    O     0.49063   0.08628   0.62111   0.00000  Uiso   1.00
O86    O     0.81298   0.71078   0.90573   0.00000  Uiso   1.00
N87    N     0.06055   0.16670   0.05197   0.00000  Uiso   1.00
N88    N     0.52612   0.11850   0.48097   0.00000  Uiso   1.00
N89    N     0.75580   0.56352   0.97121   0.00000  Uiso   1.00
N90    N     0.19507   0.23489   0.07979   0.00000  Uiso   1.00
N91    N     0.66064   0.18669   0.50879   0.00000  Uiso   1.00
N92    N     0.89032   0.63171   0.99903   0.00000  Uiso   1.00
C93    C     0.49511   0.55835   0.27630   0.00000  Uiso   1.00
C94    C     0.62151   0.59617   0.26336   0.00000  Uiso   1.00
C95    C     0.69054   0.68144   0.21437   0.00000  Uiso   1.00
C96    C     0.80395   0.70325   0.21060   0.00000  Uiso   1.00
C97    C     0.99374   0.77129   0.18383   0.00000  Uiso   1.00
C98    C     0.48794   0.49153   0.24898   0.00000  Uiso   1.00
C99    C     0.44465   0.48882   0.18792   0.00000  Uiso   1.00
C100   C     0.44560   0.42253   0.17206   0.00000  Uiso   1.00
C101   C     0.42794   0.32809   0.12301   0.00000  Uiso   1.00
C102   C     0.42977   0.50999   0.37167   0.00000  Uiso   1.00
C103   C     0.33755   0.52277   0.41376   0.00000  Uiso   1.00
C104   C     0.28950   0.47201   0.50120   0.00000  Uiso   1.00
C105   C     0.18152   0.40622   0.64264   0.00000  Uiso   1.00
C106   C     0.57375   0.44545   0.35672   0.00000  Uiso   1.00
C107   C     0.66423   0.53484   0.30704   0.00000  Uiso   1.00
C108   C     0.77755   0.55652   0.30335   0.00000  Uiso   1.00
C109   C     0.84674   0.64182   0.25437   0.00000  Uiso   1.00
C110   C     0.53065   0.43020   0.29266   0.00000  Uiso   1.00
C111   C     0.53166   0.36390   0.27690   0.00000  Uiso   1.00
C112   C     0.48840   0.36109   0.21582   0.00000  Uiso   1.00
C113   C     0.47248   0.44866   0.41535   0.00000  Uiso   1.00
C114   C     0.42456   0.39786   0.50274   0.00000  Uiso   1.00
C115   C     0.33229   0.41057   0.54496   0.00000  Uiso   1.00
H116   H     0.46185   0.60609   0.24229   0.00000  Uiso   1.00
H117   H     0.65746   0.72888   0.18057   0.00000  Uiso   1.00
H118   H     0.41159   0.53628   0.15413   0.00000  Uiso   1.00
H119   H     0.30451   0.57024   0.37994   0.00000  Uiso   1.00
H120   H     0.89318   0.83797   0.13138   0.00000  Uiso   1.00
H121   H     0.37472   0.43184   0.07565   0.00000  Uiso   1.00
H122   H     0.14892   0.50344   0.55181   0.00000  Uiso   1.00
H123   H     0.60701   0.39770   0.39073   0.00000  Uiso   1.00
H124   H     0.81059   0.50905   0.33716   0.00000  Uiso   1.00
H125   H     0.56472   0.31645   0.31072   0.00000  Uiso   1.00
H126   H     0.45764   0.35041   0.53652   0.00000  Uiso   1.00
H127   H     0.01746   0.65954   0.25847   0.00000  Uiso   1.00
H128   H     0.49900   0.25342   0.20274   0.00000  Uiso   1.00
H129   H     0.27320   0.32502   0.67890   0.00000  Uiso   1.00
O130   O     0.08663   0.82576   0.15698   0.00000  Uiso   1.00
O131   O     0.40641   0.29294   0.08388   0.00000  Uiso   1.00
O132   O     0.11017   0.38688   0.70859   0.00000  Uiso   1.00
N133   N     0.89448   0.78069   0.16866   0.00000  Uiso   1.00
N134   N     0.40977   0.40100   0.11654   0.00000  Uiso   1.00
N135   N     0.19865   0.46793   0.56171   0.00000  Uiso   1.00
N136   N     0.96136   0.68469   0.23704   0.00000  Uiso   1.00
N137   N     0.47665   0.30499   0.18493   0.00000  Uiso   1.00
N138   N     0.26552   0.37192   0.63010   0.00000  Uiso   1.00
C139   C     0.43532   0.44263   0.83448   0.00000  Uiso   1.00
C140   C     0.52402   0.40426   0.85945   0.00000  Uiso   1.00
C141   C     0.50857   0.31881   0.89543   0.00000  Uiso   1.00
C142   C     0.60012   0.29647   0.91363   0.00000  Uiso   1.00
C143   C     0.72217   0.22761   0.95498   0.00000  Uiso   1.00
C144   C     0.49409   0.50904   0.74086   0.00000  Uiso   1.00
C145   C     0.45345   0.51170   0.67713   0.00000  Uiso   1.00
C146   C     0.51981   0.57758   0.59550   0.00000  Uiso   1.00
C147   C     0.59534   0.67144   0.45274   0.00000  Uiso   1.00
C148   C     0.41812   0.49154   0.88144   0.00000  Uiso   1.00
C149   C     0.31361   0.47951   0.93589   0.00000  Uiso   1.00
C150   C     0.31601   0.53068   0.97260   0.00000  Uiso   1.00
C151   C     0.27359   0.59737   0.04811   0.00000  Uiso   1.00
C152   C     0.62540   0.55492   0.80284   0.00000  Uiso   1.00
C153   C     0.62726   0.46525   0.84226   0.00000  Uiso   1.00
C154   C     0.71887   0.44303   0.86042   0.00000  Uiso   1.00
C155   C     0.70355   0.35757   0.89642   0.00000  Uiso   1.00
C156   C     0.59733   0.57003   0.72367   0.00000  Uiso   1.00
C157   C     0.66376   0.63593   0.64212   0.00000  Uiso   1.00
C158   C     0.62324   0.63868   0.57828   0.00000  Uiso   1.00
C159   C     0.52137   0.55253   0.86426   0.00000  Uiso   1.00
C160   C     0.52392   0.60373   0.90088   0.00000  Uiso   1.00
C161   C     0.41944   0.59177   0.95538   0.00000  Uiso   1.00
H162   H     0.35494   0.39515   0.84786   0.00000  Uiso   1.00
H163   H     0.42866   0.27163   0.90871   0.00000  Uiso   1.00
H164   H     0.37355   0.46450   0.69045   0.00000  Uiso   1.00
H165   H     0.23374   0.43231   0.94917   0.00000  Uiso   1.00
H166   H     0.55593   0.16158   0.96857   0.00000  Uiso   1.00
H167   H     0.43971   0.56827   0.50835   0.00000  Uiso   1.00
H168   H     0.14489   0.50039   0.05392   0.00000  Uiso   1.00
H169   H     0.70579   0.60240   0.78946   0.00000  Uiso   1.00
H170   H     0.79876   0.49024   0.84711   0.00000  Uiso   1.00
H171   H     0.74365   0.68311   0.62884   0.00000  Uiso   1.00
H172   H     0.60383   0.65092   0.88757   0.00000  Uiso   1.00
H173   H     0.85632   0.33902   0.91857   0.00000  Uiso   1.00
H174   H     0.74010   0.74571   0.45835   0.00000  Uiso   1.00
H175   H     0.44527   0.67783   0.00393   0.00000  Uiso   1.00
O176   O     0.76097   0.17278   0.98252   0.00000  Uiso   1.00
O177   O     0.60848   0.70635   0.37874   0.00000  Uiso   1.00
O178   O     0.22168   0.61729   0.09452   0.00000  Uiso   1.00
N179   N     0.61386   0.21873   0.94891   0.00000  Uiso   1.00
N180   N     0.50521   0.59895   0.51863   0.00000  Uiso   1.00
N181   N     0.22957   0.53551   0.02867   0.00000  Uiso   1.00
N182   N     0.77550   0.31420   0.92200   0.00000  Uiso   1.00
N183   N     0.66685   0.69443   0.49172   0.00000  Uiso   1.00
N184   N     0.39120   0.63099   0.00177   0.00000  Uiso   1.00
C185   C     0.26904   0.83446   0.72332   0.00000  Uiso   1.00
C186   C     0.38229   0.85904   0.73693   0.00000  Uiso   1.00
C187   C     0.40260   0.89529   0.78627   0.00000  Uiso   1.00
C188   C     0.51197   0.91304   0.79064   0.00000  Uiso   1.00
C189   C     0.67473   0.95388   0.81842   0.00000  Uiso   1.00
C190   C     0.23494   0.74053   0.75036   0.00000  Uiso   1.00
C191   C     0.13135   0.67715   0.81099   0.00000  Uiso   1.00
C192   C     0.11668   0.59514   0.82666   0.00000  Uiso   1.00
C193   C     0.05064   0.45201   0.87525   0.00000  Uiso   1.00
C194   C     0.29826   0.88124   0.62786   0.00000  Uiso   1.00
C195   C     0.24790   0.93615   0.58547   0.00000  Uiso   1.00
C196   C     0.28653   0.97259   0.49800   0.00000  Uiso   1.00
C197   C     0.31880   0.04793   0.35638   0.00000  Uiso   1.00
C198   C     0.42717   0.80153   0.64334   0.00000  Uiso   1.00
C199   C     0.46817   0.84114   0.69349   0.00000  Uiso   1.00
C200   C     0.57755   0.85885   0.69778   0.00000  Uiso   1.00
C201   C     0.59802   0.89512   0.74712   0.00000  Uiso   1.00
C202   C     0.32082   0.72264   0.70693   0.00000  Uiso   1.00
C203   C     0.30630   0.64071   0.72250   0.00000  Uiso   1.00
C204   C     0.20272   0.57722   0.78314   0.00000  Uiso   1.00
C205   C     0.38415   0.86335   0.58441   0.00000  Uiso   1.00
C206   C     0.42285   0.89971   0.49699   0.00000  Uiso   1.00
C207   C     0.37256   0.95467   0.45448   0.00000  Uiso   1.00
H208   H     0.20217   0.84838   0.75714   0.00000  Uiso   1.00
H209   H     0.33611   0.90911   0.81988   0.00000  Uiso   1.00
H210   H     0.06490   0.69101   0.84459   0.00000  Uiso   1.00
H211   H     0.18144   0.94997   0.61911   0.00000  Uiso   1.00
H212   H     0.52246   0.96853   0.87031   0.00000  Uiso   1.00
H213   H     0.95059   0.50865   0.92239   0.00000  Uiso   1.00
H214   H     0.19632   0.05472   0.44692   0.00000  Uiso   1.00
H215   H     0.49403   0.78760   0.60952   0.00000  Uiso   1.00
H216   H     0.64399   0.84500   0.66416   0.00000  Uiso   1.00
H217   H     0.37278   0.62689   0.68887   0.00000  Uiso   1.00
H218   H     0.48931   0.88586   0.46339   0.00000  Uiso   1.00
H219   H     0.77235   0.91649   0.74393   0.00000  Uiso   1.00
H220   H     0.20047   0.45661   0.79600   0.00000  Uiso   1.00
H221   H     0.44621   0.00269   0.32054   0.00000  Uiso   1.00
O222   O     0.74077   0.98134   0.84575   0.00000  Uiso   1.00
O223   O     0.99048   0.37800   0.91406   0.00000  Uiso   1.00
O224   O     0.31289   0.09444   0.29026   0.00000  Uiso   1.00
N225   N     0.56070   0.94842   0.83305   0.00000  Uiso   1.00
N226   N     0.02604   0.51846   0.88175   0.00000  Uiso   1.00
N227   N     0.25576   0.02897   0.43724   0.00000  Uiso   1.00
N228   N     0.69516   0.92042   0.76505   0.00000  Uiso   1.00
N229   N     0.16050   0.49046   0.81375   0.00000  Uiso   1.00
N230   N     0.39022   0.00097   0.36923   0.00000  Uiso   1.00
C231   C     0.99508   0.72349   0.44166   0.00000  Uiso   1.00
C232   C     0.12147   0.73639   0.40391   0.00000  Uiso   1.00
C233   C     0.19048   0.78539   0.31878   0.00000  Uiso   1.00
C234   C     0.30387   0.78912   0.29700   0.00000  Uiso   1.00
C235   C     0.49364   0.81585   0.22907   0.00000  Uiso   1.00
C236   C     0.98797   0.75096   0.50828   0.00000  Uiso   1.00
C237   C     0.94472   0.81220   0.51092   0.00000  Uiso   1.00
C238   C     0.94572   0.82817   0.57702   0.00000  Uiso   1.00
C239   C     0.92815   0.87747   0.67116   0.00000  Uiso   1.00
C240   C     0.92971   0.62794   0.49003   0.00000  Uiso   1.00
C241   C     0.83746   0.58574   0.47735   0.00000  Uiso   1.00
C242   C     0.78939   0.49815   0.52809   0.00000  Uiso   1.00
C243   C     0.68136   0.35644   0.59390   0.00000  Uiso   1.00
C244   C     0.07374   0.64297   0.55436   0.00000  Uiso   1.00
C245   C     0.16419   0.69266   0.46512   0.00000  Uiso   1.00
C246   C     0.27751   0.69631   0.44346   0.00000  Uiso   1.00
C247   C     0.34668   0.74531   0.35832   0.00000  Uiso   1.00
C248   C     0.03070   0.70723   0.56949   0.00000  Uiso   1.00
C249   C     0.03175   0.72312   0.63560   0.00000  Uiso   1.00
C250   C     0.98853   0.78436   0.63834   0.00000  Uiso   1.00
C251   C     0.97244   0.58421   0.55124   0.00000  Uiso   1.00
C252   C     0.92450   0.49666   0.60202   0.00000  Uiso   1.00
C253   C     0.83219   0.45434   0.58941   0.00000  Uiso   1.00
H254   H     0.96182   0.75754   0.39401   0.00000  Uiso   1.00
H255   H     0.15739   0.81923   0.27143   0.00000  Uiso   1.00
H256   H     0.91165   0.84602   0.46355   0.00000  Uiso   1.00
H257   H     0.80442   0.61960   0.42997   0.00000  Uiso   1.00
H258   H     0.39307   0.86837   0.16252   0.00000  Uiso   1.00
H259   H     0.87489   0.92484   0.56763   0.00000  Uiso   1.00
H260   H     0.64875   0.44740   0.49683   0.00000  Uiso   1.00
H261   H     0.10701   0.60893   0.60202   0.00000  Uiso   1.00
H262   H     0.31055   0.66247   0.49084   0.00000  Uiso   1.00
H263   H     0.06482   0.68926   0.68296   0.00000  Uiso   1.00
H264   H     0.95758   0.46284   0.64939   0.00000  Uiso   1.00
H265   H     0.51738   0.74114   0.34061   0.00000  Uiso   1.00
H266   H     0.99920   0.79760   0.74572   0.00000  Uiso   1.00
H267   H     0.77307   0.32016   0.67492   0.00000  Uiso   1.00
O268   O     0.58651   0.84268   0.17469   0.00000  Uiso   1.00
O269   O     0.90667   0.91675   0.70617   0.00000  Uiso   1.00
O270   O     0.60999   0.29036   0.61328   0.00000  Uiso   1.00
N271   N     0.39438   0.83107   0.21969   0.00000  Uiso   1.00
N272   N     0.90994   0.88387   0.59843   0.00000  Uiso   1.00
N273   N     0.69850   0.43750   0.53226   0.00000  Uiso   1.00
N274   N     0.46128   0.76260   0.31552   0.00000  Uiso   1.00
N275   N     0.97683   0.81541   0.69426   0.00000  Uiso   1.00
N276   N     0.76539   0.36904   0.62808   0.00000  Uiso   1.00
