data_job_03528
_audit_creation_date              2018-12-19
_audit_creation_method            'Materials Studio'
_symmetry_space_group_name_H-M    'P1'
_symmetry_Int_Tables_number       1
_symmetry_cell_setting            triclinic
loop_
_symmetry_equiv_pos_as_xyz
  x,y,z
_cell_length_a                    16.6734
_cell_length_b                    11.6234
_cell_length_c                    24.4613
_cell_angle_alpha                 90.0000
_cell_angle_beta                  48.5715
_cell_angle_gamma                 90.0000
loop_
_atom_site_label
_atom_site_type_symbol
_atom_site_fract_x
_atom_site_fract_y
_atom_site_fract_z
_atom_site_U_iso_or_equiv
_atom_site_adp_type
_atom_site_occupancy
C1     C     0.52682   0.52187   0.69094   0.00000  Uiso   1.00
C2     C     0.45227   0.42817   0.70329   0.00000  Uiso   1.00
C3     C     0.36818   0.37903   0.76996   0.00000  Uiso   1.00
C4     C     0.30944   0.29458   0.76981   0.00000  Uiso   1.00
C5     C     0.18998   0.15422   0.79880   0.00000  Uiso   1.00
C6     C     0.63988   0.47390   0.63462   0.00000  Uiso   1.00
C7     C     0.71353   0.46323   0.64356   0.00000  Uiso   1.00
C8     C     0.81272   0.41729   0.58559   0.00000  Uiso   1.00
C9     C     0.98456   0.34802   0.50795   0.00000  Uiso   1.00
C10    C     0.51932   0.62062   0.65347   0.00000  Uiso   1.00
C11    C     0.49162   0.73332   0.67823   0.00000  Uiso   1.00
C12    C     0.48934   0.81091   0.63612   0.00000  Uiso   1.00
C13    C     0.47398   0.96944   0.58774   0.00000  Uiso   1.00
C14    C     0.57205   0.45927   0.57210   0.00000  Uiso   1.00
C15    C     0.47685   0.39417   0.63874   0.00000  Uiso   1.00
C16    C     0.41822   0.30977   0.63848   0.00000  Uiso   1.00
C17    C     0.33405   0.26052   0.70514   0.00000  Uiso   1.00
C18    C     0.66445   0.43990   0.57007   0.00000  Uiso   1.00
C19    C     0.76357   0.39398   0.51207   0.00000  Uiso   1.00
C20    C     0.83734   0.38323   0.52092   0.00000  Uiso   1.00
C21    C     0.54388   0.58662   0.58891   0.00000  Uiso   1.00
C22    C     0.54166   0.66406   0.54675   0.00000  Uiso   1.00
C23    C     0.51396   0.77685   0.57145   0.00000  Uiso   1.00
H24    H     0.50770   0.54834   0.74119   0.00000  Uiso   1.00
H25    H     0.34920   0.40536   0.81991   0.00000  Uiso   1.00
H26    H     0.69449   0.48956   0.69351   0.00000  Uiso   1.00
H27    H     0.47262   0.75960   0.72819   0.00000  Uiso   1.00
H28    H     0.18432   0.23182   0.87870   0.00000  Uiso   1.00
H29    H     0.91241   0.40940   0.61219   0.00000  Uiso   1.00
H30    H     0.44455   0.97883   0.68531   0.00000  Uiso   1.00
H31    H     0.59118   0.43280   0.52184   0.00000  Uiso   1.00
H32    H     0.43725   0.28348   0.58852   0.00000  Uiso   1.00
H33    H     0.78255   0.36768   0.46213   0.00000  Uiso   1.00
H34    H     0.56067   0.63772   0.49680   0.00000  Uiso   1.00
H35    H     0.25579   0.13289   0.69090   0.00000  Uiso   1.00
H36    H     0.98389   0.31048   0.42439   0.00000  Uiso   1.00
H37    H     0.51602   0.87990   0.49751   0.00000  Uiso   1.00
O38    O     0.11731   0.08619   0.83262   0.00000  Uiso   1.00
O39    O     0.07254   0.31919   0.48296   0.00000  Uiso   1.00
O40    O     0.45871   0.06626   0.57889   0.00000  Uiso   1.00
N41    N     0.22225   0.22904   0.82535   0.00000  Uiso   1.00
N42    N     0.90297   0.39506   0.57619   0.00000  Uiso   1.00
N43    N     0.46558   0.92743   0.64453   0.00000  Uiso   1.00
N44    N     0.26071   0.17581   0.72430   0.00000  Uiso   1.00
N45    N     0.94143   0.34183   0.47513   0.00000  Uiso   1.00
N46    N     0.50404   0.87420   0.54348   0.00000  Uiso   1.00
C47    C     0.47318   0.02187   0.80906   0.00000  Uiso   1.00
C48    C     0.54773   0.92817   0.79671   0.00000  Uiso   1.00
C49    C     0.63182   0.87903   0.73004   0.00000  Uiso   1.00
C50    C     0.69056   0.79458   0.73019   0.00000  Uiso   1.00
C51    C     0.81002   0.65422   0.70120   0.00000  Uiso   1.00
C52    C     0.36012   0.97390   0.86538   0.00000  Uiso   1.00
C53    C     0.28647   0.96323   0.85644   0.00000  Uiso   1.00
C54    C     0.18728   0.91729   0.91441   0.00000  Uiso   1.00
C55    C     0.01544   0.84802   0.99205   0.00000  Uiso   1.00
C56    C     0.48068   0.12062   0.84653   0.00000  Uiso   1.00
C57    C     0.50838   0.23332   0.82177   0.00000  Uiso   1.00
C58    C     0.51066   0.31091   0.86388   0.00000  Uiso   1.00
C59    C     0.52602   0.46944   0.91226   0.00000  Uiso   1.00
C60    C     0.42795   0.95927   0.92790   0.00000  Uiso   1.00
C61    C     0.52315   0.89417   0.86126   0.00000  Uiso   1.00
C62    C     0.58178   0.80977   0.86152   0.00000  Uiso   1.00
C63    C     0.66595   0.76052   0.79486   0.00000  Uiso   1.00
C64    C     0.33555   0.93990   0.92993   0.00000  Uiso   1.00
C65    C     0.23643   0.89398   0.98793   0.00000  Uiso   1.00
C66    C     0.16266   0.88323   0.97908   0.00000  Uiso   1.00
C67    C     0.45612   0.08662   0.91109   0.00000  Uiso   1.00
C68    C     0.45834   0.16406   0.95325   0.00000  Uiso   1.00
C69    C     0.48604   0.27685   0.92855   0.00000  Uiso   1.00
H70    H     0.49230   0.04834   0.75881   0.00000  Uiso   1.00
H71    H     0.65080   0.90536   0.68010   0.00000  Uiso   1.00
H72    H     0.30551   0.98956   0.80649   0.00000  Uiso   1.00
H73    H     0.52738   0.25960   0.77181   0.00000  Uiso   1.00
H74    H     0.81568   0.73182   0.62130   0.00000  Uiso   1.00
H75    H     0.08759   0.90940   0.88781   0.00000  Uiso   1.00
H76    H     0.55545   0.47883   0.81469   0.00000  Uiso   1.00
H77    H     0.40882   0.93280   0.97816   0.00000  Uiso   1.00
H78    H     0.56275   0.78348   0.91148   0.00000  Uiso   1.00
H79    H     0.21745   0.86768   0.03787   0.00000  Uiso   1.00
H80    H     0.43933   0.13772   0.00320   0.00000  Uiso   1.00
H81    H     0.74421   0.63289   0.80910   0.00000  Uiso   1.00
H82    H     0.01611   0.81048   0.07561   0.00000  Uiso   1.00
H83    H     0.48398   0.37990   0.00249   0.00000  Uiso   1.00
O84    O     0.88269   0.58619   0.66738   0.00000  Uiso   1.00
O85    O     0.92746   0.81919   0.01704   0.00000  Uiso   1.00
O86    O     0.54129   0.56626   0.92111   0.00000  Uiso   1.00
N87    N     0.77775   0.72904   0.67465   0.00000  Uiso   1.00
N88    N     0.09703   0.89506   0.92381   0.00000  Uiso   1.00
N89    N     0.53442   0.42743   0.85547   0.00000  Uiso   1.00
N90    N     0.73929   0.67581   0.77570   0.00000  Uiso   1.00
N91    N     0.05857   0.84183   0.02487   0.00000  Uiso   1.00
N92    N     0.49596   0.37420   0.95652   0.00000  Uiso   1.00
C93    C     0.47318   0.47813   0.30906   0.00000  Uiso   1.00
C94    C     0.54773   0.57183   0.29671   0.00000  Uiso   1.00
C95    C     0.63182   0.62097   0.23004   0.00000  Uiso   1.00
C96    C     0.69056   0.70542   0.23019   0.00000  Uiso   1.00
C97    C     0.81002   0.84578   0.20120   0.00000  Uiso   1.00
C98    C     0.36012   0.52610   0.36538   0.00000  Uiso   1.00
C99    C     0.28647   0.53677   0.35644   0.00000  Uiso   1.00
C100   C     0.18728   0.58271   0.41441   0.00000  Uiso   1.00
C101   C     0.01544   0.65198   0.49205   0.00000  Uiso   1.00
C102   C     0.48068   0.37938   0.34653   0.00000  Uiso   1.00
C103   C     0.50838   0.26668   0.32177   0.00000  Uiso   1.00
C104   C     0.51066   0.18909   0.36388   0.00000  Uiso   1.00
C105   C     0.52602   0.03056   0.41226   0.00000  Uiso   1.00
C106   C     0.42795   0.54073   0.42790   0.00000  Uiso   1.00
C107   C     0.52315   0.60583   0.36126   0.00000  Uiso   1.00
C108   C     0.58178   0.69023   0.36152   0.00000  Uiso   1.00
C109   C     0.66595   0.73948   0.29486   0.00000  Uiso   1.00
C110   C     0.33555   0.56010   0.42993   0.00000  Uiso   1.00
C111   C     0.23643   0.60602   0.48793   0.00000  Uiso   1.00
C112   C     0.16266   0.61677   0.47908   0.00000  Uiso   1.00
C113   C     0.45612   0.41338   0.41109   0.00000  Uiso   1.00
C114   C     0.45834   0.33594   0.45325   0.00000  Uiso   1.00
C115   C     0.48604   0.22315   0.42855   0.00000  Uiso   1.00
H116   H     0.49230   0.45166   0.25881   0.00000  Uiso   1.00
H117   H     0.65080   0.59464   0.18009   0.00000  Uiso   1.00
H118   H     0.30551   0.51044   0.30649   0.00000  Uiso   1.00
H119   H     0.52738   0.24040   0.27181   0.00000  Uiso   1.00
H120   H     0.81568   0.76818   0.12130   0.00000  Uiso   1.00
H121   H     0.08759   0.59060   0.38781   0.00000  Uiso   1.00
H122   H     0.55545   0.02117   0.31469   0.00000  Uiso   1.00
H123   H     0.40882   0.56720   0.47816   0.00000  Uiso   1.00
H124   H     0.56275   0.71652   0.41148   0.00000  Uiso   1.00
H125   H     0.21745   0.63232   0.53787   0.00000  Uiso   1.00
H126   H     0.43933   0.36228   0.50320   0.00000  Uiso   1.00
H127   H     0.74421   0.86711   0.30910   0.00000  Uiso   1.00
H128   H     0.01611   0.68952   0.57561   0.00000  Uiso   1.00
H129   H     0.48398   0.12010   0.50249   0.00000  Uiso   1.00
O130   O     0.88269   0.91381   0.16738   0.00000  Uiso   1.00
O131   O     0.92746   0.68081   0.51704   0.00000  Uiso   1.00
O132   O     0.54129   0.93374   0.42111   0.00000  Uiso   1.00
N133   N     0.77775   0.77096   0.17465   0.00000  Uiso   1.00
N134   N     0.09703   0.60494   0.42381   0.00000  Uiso   1.00
N135   N     0.53442   0.07257   0.35547   0.00000  Uiso   1.00
N136   N     0.73929   0.82419   0.27570   0.00000  Uiso   1.00
N137   N     0.05857   0.65817   0.52487   0.00000  Uiso   1.00
N138   N     0.49596   0.12580   0.45652   0.00000  Uiso   1.00
C139   C     0.52682   0.97813   0.19094   0.00000  Uiso   1.00
C140   C     0.45227   0.07183   0.20329   0.00000  Uiso   1.00
C141   C     0.36818   0.12097   0.26996   0.00000  Uiso   1.00
C142   C     0.30944   0.20542   0.26981   0.00000  Uiso   1.00
C143   C     0.18998   0.34578   0.29880   0.00000  Uiso   1.00
C144   C     0.63988   0.02610   0.13462   0.00000  Uiso   1.00
C145   C     0.71353   0.03677   0.14356   0.00000  Uiso   1.00
C146   C     0.81272   0.08271   0.08559   0.00000  Uiso   1.00
C147   C     0.98456   0.15198   0.00795   0.00000  Uiso   1.00
C148   C     0.51932   0.87938   0.15347   0.00000  Uiso   1.00
C149   C     0.49162   0.76668   0.17823   0.00000  Uiso   1.00
C150   C     0.48934   0.68909   0.13612   0.00000  Uiso   1.00
C151   C     0.47398   0.53056   0.08774   0.00000  Uiso   1.00
C152   C     0.57205   0.04073   0.07210   0.00000  Uiso   1.00
C153   C     0.47685   0.10583   0.13874   0.00000  Uiso   1.00
C154   C     0.41822   0.19023   0.13848   0.00000  Uiso   1.00
C155   C     0.33405   0.23948   0.20514   0.00000  Uiso   1.00
C156   C     0.66445   0.06010   0.07007   0.00000  Uiso   1.00
C157   C     0.76357   0.10602   0.01207   0.00000  Uiso   1.00
C158   C     0.83734   0.11677   0.02092   0.00000  Uiso   1.00
C159   C     0.54388   0.91338   0.08891   0.00000  Uiso   1.00
C160   C     0.54166   0.83594   0.04675   0.00000  Uiso   1.00
C161   C     0.51396   0.72315   0.07145   0.00000  Uiso   1.00
H162   H     0.50770   0.95166   0.24119   0.00000  Uiso   1.00
H163   H     0.34920   0.09464   0.31991   0.00000  Uiso   1.00
H164   H     0.69449   0.01044   0.19351   0.00000  Uiso   1.00
H165   H     0.47262   0.74040   0.22819   0.00000  Uiso   1.00
H166   H     0.18432   0.26818   0.37870   0.00000  Uiso   1.00
H167   H     0.91241   0.09060   0.11219   0.00000  Uiso   1.00
H168   H     0.44455   0.52117   0.18531   0.00000  Uiso   1.00
H169   H     0.59118   0.06720   0.02184   0.00000  Uiso   1.00
H170   H     0.43725   0.21652   0.08852   0.00000  Uiso   1.00
H171   H     0.78255   0.13232   0.96213   0.00000  Uiso   1.00
H172   H     0.56067   0.86228   0.99680   0.00000  Uiso   1.00
H173   H     0.25579   0.36711   0.19090   0.00000  Uiso   1.00
H174   H     0.98389   0.18952   0.92439   0.00000  Uiso   1.00
H175   H     0.51602   0.62009   0.99751   0.00000  Uiso   1.00
O176   O     0.11731   0.41381   0.33262   0.00000  Uiso   1.00
O177   O     0.07254   0.18081   0.98296   0.00000  Uiso   1.00
O178   O     0.45871   0.43374   0.07889   0.00000  Uiso   1.00
N179   N     0.22225   0.27096   0.32535   0.00000  Uiso   1.00
N180   N     0.90297   0.10494   0.07619   0.00000  Uiso   1.00
N181   N     0.46558   0.57257   0.14453   0.00000  Uiso   1.00
N182   N     0.26071   0.32419   0.22430   0.00000  Uiso   1.00
N183   N     0.94143   0.15817   0.97513   0.00000  Uiso   1.00
N184   N     0.50404   0.62580   0.04348   0.00000  Uiso   1.00
