data_job_06866
_audit_creation_date              2018-12-19
_audit_creation_method            'Materials Studio'
_symmetry_space_group_name_H-M    'P1'
_symmetry_Int_Tables_number       1
_symmetry_cell_setting            triclinic
loop_
_symmetry_equiv_pos_as_xyz
  x,y,z
_cell_length_a                    21.8749
_cell_length_b                    24.6390
_cell_length_c                    19.8596
_cell_angle_alpha                 68.5042
_cell_angle_beta                  63.7702
_cell_angle_gamma                 65.5495
loop_
_atom_site_label
_atom_site_type_symbol
_atom_site_fract_x
_atom_site_fract_y
_atom_site_fract_z
_atom_site_U_iso_or_equiv
_atom_site_adp_type
_atom_site_occupancy
C1     C     0.52394   0.11427   0.86053   0.00000  Uiso   1.00
C2     C     0.49310   0.16291   0.90679   0.00000  Uiso   1.00
C3     C     0.44306   0.16064   0.98069   0.00000  Uiso   1.00
C4     C     0.42160   0.20969   0.01307   0.00000  Uiso   1.00
C5     C     0.36949   0.27771   0.09100   0.00000  Uiso   1.00
C6     C     0.50873   0.14709   0.78535   0.00000  Uiso   1.00
C7     C     0.47184   0.13151   0.75714   0.00000  Uiso   1.00
C8     C     0.46356   0.16724   0.68728   0.00000  Uiso   1.00
C9     C     0.43576   0.21066   0.57663   0.00000  Uiso   1.00
C10    C     0.60485   0.09528   0.83879   0.00000  Uiso   1.00
C11    C     0.64879   0.03612   0.85550   0.00000  Uiso   1.00
C12    C     0.72144   0.02822   0.83062   0.00000  Uiso   1.00
C13    C     0.84288   0.99119   0.80296   0.00000  Uiso   1.00
C14    C     0.57483   0.20543   0.78661   0.00000  Uiso   1.00
C15    C     0.52074   0.21243   0.86664   0.00000  Uiso   1.00
C16    C     0.49936   0.26149   0.89891   0.00000  Uiso   1.00
C17    C     0.44930   0.25929   0.97285   0.00000  Uiso   1.00
C18    C     0.53637   0.19660   0.74520   0.00000  Uiso   1.00
C19    C     0.52814   0.23236   0.67536   0.00000  Uiso   1.00
C20    C     0.49125   0.21684   0.64706   0.00000  Uiso   1.00
C21    C     0.63250   0.14479   0.79864   0.00000  Uiso   1.00
C22    C     0.70509   0.13698   0.77372   0.00000  Uiso   1.00
C23    C     0.74913   0.07782   0.79040   0.00000  Uiso   1.00
H24    H     0.50242   0.07572   0.89178   0.00000  Uiso   1.00
H25    H     0.42167   0.12232   0.01174   0.00000  Uiso   1.00
H26    H     0.45046   0.09319   0.78822   0.00000  Uiso   1.00
H27    H     0.62738   0.99782   0.88657   0.00000  Uiso   1.00
H28    H     0.34432   0.19582   0.12702   0.00000  Uiso   1.00
H29    H     0.40505   0.13438   0.65570   0.00000  Uiso   1.00
H30    H     0.77812   0.93328   0.86309   0.00000  Uiso   1.00
H31    H     0.59635   0.24398   0.75535   0.00000  Uiso   1.00
H32    H     0.52076   0.29980   0.86783   0.00000  Uiso   1.00
H33    H     0.54955   0.27067   0.64430   0.00000  Uiso   1.00
H34    H     0.72646   0.17530   0.74266   0.00000  Uiso   1.00
H35    H     0.42474   0.33988   0.01022   0.00000  Uiso   1.00
H36    H     0.48547   0.27844   0.53889   0.00000  Uiso   1.00
H37    H     0.85854   0.07733   0.74629   0.00000  Uiso   1.00
O38    O     0.33309   0.30155   0.14506   0.00000  Uiso   1.00
O39    O     0.41277   0.22093   0.52670   0.00000  Uiso   1.00
O40    O     0.90223   0.95709   0.79880   0.00000  Uiso   1.00
N41    N     0.37363   0.22206   0.08410   0.00000  Uiso   1.00
N42    N     0.43040   0.16462   0.64345   0.00000  Uiso   1.00
N43    N     0.77919   0.97660   0.83733   0.00000  Uiso   1.00
N44    N     0.41691   0.29957   0.02125   0.00000  Uiso   1.00
N45    N     0.47367   0.24214   0.58060   0.00000  Uiso   1.00
N46    N     0.82246   0.05412   0.77447   0.00000  Uiso   1.00
C47    C     0.63855   0.59993   0.15659   0.00000  Uiso   1.00
C48    C     0.67131   0.56953   0.22006   0.00000  Uiso   1.00
C49    C     0.71993   0.51154   0.22873   0.00000  Uiso   1.00
C50    C     0.74355   0.49201   0.29055   0.00000  Uiso   1.00
C51    C     0.79806   0.43913   0.38133   0.00000  Uiso   1.00
C52    C     0.55777   0.61688   0.19743   0.00000  Uiso   1.00
C53    C     0.51093   0.59872   0.18707   0.00000  Uiso   1.00
C54    C     0.43896   0.61907   0.22983   0.00000  Uiso   1.00
C55    C     0.31720   0.63974   0.28544   0.00000  Uiso   1.00
C56    C     0.65607   0.66029   0.11695   0.00000  Uiso   1.00
C57    C     0.69186   0.67864   0.03891   0.00000  Uiso   1.00
C58    C     0.70264   0.73554   0.01392   0.00000  Uiso   1.00
C59    C     0.73349   0.82362   0.94456   0.00000  Uiso   1.00
C60    C     0.59404   0.66838   0.25095   0.00000  Uiso   1.00
C61    C     0.64713   0.60670   0.27131   0.00000  Uiso   1.00
C62    C     0.67068   0.58726   0.33313   0.00000  Uiso   1.00
C63    C     0.71933   0.52925   0.34189   0.00000  Uiso   1.00
C64    C     0.53359   0.65406   0.24868   0.00000  Uiso   1.00
C65    C     0.46167   0.67444   0.29147   0.00000  Uiso   1.00
C66    C     0.41474   0.65631   0.28118   0.00000  Uiso   1.00
C67    C     0.63189   0.69747   0.16820   0.00000  Uiso   1.00
C68    C     0.64261   0.75436   0.14332   0.00000  Uiso   1.00
C69    C     0.67841   0.77278   0.06526   0.00000  Uiso   1.00
H70    H     0.65737   0.57099   0.11668   0.00000  Uiso   1.00
H71    H     0.73863   0.48278   0.18905   0.00000  Uiso   1.00
H72    H     0.52966   0.56996   0.14739   0.00000  Uiso   1.00
H73    H     0.71056   0.64986   0.99927   0.00000  Uiso   1.00
H74    H     0.81803   0.40136   0.29191   0.00000  Uiso   1.00
H75    H     0.37740   0.58519   0.20405   0.00000  Uiso   1.00
H76    H     0.75887   0.75369   0.89169   0.00000  Uiso   1.00
H77    H     0.57521   0.69732   0.29086   0.00000  Uiso   1.00
H78    H     0.65196   0.61604   0.37279   0.00000  Uiso   1.00
H79    H     0.44298   0.70321   0.33112   0.00000  Uiso   1.00
H80    H     0.62389   0.78311   0.18300   0.00000  Uiso   1.00
H81    H     0.74768   0.50952   0.44104   0.00000  Uiso   1.00
H82    H     0.30705   0.69335   0.35317   0.00000  Uiso   1.00
H83    H     0.68852   0.86184   0.04081   0.00000  Uiso   1.00
O84    O     0.83480   0.39969   0.41724   0.00000  Uiso   1.00
O85    O     0.25671   0.64087   0.30195   0.00000  Uiso   1.00
O86    O     0.75720   0.86192   0.89215   0.00000  Uiso   1.00
N87    N     0.79095   0.43798   0.31576   0.00000  Uiso   1.00
N88    N     0.37899   0.60984   0.23361   0.00000  Uiso   1.00
N89    N     0.73561   0.76737   0.94158   0.00000  Uiso   1.00
N90    N     0.75309   0.49618   0.39600   0.00000  Uiso   1.00
N91    N     0.34113   0.66804   0.31386   0.00000  Uiso   1.00
N92    N     0.69776   0.82557   0.02183   0.00000  Uiso   1.00
C93    C     0.09459   0.78653   0.55380   0.00000  Uiso   1.00
C94    C     0.11807   0.84416   0.51626   0.00000  Uiso   1.00
C95    C     0.09598   0.89226   0.45982   0.00000  Uiso   1.00
C96    C     0.12361   0.94084   0.43287   0.00000  Uiso   1.00
C97    C     0.15280   0.03025   0.37023   0.00000  Uiso   1.00
C98    C     0.16302   0.73287   0.54088   0.00000  Uiso   1.00
C99    C     0.17871   0.68740   0.50514   0.00000  Uiso   1.00
C100   C     0.24417   0.64229   0.49893   0.00000  Uiso   1.00
C101   C     0.34312   0.55889   0.47454   0.00000  Uiso   1.00
C102   C     0.06321   0.78306   0.64024   0.00000  Uiso   1.00
C103   C     0.99500   0.77978   0.68805   0.00000  Uiso   1.00
C104   C     0.97643   0.77691   0.76551   0.00000  Uiso   1.00
C105   C     0.92042   0.77145   0.89540   0.00000  Uiso   1.00
C106   C     0.18292   0.78727   0.60633   0.00000  Uiso   1.00
C107   C     0.16605   0.84456   0.54480   0.00000  Uiso   1.00
C108   C     0.19371   0.89308   0.51794   0.00000  Uiso   1.00
C109   C     0.17167   0.94124   0.46146   0.00000  Uiso   1.00
C110   C     0.21100   0.73327   0.56941   0.00000  Uiso   1.00
C111   C     0.27644   0.68821   0.56326   0.00000  Uiso   1.00
C112   C     0.29224   0.64268   0.52751   0.00000  Uiso   1.00
C113   C     0.11119   0.78346   0.66878   0.00000  Uiso   1.00
C114   C     0.09273   0.78059   0.74618   0.00000  Uiso   1.00
C115   C     0.02450   0.77731   0.79409   0.00000  Uiso   1.00
H116   H     0.05724   0.78622   0.53158   0.00000  Uiso   1.00
H117   H     0.05886   0.89193   0.43774   0.00000  Uiso   1.00
H118   H     0.14157   0.68710   0.48306   0.00000  Uiso   1.00
H119   H     0.95788   0.77947   0.66595   0.00000  Uiso   1.00
H120   H     0.08183   0.00931   0.34627   0.00000  Uiso   1.00
H121   H     0.25623   0.57739   0.44186   0.00000  Uiso   1.00
H122   H     0.86889   0.77216   0.82751   0.00000  Uiso   1.00
H123   H     0.22028   0.78758   0.62855   0.00000  Uiso   1.00
H124   H     0.23084   0.89337   0.54003   0.00000  Uiso   1.00
H125   H     0.31356   0.68853   0.58535   0.00000  Uiso   1.00
H126   H     0.12987   0.78090   0.76824   0.00000  Uiso   1.00
H127   H     0.22143   0.01047   0.42929   0.00000  Uiso   1.00
H128   H     0.39582   0.57855   0.52488   0.00000  Uiso   1.00
H129   H     0.00848   0.77333   0.91053   0.00000  Uiso   1.00
O130   O     0.15566   0.07945   0.32778   0.00000  Uiso   1.00
O131   O     0.38445   0.51278   0.45320   0.00000  Uiso   1.00
O132   O     0.87627   0.76833   0.95917   0.00000  Uiso   1.00
N133   N     0.11323   0.99507   0.37797   0.00000  Uiso   1.00
N134   N     0.27628   0.59125   0.46732   0.00000  Uiso   1.00
N135   N     0.91415   0.77334   0.82788   0.00000  Uiso   1.00
N136   N     0.18834   0.99570   0.42264   0.00000  Uiso   1.00
N137   N     0.35139   0.59188   0.51200   0.00000  Uiso   1.00
N138   N     0.98927   0.77397   0.87255   0.00000  Uiso   1.00
C139   C     0.01770   0.36894   0.68131   0.00000  Uiso   1.00
C140   C     0.01557   0.36253   0.76160   0.00000  Uiso   1.00
C141   C     0.97480   0.40624   0.80564   0.00000  Uiso   1.00
C142   C     0.98030   0.39164   0.87764   0.00000  Uiso   1.00
C143   C     0.97016   0.39025   0.99823   0.00000  Uiso   1.00
C144   C     0.99796   0.31460   0.68659   0.00000  Uiso   1.00
C145   C     0.94239   0.31801   0.66755   0.00000  Uiso   1.00
C146   C     0.93308   0.26306   0.67639   0.00000  Uiso   1.00
C147   C     0.89564   0.18726   0.68047   0.00000  Uiso   1.00
C148   C     0.09596   0.35864   0.62970   0.00000  Uiso   1.00
C149   C     0.12278   0.39907   0.56282   0.00000  Uiso   1.00
C150   C     0.19597   0.38120   0.52375   0.00000  Uiso   1.00
C151   C     0.31067   0.37377   0.43950   0.00000  Uiso   1.00
C152   C     0.09998   0.26529   0.73085   0.00000  Uiso   1.00
C153   C     0.06026   0.30624   0.78850   0.00000  Uiso   1.00
C154   C     0.06583   0.29157   0.86045   0.00000  Uiso   1.00
C155   C     0.02507   0.33525   0.90459   0.00000  Uiso   1.00
C156   C     0.04265   0.25831   0.71349   0.00000  Uiso   1.00
C157   C     0.03342   0.20334   0.72236   0.00000  Uiso   1.00
C158   C     0.97785   0.20666   0.70334   0.00000  Uiso   1.00
C159   C     0.14065   0.30235   0.65660   0.00000  Uiso   1.00
C160   C     0.21381   0.28440   0.61763   0.00000  Uiso   1.00
C161   C     0.24074   0.32480   0.55071   0.00000  Uiso   1.00
H162   H     0.98291   0.41276   0.66036   0.00000  Uiso   1.00
H163   H     0.94021   0.44980   0.78480   0.00000  Uiso   1.00
H164   H     0.90782   0.36158   0.64672   0.00000  Uiso   1.00
H165   H     0.08818   0.44263   0.54201   0.00000  Uiso   1.00
H166   H     0.91257   0.46602   0.93465   0.00000  Uiso   1.00
H167   H     0.84428   0.28002   0.64347   0.00000  Uiso   1.00
H168   H     0.22460   0.45093   0.42267   0.00000  Uiso   1.00
H169   H     0.13478   0.22146   0.75180   0.00000  Uiso   1.00
H170   H     0.10041   0.24800   0.88126   0.00000  Uiso   1.00
H171   H     0.06802   0.15979   0.74318   0.00000  Uiso   1.00
H172   H     0.24838   0.24084   0.63847   0.00000  Uiso   1.00
H173   H     0.04259   0.30224   0.01293   0.00000  Uiso   1.00
H174   H     0.97430   0.11623   0.72175   0.00000  Uiso   1.00
H175   H     0.35462   0.28714   0.50096   0.00000  Uiso   1.00
O176   O     0.95221   0.40503   0.05731   0.00000  Uiso   1.00
O177   O     0.86263   0.16100   0.67529   0.00000  Uiso   1.00
O178   O     0.36160   0.38523   0.38561   0.00000  Uiso   1.00
N179   N     0.94789   0.42384   0.93530   0.00000  Uiso   1.00
N180   N     0.88404   0.24993   0.66308   0.00000  Uiso   1.00
N181   N     0.23961   0.40971   0.45664   0.00000  Uiso   1.00
N182   N     0.01786   0.33571   0.97742   0.00000  Uiso   1.00
N183   N     0.95401   0.16180   0.70520   0.00000  Uiso   1.00
N184   N     0.30957   0.32158   0.49876   0.00000  Uiso   1.00
C185   C     0.07833   0.74910   0.07828   0.00000  Uiso   1.00
C186   C     0.11879   0.79618   0.04295   0.00000  Uiso   1.00
C187   C     0.17232   0.80140   0.97142   0.00000  Uiso   1.00
C188   C     0.20271   0.84748   0.94951   0.00000  Uiso   1.00
C189   C     0.26892   0.91460   0.88735   0.00000  Uiso   1.00
C190   C     0.99930   0.78555   0.09660   0.00000  Uiso   1.00
C191   C     0.95237   0.78184   0.07020   0.00000  Uiso   1.00
C192   C     0.88218   0.81897   0.09347   0.00000  Uiso   1.00
C193   C     0.76288   0.86956   0.11466   0.00000  Uiso   1.00
C194   C     0.08864   0.71530   0.15577   0.00000  Uiso   1.00
C195   C     0.11681   0.65251   0.17913   0.00000  Uiso   1.00
C196   C     0.12183   0.63048   0.25222   0.00000  Uiso   1.00
C197   C     0.14124   0.57200   0.36527   0.00000  Uiso   1.00
C198   C     0.03712   0.82165   0.16656   0.00000  Uiso   1.00
C199   C     0.09640   0.83558   0.09090   0.00000  Uiso   1.00
C200   C     0.12673   0.88166   0.06910   0.00000  Uiso   1.00
C201   C     0.18030   0.88695   0.99755   0.00000  Uiso   1.00
C202   C     0.97692   0.82496   0.14455   0.00000  Uiso   1.00
C203   C     0.90679   0.86210   0.16788   0.00000  Uiso   1.00
C204   C     0.85976   0.85844   0.14151   0.00000  Uiso   1.00
C205   C     0.06627   0.75470   0.20372   0.00000  Uiso   1.00
C206   C     0.07123   0.73277   0.27680   0.00000  Uiso   1.00
C207   C     0.09941   0.66996   0.30026   0.00000  Uiso   1.00
H208   H     0.09575   0.71843   0.04094   0.00000  Uiso   1.00
H209   H     0.18962   0.77090   0.93433   0.00000  Uiso   1.00
H210   H     0.96971   0.75133   0.03310   0.00000  Uiso   1.00
H211   H     0.13413   0.62203   0.14200   0.00000  Uiso   1.00
H212   H     0.28381   0.84646   0.83726   0.00000  Uiso   1.00
H213   H     0.82010   0.80520   0.04555   0.00000  Uiso   1.00
H214   H     0.16681   0.53253   0.27519   0.00000  Uiso   1.00
H215   H     0.01969   0.85233   0.20389   0.00000  Uiso   1.00
H216   H     0.10940   0.91215   0.10622   0.00000  Uiso   1.00
H217   H     0.88949   0.89259   0.20499   0.00000  Uiso   1.00
H218   H     0.05391   0.76328   0.31389   0.00000  Uiso   1.00
H219   H     0.21869   0.96111   0.97677   0.00000  Uiso   1.00
H220   H     0.75499   0.91984   0.18506   0.00000  Uiso   1.00
H221   H     0.10170   0.64717   0.41470   0.00000  Uiso   1.00
O222   O     0.31161   0.94074   0.83981   0.00000  Uiso   1.00
O223   O     0.70326   0.88659   0.11309   0.00000  Uiso   1.00
O224   O     0.15813   0.52885   0.41437   0.00000  Uiso   1.00
N225   N     0.25618   0.86523   0.88350   0.00000  Uiso   1.00
N226   N     0.82265   0.82665   0.07823   0.00000  Uiso   1.00
N227   N     0.14678   0.57173   0.29294   0.00000  Uiso   1.00
N228   N     0.22115   0.92692   0.95857   0.00000  Uiso   1.00
N229   N     0.78762   0.88834   0.15330   0.00000  Uiso   1.00
N230   N     0.11174   0.63342   0.36801   0.00000  Uiso   1.00
C231   C     0.66382   0.13353   0.29429   0.00000  Uiso   1.00
C232   C     0.72784   0.11597   0.31862   0.00000  Uiso   1.00
C233   C     0.73381   0.08083   0.38955   0.00000  Uiso   1.00
C234   C     0.79668   0.06986   0.40057   0.00000  Uiso   1.00
C235   C     0.88776   0.03901   0.44714   0.00000  Uiso   1.00
C236   C     0.69296   0.11088   0.22085   0.00000  Uiso   1.00
C237   C     0.66960   0.07146   0.20957   0.00000  Uiso   1.00
C238   C     0.70311   0.05621   0.13827   0.00000  Uiso   1.00
C239   C     0.74000   0.01749   0.03303   0.00000  Uiso   1.00
C240   C     0.63990   0.20321   0.27037   0.00000  Uiso   1.00
C241   C     0.57192   0.24144   0.30072   0.00000  Uiso   1.00
C242   C     0.56075   0.30392   0.27111   0.00000  Uiso   1.00
C243   C     0.51526   0.40856   0.24276   0.00000  Uiso   1.00
C244   C     0.76487   0.17653   0.18773   0.00000  Uiso   1.00
C245   C     0.78273   0.13933   0.26074   0.00000  Uiso   1.00
C246   C     0.84561   0.12840   0.27166   0.00000  Uiso   1.00
C247   C     0.85167   0.09325   0.34259   0.00000  Uiso   1.00
C248   C     0.74785   0.13423   0.16297   0.00000  Uiso   1.00
C249   C     0.78140   0.11903   0.09168   0.00000  Uiso   1.00
C250   C     0.75810   0.07960   0.08029   0.00000  Uiso   1.00
C251   C     0.69479   0.22657   0.21250   0.00000  Uiso   1.00
C252   C     0.68373   0.28901   0.18283   0.00000  Uiso   1.00
C253   C     0.61574   0.32732   0.21312   0.00000  Uiso   1.00
H254   H     0.62108   0.11535   0.33934   0.00000  Uiso   1.00
H255   H     0.69132   0.06276   0.43432   0.00000  Uiso   1.00
H256   H     0.62712   0.05340   0.25436   0.00000  Uiso   1.00
H257   H     0.52945   0.22335   0.34550   0.00000  Uiso   1.00
H258   H     0.79340   0.01474   0.51408   0.00000  Uiso   1.00
H259   H     0.65801   0.99502   0.13463   0.00000  Uiso   1.00
H260   H     0.45207   0.35338   0.32681   0.00000  Uiso   1.00
H261   H     0.80760   0.19471   0.14267   0.00000  Uiso   1.00
H262   H     0.88808   0.14648   0.22686   0.00000  Uiso   1.00
H263   H     0.82387   0.13712   0.04690   0.00000  Uiso   1.00
H264   H     0.72621   0.30706   0.13804   0.00000  Uiso   1.00
H265   H     0.95310   0.08269   0.34570   0.00000  Uiso   1.00
H266   H     0.81771   0.06297   0.96624   0.00000  Uiso   1.00
H267   H     0.61177   0.42133   0.15843   0.00000  Uiso   1.00
O268   O     0.92284   0.01553   0.48881   0.00000  Uiso   1.00
O269   O     0.74520   0.98967   0.99098   0.00000  Uiso   1.00
O270   O     0.47501   0.45983   0.24312   0.00000  Uiso   1.00
N271   N     0.81994   0.03736   0.46291   0.00000  Uiso   1.00
N272   N     0.69336   0.01891   0.10814   0.00000  Uiso   1.00
N273   N     0.50082   0.35395   0.28780   0.00000  Uiso   1.00
N274   N     0.90587   0.07392   0.37230   0.00000  Uiso   1.00
N275   N     0.77930   0.05548   0.01754   0.00000  Uiso   1.00
N276   N     0.58675   0.39051   0.19720   0.00000  Uiso   1.00
C277   C     0.30743   0.89563   0.11704   0.00000  Uiso   1.00
C278   C     0.30437   0.83931   0.10489   0.00000  Uiso   1.00
C279   C     0.34765   0.81331   0.04152   0.00000  Uiso   1.00
C280   C     0.33648   0.76188   0.04127   0.00000  Uiso   1.00
C281   C     0.33974   0.67812   0.01315   0.00000  Uiso   1.00
C282   C     0.31911   0.87572   0.19385   0.00000  Uiso   1.00
C283   C     0.37479   0.88035   0.20528   0.00000  Uiso   1.00
C284   C     0.37602   0.85957   0.27992   0.00000  Uiso   1.00
C285   C     0.40215   0.83240   0.38993   0.00000  Uiso   1.00
C286   C     0.23248   0.94096   0.12928   0.00000  Uiso   1.00
C287   C     0.21531   0.00044   0.08644   0.00000  Uiso   1.00
C288   C     0.14361   0.03460   0.10672   0.00000  Uiso   1.00
C289   C     0.03523   0.10871   0.11648   0.00000  Uiso   1.00
C290   C     0.21062   0.85053   0.22926   0.00000  Uiso   1.00
C291   C     0.25179   0.81481   0.16585   0.00000  Uiso   1.00
C292   C     0.24055   0.76340   0.16569   0.00000  Uiso   1.00
C293   C     0.28380   0.73733   0.10233   0.00000  Uiso   1.00
C294   C     0.26653   0.85122   0.25481   0.00000  Uiso   1.00
C295   C     0.26768   0.83044   0.32944   0.00000  Uiso   1.00
C296   C     0.32335   0.83503   0.34099   0.00000  Uiso   1.00
C297   C     0.17990   0.91646   0.19024   0.00000  Uiso   1.00
C298   C     0.10821   0.95053   0.21060   0.00000  Uiso   1.00
C299   C     0.09094   0.01006   0.16779   0.00000  Uiso   1.00
H300   H     0.34837   0.91470   0.06959   0.00000  Uiso   1.00
H301   H     0.38834   0.83228   0.99436   0.00000  Uiso   1.00
H302   H     0.41546   0.89931   0.15810   0.00000  Uiso   1.00
H303   H     0.25602   0.01938   0.03927   0.00000  Uiso   1.00
H304   H     0.40948   0.73007   0.93787   0.00000  Uiso   1.00
H305   H     0.46667   0.87144   0.28312   0.00000  Uiso   1.00
H306   H     0.13044   0.12464   0.03254   0.00000  Uiso   1.00
H307   H     0.16969   0.83145   0.27672   0.00000  Uiso   1.00
H308   H     0.19985   0.74445   0.21286   0.00000  Uiso   1.00
H309   H     0.22698   0.81149   0.37660   0.00000  Uiso   1.00
H310   H     0.06754   0.93156   0.25777   0.00000  Uiso   1.00
H311   H     0.25650   0.65879   0.11521   0.00000  Uiso   1.00
H312   H     0.31369   0.80016   0.46046   0.00000  Uiso   1.00
H313   H     0.97746   0.05336   0.20988   0.00000  Uiso   1.00
O314   O     0.35608   0.63869   0.98081   0.00000  Uiso   1.00
O315   O     0.43110   0.82417   0.43376   0.00000  Uiso   1.00
O316   O     0.98998   0.15636   0.10501   0.00000  Uiso   1.00
N317   N     0.36933   0.72524   0.98836   0.00000  Uiso   1.00
N318   N     0.42280   0.85740   0.31115   0.00000  Uiso   1.00
N319   N     0.10846   0.09413   0.07689   0.00000  Uiso   1.00
N320   N     0.28701   0.68689   0.08379   0.00000  Uiso   1.00
N321   N     0.34049   0.81905   0.40657   0.00000  Uiso   1.00
N322   N     0.02614   0.05577   0.17232   0.00000  Uiso   1.00
C323   C     0.18366   0.46924   0.82245   0.00000  Uiso   1.00
C324   C     0.16033   0.49307   0.75233   0.00000  Uiso   1.00
C325   C     0.09471   0.53409   0.74857   0.00000  Uiso   1.00
C326   C     0.08370   0.55023   0.67919   0.00000  Uiso   1.00
C327   C     0.03946   0.59092   0.57992   0.00000  Uiso   1.00
C328   C     0.25270   0.48462   0.79582   0.00000  Uiso   1.00
C329   C     0.26475   0.51854   0.82865   0.00000  Uiso   1.00
C330   C     0.33150   0.52756   0.79588   0.00000  Uiso   1.00
C331   C     0.43069   0.55510   0.76418   0.00000  Uiso   1.00
C332   C     0.20451   0.39967   0.83932   0.00000  Uiso   1.00
C333   C     0.17606   0.36215   0.90873   0.00000  Uiso   1.00
C334   C     0.20225   0.29965   0.91259   0.00000  Uiso   1.00
C335   C     0.22661   0.19528   0.94843   0.00000  Uiso   1.00
C336   C     0.28079   0.42494   0.70590   0.00000  Uiso   1.00
C337   C     0.21309   0.46901   0.68902   0.00000  Uiso   1.00
C338   C     0.20217   0.48509   0.61962   0.00000  Uiso   1.00
C339   C     0.13655   0.52613   0.61576   0.00000  Uiso   1.00
C340   C     0.30546   0.46057   0.73252   0.00000  Uiso   1.00
C341   C     0.37221   0.46953   0.69970   0.00000  Uiso   1.00
C342   C     0.38435   0.50346   0.73246   0.00000  Uiso   1.00
C343   C     0.25727   0.37561   0.77602   0.00000  Uiso   1.00
C344   C     0.28351   0.31315   0.77977   0.00000  Uiso   1.00
C345   C     0.25510   0.27554   0.84917   0.00000  Uiso   1.00
H346   H     0.14259   0.48797   0.87174   0.00000  Uiso   1.00
H347   H     0.05390   0.55270   0.79758   0.00000  Uiso   1.00
H348   H     0.22392   0.53714   0.87764   0.00000  Uiso   1.00
H349   H     0.13523   0.38079   0.95771   0.00000  Uiso   1.00
H350   H     0.97885   0.61388   0.68743   0.00000  Uiso   1.00
H351   H     0.33734   0.58106   0.85627   0.00000  Uiso   1.00
H352   H     0.15034   0.25135   0.02511   0.00000  Uiso   1.00
H353   H     0.32186   0.40621   0.65661   0.00000  Uiso   1.00
H354   H     0.24301   0.46646   0.57064   0.00000  Uiso   1.00
H355   H     0.41302   0.45091   0.65071   0.00000  Uiso   1.00
H356   H     0.32434   0.29455   0.73077   0.00000  Uiso   1.00
H357   H     0.13233   0.54389   0.50324   0.00000  Uiso   1.00
H358   H     0.49083   0.51106   0.67208   0.00000  Uiso   1.00
H359   H     0.30382   0.18135   0.84092   0.00000  Uiso   1.00
O360   O     0.00049   0.62001   0.54266   0.00000  Uiso   1.00
O361   O     0.47082   0.57694   0.76418   0.00000  Uiso   1.00
O362   O     0.22547   0.14436   0.98569   0.00000  Uiso   1.00
N363   N     0.02579   0.58913   0.65588   0.00000  Uiso   1.00
N364   N     0.36095   0.55845   0.81373   0.00000  Uiso   1.00
N365   N     0.18613   0.25020   0.97159   0.00000  Uiso   1.00
N366   N     0.10838   0.55147   0.55677   0.00000  Uiso   1.00
N367   N     0.44354   0.52079   0.71462   0.00000  Uiso   1.00
N368   N     0.26872   0.21253   0.87248   0.00000  Uiso   1.00
C369   C     0.75654   0.27694   0.47514   0.00000  Uiso   1.00
C370   C     0.72454   0.22454   0.50537   0.00000  Uiso   1.00
C371   C     0.72837   0.17821   0.57073   0.00000  Uiso   1.00
C372   C     0.69566   0.13454   0.58871   0.00000  Uiso   1.00
C373   C     0.65131   0.05280   0.64264   0.00000  Uiso   1.00
C374   C     0.69481   0.33569   0.46988   0.00000  Uiso   1.00
C375   C     0.67365   0.38281   0.50538   0.00000  Uiso   1.00
C376   C     0.61591   0.43270   0.49347   0.00000  Uiso   1.00
C377   C     0.52544   0.52354   0.49225   0.00000  Uiso   1.00
C378   C     0.80579   0.27389   0.39239   0.00000  Uiso   1.00
C379   C     0.87794   0.26906   0.36274   0.00000  Uiso   1.00
C380   C     0.91364   0.26693   0.28559   0.00000  Uiso   1.00
C381   C     0.99548   0.26181   0.16406   0.00000  Uiso   1.00
C382   C     0.69166   0.28175   0.39083   0.00000  Uiso   1.00
C383   C     0.68930   0.22716   0.45958   0.00000  Uiso   1.00
C384   C     0.65658   0.18354   0.47746   0.00000  Uiso   1.00
C385   C     0.66035   0.13715   0.54283   0.00000  Uiso   1.00
C386   C     0.65957   0.33830   0.42409   0.00000  Uiso   1.00
C387   C     0.60186   0.38814   0.41211   0.00000  Uiso   1.00
C388   C     0.58061   0.43532   0.44759   0.00000  Uiso   1.00
C389   C     0.77055   0.27650   0.34660   0.00000  Uiso   1.00
C390   C     0.80615   0.27438   0.26947   0.00000  Uiso   1.00
C391   C     0.87833   0.26955   0.23971   0.00000  Uiso   1.00
H392   H     0.78398   0.27491   0.51079   0.00000  Uiso   1.00
H393   H     0.75564   0.17621   0.60616   0.00000  Uiso   1.00
H394   H     0.70094   0.38078   0.54081   0.00000  Uiso   1.00
H395   H     0.90519   0.26704   0.39820   0.00000  Uiso   1.00
H396   H     0.70866   0.06795   0.69171   0.00000  Uiso   1.00
H397   H     0.59333   0.49930   0.55391   0.00000  Uiso   1.00
H398   H     0.02405   0.25947   0.25318   0.00000  Uiso   1.00
H399   H     0.66421   0.28379   0.35518   0.00000  Uiso   1.00
H400   H     0.62931   0.18558   0.44201   0.00000  Uiso   1.00
H401   H     0.57460   0.39015   0.37667   0.00000  Uiso   1.00
H402   H     0.77886   0.27641   0.23405   0.00000  Uiso   1.00
H403   H     0.60612   0.07556   0.55849   0.00000  Uiso   1.00
H404   H     0.49079   0.50691   0.42068   0.00000  Uiso   1.00
H405   H     0.92151   0.26708   0.11995   0.00000  Uiso   1.00
O406   O     0.63657   0.00700   0.68504   0.00000  Uiso   1.00
O407   O     0.48526   0.57292   0.50424   0.00000  Uiso   1.00
O408   O     0.05036   0.25826   0.10969   0.00000  Uiso   1.00
N409   N     0.68933   0.08321   0.64843   0.00000  Uiso   1.00
N410   N     0.58149   0.48650   0.51961   0.00000  Uiso   1.00
N411   N     0.98418   0.26229   0.23844   0.00000  Uiso   1.00
N412   N     0.63416   0.08730   0.57675   0.00000  Uiso   1.00
N413   N     0.52632   0.49059   0.44792   0.00000  Uiso   1.00
N414   N     0.92900   0.26638   0.16675   0.00000  Uiso   1.00
C415   C     0.79637   0.62857   0.40404   0.00000  Uiso   1.00
C416   C     0.81495   0.63015   0.31988   0.00000  Uiso   1.00
C417   C     0.85549   0.58081   0.28499   0.00000  Uiso   1.00
C418   C     0.86647   0.59164   0.20741   0.00000  Uiso   1.00
C419   C     0.89970   0.58527   0.08297   0.00000  Uiso   1.00
C420   C     0.82312   0.67709   0.40311   0.00000  Uiso   1.00
C421   C     0.87051   0.66722   0.43822   0.00000  Uiso   1.00
C422   C     0.88836   0.71757   0.43071   0.00000  Uiso   1.00
C423   C     0.93422   0.78409   0.43555   0.00000  Uiso   1.00
C424   C     0.71502   0.65178   0.43721   0.00000  Uiso   1.00
C425   C     0.67152   0.62063   0.50102   0.00000  Uiso   1.00
C426   C     0.59836   0.64967   0.52223   0.00000  Uiso   1.00
C427   C     0.47638   0.67687   0.58002   0.00000  Uiso   1.00
C428   C     0.74379   0.73555   0.32828   0.00000  Uiso   1.00
C429   C     0.78639   0.68826   0.27873   0.00000  Uiso   1.00
C430   C     0.79732   0.69917   0.20117   0.00000  Uiso   1.00
C431   C     0.83786   0.64985   0.16618   0.00000  Uiso   1.00
C432   C     0.79456   0.73520   0.36196   0.00000  Uiso   1.00
C433   C     0.81234   0.78558   0.35440   0.00000  Uiso   1.00
C434   C     0.85975   0.77578   0.38949   0.00000  Uiso   1.00
C435   C     0.68646   0.70988   0.39606   0.00000  Uiso   1.00
C436   C     0.61335   0.73898   0.41719   0.00000  Uiso   1.00
C437   C     0.56975   0.70788   0.48100   0.00000  Uiso   1.00
H438   H     0.81861   0.58333   0.43608   0.00000  Uiso   1.00
H439   H     0.87759   0.53585   0.31686   0.00000  Uiso   1.00
H440   H     0.89260   0.62225   0.47007   0.00000  Uiso   1.00
H441   H     0.69364   0.57566   0.53284   0.00000  Uiso   1.00
H442   H     0.93040   0.50884   0.16652   0.00000  Uiso   1.00
H443   H     0.96204   0.69102   0.48960   0.00000  Uiso   1.00
H444   H     0.54249   0.59278   0.62198   0.00000  Uiso   1.00
H445   H     0.72156   0.78079   0.29624   0.00000  Uiso   1.00
H446   H     0.77521   0.74414   0.16934   0.00000  Uiso   1.00
H447   H     0.79023   0.83054   0.32256   0.00000  Uiso   1.00
H448   H     0.59127   0.78395   0.38533   0.00000  Uiso   1.00
H449   H     0.84731   0.67789   0.04680   0.00000  Uiso   1.00
H450   H     0.87895   0.86007   0.36988   0.00000  Uiso   1.00
H451   H     0.45941   0.76183   0.50225   0.00000  Uiso   1.00
O452   O     0.92592   0.56570   0.02570   0.00000  Uiso   1.00
O453   O     0.96742   0.80472   0.44958   0.00000  Uiso   1.00
O454   O     0.41699   0.67582   0.62325   0.00000  Uiso   1.00
N455   N     0.90347   0.55365   0.15576   0.00000  Uiso   1.00
N456   N     0.93306   0.72398   0.45781   0.00000  Uiso   1.00
N457   N     0.54082   0.63214   0.58159   0.00000  Uiso   1.00
N458   N     0.85876   0.64462   0.09134   0.00000  Uiso   1.00
N459   N     0.88835   0.81495   0.39339   0.00000  Uiso   1.00
N460   N     0.49611   0.72310   0.51716   0.00000  Uiso   1.00
C461   C     0.67821   0.30228   0.97362   0.00000  Uiso   1.00
C462   C     0.63480   0.25722   0.01695   0.00000  Uiso   1.00
C463   C     0.58313   0.25641   0.08987   0.00000  Uiso   1.00
C464   C     0.54944   0.21151   0.11951   0.00000  Uiso   1.00
C465   C     0.47941   0.14798   0.19317   0.00000  Uiso   1.00
C466   C     0.75652   0.26357   0.95414   0.00000  Uiso   1.00
C467   C     0.80717   0.26812   0.97424   0.00000  Uiso   1.00
C468   C     0.87594   0.22858   0.95100   0.00000  Uiso   1.00
C469   C     0.99488   0.17495   0.92709   0.00000  Uiso   1.00
C470   C     0.66530   0.33240   0.89699   0.00000  Uiso   1.00
C471   C     0.63928   0.39481   0.86903   0.00000  Uiso   1.00
C472   C     0.63127   0.41321   0.79767   0.00000  Uiso   1.00
C473   C     0.60859   0.46645   0.68503   0.00000  Uiso   1.00
C474   C     0.71028   0.22399   0.89660   0.00000  Uiso   1.00
C475   C     0.65222   0.21469   0.97511   0.00000  Uiso   1.00
C476   C     0.61860   0.16978   0.00465   0.00000  Uiso   1.00
C477   C     0.56688   0.16891   0.07760   0.00000  Uiso   1.00
C478   C     0.77393   0.22105   0.91230   0.00000  Uiso   1.00
C479   C     0.84264   0.18149   0.88902   0.00000  Uiso   1.00
C480   C     0.89339   0.18597   0.90909   0.00000  Uiso   1.00
C481   C     0.68271   0.28987   0.85515   0.00000  Uiso   1.00
C482   C     0.67475   0.30818   0.78381   0.00000  Uiso   1.00
C483   C     0.64872   0.37061   0.75575   0.00000  Uiso   1.00
H484   H     0.66466   0.33539   0.00619   0.00000  Uiso   1.00
H485   H     0.56967   0.28932   0.12223   0.00000  Uiso   1.00
H486   H     0.79368   0.30104   0.00661   0.00000  Uiso   1.00
H487   H     0.62581   0.42770   0.90142   0.00000  Uiso   1.00
H488   H     0.47205   0.21948   0.23245   0.00000  Uiso   1.00
H489   H     0.94439   0.24419   0.98863   0.00000  Uiso   1.00
H490   H     0.59041   0.51130   0.76682   0.00000  Uiso   1.00
H491   H     0.72384   0.19088   0.86402   0.00000  Uiso   1.00
H492   H     0.63209   0.13688   0.97226   0.00000  Uiso   1.00
H493   H     0.85610   0.14859   0.85664   0.00000  Uiso   1.00
H494   H     0.68823   0.27526   0.75145   0.00000  Uiso   1.00
H495   H     0.52272   0.09575   0.11072   0.00000  Uiso   1.00
H496   H     0.99506   0.12046   0.86691   0.00000  Uiso   1.00
H497   H     0.64108   0.38757   0.64510   0.00000  Uiso   1.00
O498   O     0.43598   0.12468   0.24536   0.00000  Uiso   1.00
O499   O     0.05568   0.15712   0.92548   0.00000  Uiso   1.00
O500   O     0.59126   0.50756   0.63447   0.00000  Uiso   1.00
N501   N     0.49656   0.19778   0.18894   0.00000  Uiso   1.00
N502   N     0.93817   0.22088   0.96100   0.00000  Uiso   1.00
N503   N     0.60724   0.47060   0.75361   0.00000  Uiso   1.00
N504   N     0.52382   0.13120   0.12344   0.00000  Uiso   1.00
N505   N     0.96543   0.15430   0.89550   0.00000  Uiso   1.00
N506   N     0.63450   0.40402   0.68811   0.00000  Uiso   1.00
C507   C     0.16615   0.01478   0.71839   0.00000  Uiso   1.00
C508   C     0.12350   0.02793   0.66779   0.00000  Uiso   1.00
C509   C     0.11051   0.08081   0.61181   0.00000  Uiso   1.00
C510   C     0.07031   0.08404   0.57173   0.00000  Uiso   1.00
C511   C     0.00805   0.11175   0.49084   0.00000  Uiso   1.00
C512   C     0.11642   0.00103   0.80138   0.00000  Uiso   1.00
C513   C     0.09749   0.03131   0.85772   0.00000  Uiso   1.00
C514   C     0.05134   0.01189   0.93011   0.00000  Uiso   1.00
C515   C     0.97813   0.99782   0.05663   0.00000  Uiso   1.00
C516   C     0.22542   0.95487   0.70547   0.00000  Uiso   1.00
C517   C     0.29814   0.94632   0.68118   0.00000  Uiso   1.00
C518   C     0.34375   0.88803   0.67283   0.00000  Uiso   1.00
C519   C     0.43977   0.80229   0.65044   0.00000  Uiso   1.00
C520   C     0.11785   0.92646   0.74678   0.00000  Uiso   1.00
C521   C     0.09727   0.97995   0.68321   0.00000  Uiso   1.00
C522   C     0.05708   0.98309   0.64321   0.00000  Uiso   1.00
C523   C     0.04403   0.03598   0.58717   0.00000  Uiso   1.00
C524   C     0.09019   0.95306   0.81680   0.00000  Uiso   1.00
C525   C     0.04406   0.93359   0.88912   0.00000  Uiso   1.00
C526   C     0.02506   0.96383   0.94555   0.00000  Uiso   1.00
C527   C     0.19919   0.90690   0.72088   0.00000  Uiso   1.00
C528   C     0.24470   0.84860   0.71258   0.00000  Uiso   1.00
C529   C     0.31747   0.83997   0.68828   0.00000  Uiso   1.00
H530   H     0.18657   0.05213   0.70640   0.00000  Uiso   1.00
H531   H     0.13082   0.11793   0.59990   0.00000  Uiso   1.00
H532   H     0.11781   0.06843   0.84578   0.00000  Uiso   1.00
H533   H     0.31842   0.98346   0.66926   0.00000  Uiso   1.00
H534   H     0.05741   0.16973   0.48864   0.00000  Uiso   1.00
H535   H     0.03000   0.06534   0.00710   0.00000  Uiso   1.00
H536   H     0.45302   0.88616   0.63488   0.00000  Uiso   1.00
H537   H     0.09743   0.88911   0.75878   0.00000  Uiso   1.00
H538   H     0.03678   0.94596   0.65515   0.00000  Uiso   1.00
H539   H     0.02377   0.89646   0.90103   0.00000  Uiso   1.00
H540   H     0.22438   0.81149   0.72451   0.00000  Uiso   1.00
H541   H     0.98109   0.03016   0.53349   0.00000  Uiso   1.00
H542   H     0.95368   0.92576   0.05195   0.00000  Uiso   1.00
H543   H     0.37670   0.74659   0.67972   0.00000  Uiso   1.00
O544   O     0.98095   0.14030   0.44197   0.00000  Uiso   1.00
O545   O     0.94499   0.00332   0.12216   0.00000  Uiso   1.00
O546   O     0.49998   0.76825   0.63381   0.00000  Uiso   1.00
N547   N     0.04779   0.12908   0.51341   0.00000  Uiso   1.00
N548   N     0.02215   0.03148   0.99813   0.00000  Uiso   1.00
N549   N     0.41764   0.86396   0.65015   0.00000  Uiso   1.00
N550   N     0.00672   0.05397   0.53754   0.00000  Uiso   1.00
N551   N     0.98108   0.95638   0.02226   0.00000  Uiso   1.00
N552   N     0.37657   0.78886   0.67428   0.00000  Uiso   1.00
