data_job_06675
_audit_creation_date              2018-12-19
_audit_creation_method            'Materials Studio'
_symmetry_space_group_name_H-M    'P1'
_symmetry_Int_Tables_number       1
_symmetry_cell_setting            triclinic
loop_
_symmetry_equiv_pos_as_xyz
  x,y,z
_cell_length_a                    20.6893
_cell_length_b                    19.1592
_cell_length_c                    19.9163
_cell_angle_alpha                 99.4985
_cell_angle_beta                  97.3470
_cell_angle_gamma                 85.0060
loop_
_atom_site_label
_atom_site_type_symbol
_atom_site_fract_x
_atom_site_fract_y
_atom_site_fract_z
_atom_site_U_iso_or_equiv
_atom_site_adp_type
_atom_site_occupancy
C1     C     0.84252   0.18312   0.76912   0.00000  Uiso   1.00
C2     C     0.85801   0.10319   0.75408   0.00000  Uiso   1.00
C3     C     0.81663   0.05157   0.75929   0.00000  Uiso   1.00
C4     C     0.83988   0.98135   0.74329   0.00000  Uiso   1.00
C5     C     0.85446   0.85996   0.72307   0.00000  Uiso   1.00
C6     C     0.89668   0.21184   0.82332   0.00000  Uiso   1.00
C7     C     0.88781   0.25158   0.88673   0.00000  Uiso   1.00
C8     C     0.94361   0.27284   0.92901   0.00000  Uiso   1.00
C9     C     0.01822   0.32018   0.01626   0.00000  Uiso   1.00
C10    C     0.85158   0.21179   0.70416   0.00000  Uiso   1.00
C11    C     0.80480   0.25150   0.66740   0.00000  Uiso   1.00
C12    C     0.82264   0.27272   0.60937   0.00000  Uiso   1.00
C13    C     0.82723   0.31997   0.51162   0.00000  Uiso   1.00
C14    C     0.95739   0.15022   0.73144   0.00000  Uiso   1.00
C15    C     0.92041   0.08532   0.73362   0.00000  Uiso   1.00
C16    C     0.94372   0.01517   0.71760   0.00000  Uiso   1.00
C17    C     0.90238   0.96345   0.72278   0.00000  Uiso   1.00
C18    C     0.95907   0.19398   0.80285   0.00000  Uiso   1.00
C19    C     0.01490   0.21518   0.84504   0.00000  Uiso   1.00
C20    C     0.00612   0.25494   0.90851   0.00000  Uiso   1.00
C21    C     0.91398   0.19392   0.68369   0.00000  Uiso   1.00
C22    C     0.93189   0.21509   0.62571   0.00000  Uiso   1.00
C23    C     0.88514   0.25482   0.58887   0.00000  Uiso   1.00
H24    H     0.79395   0.19703   0.78506   0.00000  Uiso   1.00
H25    H     0.76835   0.06541   0.77514   0.00000  Uiso   1.00
H26    H     0.83952   0.26541   0.90255   0.00000  Uiso   1.00
H27    H     0.75653   0.26531   0.68326   0.00000  Uiso   1.00
H28    H     0.76751   0.91161   0.75513   0.00000  Uiso   1.00
H29    H     0.91757   0.33332   0.02379   0.00000  Uiso   1.00
H30    H     0.74255   0.33313   0.56136   0.00000  Uiso   1.00
H31    H     0.00596   0.13631   0.71551   0.00000  Uiso   1.00
H32    H     0.99201   0.00136   0.70176   0.00000  Uiso   1.00
H33    H     0.06317   0.20135   0.82919   0.00000  Uiso   1.00
H34    H     0.98018   0.20126   0.60989   0.00000  Uiso   1.00
H35    H     0.94903   0.85962   0.69558   0.00000  Uiso   1.00
H36    H     0.09909   0.28134   0.96424   0.00000  Uiso   1.00
H37    H     0.92408   0.28114   0.50181   0.00000  Uiso   1.00
O38    O     0.84527   0.79793   0.71759   0.00000  Uiso   1.00
O39    O     0.04214   0.35121   0.07005   0.00000  Uiso   1.00
O40    O     0.81252   0.35096   0.46335   0.00000  Uiso   1.00
N41    N     0.81214   0.91790   0.74299   0.00000  Uiso   1.00
N42    N     0.95243   0.31216   0.99417   0.00000  Uiso   1.00
N43    N     0.78882   0.31200   0.56185   0.00000  Uiso   1.00
N44    N     0.90981   0.88992   0.71094   0.00000  Uiso   1.00
N45    N     0.05011   0.28419   0.96213   0.00000  Uiso   1.00
N46    N     0.88649   0.28402   0.52980   0.00000  Uiso   1.00
C47    C     0.74028   0.77154   0.07356   0.00000  Uiso   1.00
C48    C     0.76556   0.75184   0.00379   0.00000  Uiso   1.00
C49    C     0.79226   0.68561   0.97725   0.00000  Uiso   1.00
C50    C     0.81254   0.67834   0.91250   0.00000  Uiso   1.00
C51    C     0.85277   0.63910   0.80978   0.00000  Uiso   1.00
C52    C     0.77781   0.83438   0.11093   0.00000  Uiso   1.00
C53    C     0.81480   0.83754   0.17447   0.00000  Uiso   1.00
C54    C     0.84539   0.89975   0.19990   0.00000  Uiso   1.00
C55    C     0.90460   0.98867   0.26354   0.00000  Uiso   1.00
C56    C     0.66961   0.80027   0.05950   0.00000  Uiso   1.00
C57    C     0.61562   0.77477   0.07982   0.00000  Uiso   1.00
C58    C     0.55510   0.80828   0.06197   0.00000  Uiso   1.00
C59    C     0.44631   0.84424   0.04576   0.00000  Uiso   1.00
C60    C     0.72881   0.87640   0.00575   0.00000  Uiso   1.00
C61    C     0.75933   0.80880   0.96696   0.00000  Uiso   1.00
C62    C     0.77957   0.80163   0.90222   0.00000  Uiso   1.00
C63    C     0.80629   0.73540   0.87560   0.00000  Uiso   1.00
C64    C     0.77159   0.89133   0.07409   0.00000  Uiso   1.00
C65    C     0.80211   0.95356   0.09944   0.00000  Uiso   1.00
C66    C     0.83915   0.95682   0.16301   0.00000  Uiso   1.00
C67    C     0.66338   0.85723   0.02266   0.00000  Uiso   1.00
C68    C     0.60293   0.89079   0.00479   0.00000  Uiso   1.00
C69    C     0.54886   0.86534   0.02507   0.00000  Uiso   1.00
H70    H     0.74513   0.72720   0.10224   0.00000  Uiso   1.00
H71    H     0.79708   0.64155   0.00578   0.00000  Uiso   1.00
H72    H     0.81961   0.79346   0.20297   0.00000  Uiso   1.00
H73    H     0.62046   0.73069   0.10832   0.00000  Uiso   1.00
H74    H     0.85195   0.57171   0.88260   0.00000  Uiso   1.00
H75    H     0.89944   0.89203   0.29839   0.00000  Uiso   1.00
H76    H     0.47949   0.75968   0.09882   0.00000  Uiso   1.00
H77    H     0.72396   0.92075   0.97707   0.00000  Uiso   1.00
H78    H     0.77474   0.84572   0.87373   0.00000  Uiso   1.00
H79    H     0.79728   0.99763   0.07092   0.00000  Uiso   1.00
H80    H     0.59813   0.93486   0.97628   0.00000  Uiso   1.00
H81    H     0.83382   0.73742   0.77543   0.00000  Uiso   1.00
H82    H     0.88132   0.05774   0.19122   0.00000  Uiso   1.00
H83    H     0.46136   0.92539   0.99165   0.00000  Uiso   1.00
O84    O     0.87670   0.60172   0.76330   0.00000  Uiso   1.00
O85    O     0.93899   0.02197   0.30881   0.00000  Uiso   1.00
O86    O     0.38803   0.84833   0.04698   0.00000  Uiso   1.00
N87    N     0.84070   0.62100   0.87155   0.00000  Uiso   1.00
N88    N     0.88511   0.92048   0.26029   0.00000  Uiso   1.00
N89    N     0.49249   0.79676   0.07372   0.00000  Uiso   1.00
N90    N     0.83095   0.71017   0.81388   0.00000  Uiso   1.00
N91    N     0.87536   0.00965   0.20262   0.00000  Uiso   1.00
N92    N     0.48274   0.88592   0.01605   0.00000  Uiso   1.00
C93    C     0.17954   0.65049   0.83925   0.00000  Uiso   1.00
C94    C     0.12352   0.67555   0.78940   0.00000  Uiso   1.00
C95    C     0.12933   0.69295   0.72561   0.00000  Uiso   1.00
C96    C     0.07226   0.71475   0.68775   0.00000  Uiso   1.00
C97    C     0.99452   0.75305   0.60654   0.00000  Uiso   1.00
C98    C     0.17689   0.70189   0.90617   0.00000  Uiso   1.00
C99    C     0.22758   0.74144   0.94056   0.00000  Uiso   1.00
C100   C     0.21543   0.78540   0.00101   0.00000  Uiso   1.00
C101   C     0.22055   0.86456   0.10112   0.00000  Uiso   1.00
C102   C     0.16166   0.57934   0.85385   0.00000  Uiso   1.00
C103   C     0.19955   0.51585   0.84426   0.00000  Uiso   1.00
C104   C     0.17458   0.45665   0.86066   0.00000  Uiso   1.00
C105   C     0.15606   0.34554   0.87953   0.00000  Uiso   1.00
C106   C     0.06785   0.65824   0.88546   0.00000  Uiso   1.00
C107   C     0.06286   0.67976   0.81450   0.00000  Uiso   1.00
C108   C     0.00576   0.70153   0.77673   0.00000  Uiso   1.00
C109   C     0.01149   0.71897   0.71289   0.00000  Uiso   1.00
C110   C     0.11623   0.70610   0.93127   0.00000  Uiso   1.00
C111   C     0.10400   0.75001   0.99168   0.00000  Uiso   1.00
C112   C     0.15465   0.78962   0.02615   0.00000  Uiso   1.00
C113   C     0.10099   0.58355   0.87894   0.00000  Uiso   1.00
C114   C     0.07597   0.52443   0.89538   0.00000  Uiso   1.00
C115   C     0.11381   0.46087   0.88581   0.00000  Uiso   1.00
H116   H     0.22677   0.64721   0.81972   0.00000  Uiso   1.00
H117   H     0.17629   0.68969   0.70621   0.00000  Uiso   1.00
H118   H     0.27452   0.73816   0.92113   0.00000  Uiso   1.00
H119   H     0.24649   0.51262   0.82484   0.00000  Uiso   1.00
H120   H     0.09358   0.73868   0.59144   0.00000  Uiso   1.00
H121   H     0.30070   0.84086   0.04463   0.00000  Uiso   1.00
H122   H     0.24160   0.36525   0.84158   0.00000  Uiso   1.00
H123   H     0.02062   0.66152   0.90500   0.00000  Uiso   1.00
H124   H     0.95882   0.70478   0.79616   0.00000  Uiso   1.00
H125   H     0.05705   0.75325   0.01109   0.00000  Uiso   1.00
H126   H     0.02902   0.52771   0.91480   0.00000  Uiso   1.00
H127   H     0.91707   0.75093   0.66445   0.00000  Uiso   1.00
H128   H     0.12420   0.85311   0.11765   0.00000  Uiso   1.00
H129   H     0.06509   0.37750   0.91459   0.00000  Uiso   1.00
O130   O     0.96840   0.77303   0.55482   0.00000  Uiso   1.00
O131   O     0.24014   0.90707   0.14940   0.00000  Uiso   1.00
O132   O     0.16260   0.28309   0.88299   0.00000  Uiso   1.00
N133   N     0.06051   0.73561   0.62355   0.00000  Uiso   1.00
N134   N     0.25416   0.83115   0.04725   0.00000  Uiso   1.00
N135   N     0.19891   0.38650   0.85743   0.00000  Uiso   1.00
N136   N     0.96554   0.74220   0.66284   0.00000  Uiso   1.00
N137   N     0.15918   0.83774   0.08654   0.00000  Uiso   1.00
N138   N     0.10393   0.39309   0.89672   0.00000  Uiso   1.00
C139   C     0.42476   0.10440   0.75588   0.00000  Uiso   1.00
C140   C     0.42569   0.08850   0.67840   0.00000  Uiso   1.00
C141   C     0.37991   0.11494   0.63004   0.00000  Uiso   1.00
C142   C     0.38942   0.09411   0.56167   0.00000  Uiso   1.00
C143   C     0.38276   0.07640   0.44430   0.00000  Uiso   1.00
C144   C     0.49016   0.13446   0.78515   0.00000  Uiso   1.00
C145   C     0.49858   0.19953   0.82654   0.00000  Uiso   1.00
C146   C     0.56237   0.21737   0.84803   0.00000  Uiso   1.00
C147   C     0.65580   0.27098   0.89642   0.00000  Uiso   1.00
C148   C     0.42581   0.03266   0.77982   0.00000  Uiso   1.00
C149   C     0.38013   0.01215   0.81675   0.00000  Uiso   1.00
C150   C     0.38976   0.94430   0.83377   0.00000  Uiso   1.00
C151   C     0.38327   0.83986   0.87389   0.00000  Uiso   1.00
C152   C     0.52307   0.02038   0.72047   0.00000  Uiso   1.00
C153   C     0.47909   0.04287   0.65918   0.00000  Uiso   1.00
C154   C     0.48868   0.02199   0.59086   0.00000  Uiso   1.00
C155   C     0.44292   0.04839   0.54240   0.00000  Uiso   1.00
C156   C     0.54356   0.08882   0.76592   0.00000  Uiso   1.00
C157   C     0.60735   0.10657   0.78736   0.00000  Uiso   1.00
C158   C     0.61587   0.17166   0.82877   0.00000  Uiso   1.00
C159   C     0.47921   0.98702   0.76059   0.00000  Uiso   1.00
C160   C     0.48890   0.91919   0.77757   0.00000  Uiso   1.00
C161   C     0.44325   0.89858   0.81451   0.00000  Uiso   1.00
H162   H     0.38319   0.13993   0.77085   0.00000  Uiso   1.00
H163   H     0.33859   0.15026   0.64494   0.00000  Uiso   1.00
H164   H     0.45725   0.23483   0.84141   0.00000  Uiso   1.00
H165   H     0.33882   0.04748   0.83162   0.00000  Uiso   1.00
H166   H     0.31271   0.14162   0.49686   0.00000  Uiso   1.00
H167   H     0.56291   0.31992   0.91116   0.00000  Uiso   1.00
H168   H     0.31317   0.92486   0.89051   0.00000  Uiso   1.00
H169   H     0.56465   0.98485   0.70550   0.00000  Uiso   1.00
H170   H     0.53000   0.98667   0.57600   0.00000  Uiso   1.00
H171   H     0.64866   0.07124   0.77247   0.00000  Uiso   1.00
H172   H     0.53023   0.88389   0.76268   0.00000  Uiso   1.00
H173   H     0.46807   0.00884   0.44090   0.00000  Uiso   1.00
H174   H     0.71826   0.18715   0.85520   0.00000  Uiso   1.00
H175   H     0.46853   0.79208   0.83455   0.00000  Uiso   1.00
O176   O     0.36434   0.07925   0.38487   0.00000  Uiso   1.00
O177   O     0.69258   0.31317   0.92842   0.00000  Uiso   1.00
O178   O     0.36493   0.79485   0.90133   0.00000  Uiso   1.00
N179   N     0.35402   0.11011   0.50146   0.00000  Uiso   1.00
N180   N     0.58794   0.27682   0.88880   0.00000  Uiso   1.00
N181   N     0.35447   0.90747   0.86951   0.00000  Uiso   1.00
N182   N     0.43762   0.03866   0.47135   0.00000  Uiso   1.00
N183   N     0.67153   0.20537   0.85869   0.00000  Uiso   1.00
N184   N     0.43806   0.83602   0.83940   0.00000  Uiso   1.00
C185   C     0.28900   0.45291   0.28856   0.00000  Uiso   1.00
C186   C     0.30832   0.37392   0.28576   0.00000  Uiso   1.00
C187   C     0.32824   0.32835   0.22936   0.00000  Uiso   1.00
C188   C     0.34384   0.25795   0.23714   0.00000  Uiso   1.00
C189   C     0.37451   0.13895   0.22337   0.00000  Uiso   1.00
C190   C     0.33319   0.49069   0.34821   0.00000  Uiso   1.00
C191   C     0.37402   0.54330   0.34433   0.00000  Uiso   1.00
C192   C     0.41054   0.57121   0.40469   0.00000  Uiso   1.00
C193   C     0.47980   0.63353   0.48790   0.00000  Uiso   1.00
C194   C     0.22018   0.46397   0.30989   0.00000  Uiso   1.00
C195   C     0.16598   0.49413   0.27380   0.00000  Uiso   1.00
C196   C     0.10735   0.49955   0.30190   0.00000  Uiso   1.00
C197   C     0.00113   0.52038   0.32561   0.00000  Uiso   1.00
C198   C     0.28126   0.40893   0.40265   0.00000  Uiso   1.00
C199   C     0.30412   0.35004   0.34773   0.00000  Uiso   1.00
C200   C     0.31968   0.27969   0.35559   0.00000  Uiso   1.00
C201   C     0.33962   0.23402   0.29922   0.00000  Uiso   1.00
C202   C     0.32899   0.46681   0.41018   0.00000  Uiso   1.00
C203   C     0.36546   0.49464   0.47056   0.00000  Uiso   1.00
C204   C     0.40633   0.54728   0.46677   0.00000  Uiso   1.00
C205   C     0.21597   0.44008   0.37186   0.00000  Uiso   1.00
C206   C     0.15742   0.44546   0.40003   0.00000  Uiso   1.00
C207   C     0.10314   0.47562   0.36399   0.00000  Uiso   1.00
H208   H     0.29227   0.47151   0.24031   0.00000  Uiso   1.00
H209   H     0.33150   0.34686   0.18141   0.00000  Uiso   1.00
H210   H     0.37726   0.56178   0.29637   0.00000  Uiso   1.00
H211   H     0.16925   0.51261   0.22585   0.00000  Uiso   1.00
H212   H     0.37315   0.19813   0.14345   0.00000  Uiso   1.00
H213   H     0.46963   0.65132   0.38584   0.00000  Uiso   1.00
H214   H     0.03100   0.54764   0.23713   0.00000  Uiso   1.00
H215   H     0.27798   0.39033   0.45090   0.00000  Uiso   1.00
H216   H     0.31642   0.26122   0.40356   0.00000  Uiso   1.00
H217   H     0.36219   0.47615   0.51851   0.00000  Uiso   1.00
H218   H     0.15418   0.42697   0.44799   0.00000  Uiso   1.00
H219   H     0.36092   0.12862   0.32375   0.00000  Uiso   1.00
H220   H     0.45740   0.58182   0.56614   0.00000  Uiso   1.00
H221   H     0.01877   0.47813   0.41743   0.00000  Uiso   1.00
O222   O     0.39261   0.07992   0.19866   0.00000  Uiso   1.00
O223   O     0.51917   0.67450   0.51667   0.00000  Uiso   1.00
O224   O     0.94370   0.53846   0.32157   0.00000  Uiso   1.00
N225   N     0.36499   0.19949   0.19238   0.00000  Uiso   1.00
N226   N     0.45520   0.62319   0.41900   0.00000  Uiso   1.00
N227   N     0.04512   0.52627   0.27997   0.00000  Uiso   1.00
N228   N     0.35841   0.16209   0.28940   0.00000  Uiso   1.00
N229   N     0.44862   0.58579   0.51601   0.00000  Uiso   1.00
N230   N     0.03854   0.48887   0.37699   0.00000  Uiso   1.00
C231   C     0.65762   0.32429   0.30173   0.00000  Uiso   1.00
C232   C     0.62607   0.27137   0.33459   0.00000  Uiso   1.00
C233   C     0.65502   0.20684   0.34971   0.00000  Uiso   1.00
C234   C     0.61806   0.16606   0.37972   0.00000  Uiso   1.00
C235   C     0.57877   0.08041   0.42859   0.00000  Uiso   1.00
C236   C     0.65475   0.39419   0.35095   0.00000  Uiso   1.00
C237   C     0.70782   0.43292   0.37982   0.00000  Uiso   1.00
C238   C     0.69501   0.49552   0.42360   0.00000  Uiso   1.00
C239   C     0.70024   0.60056   0.49782   0.00000  Uiso   1.00
C240   C     0.61178   0.33632   0.23777   0.00000  Uiso   1.00
C241   C     0.62871   0.32641   0.17147   0.00000  Uiso   1.00
C242   C     0.57972   0.34031   0.11997   0.00000  Uiso   1.00
C243   C     0.51822   0.35550   0.01846   0.00000  Uiso   1.00
C244   C     0.54051   0.36661   0.32814   0.00000  Uiso   1.00
C245   C     0.56246   0.29437   0.34893   0.00000  Uiso   1.00
C246   C     0.52545   0.25366   0.37893   0.00000  Uiso   1.00
C247   C     0.55434   0.18908   0.39409   0.00000  Uiso   1.00
C248   C     0.59115   0.41717   0.36530   0.00000  Uiso   1.00
C249   C     0.57825   0.47974   0.40904   0.00000  Uiso   1.00
C250   C     0.63129   0.51855   0.43797   0.00000  Uiso   1.00
C251   C     0.54817   0.35930   0.25211   0.00000  Uiso   1.00
C252   C     0.49914   0.37323   0.20070   0.00000  Uiso   1.00
C253   C     0.51600   0.36334   0.13434   0.00000  Uiso   1.00
H254   H     0.70714   0.30640   0.29056   0.00000  Uiso   1.00
H255   H     0.70425   0.18908   0.33860   0.00000  Uiso   1.00
H256   H     0.75704   0.41512   0.36870   0.00000  Uiso   1.00
H257   H     0.67794   0.30862   0.16039   0.00000  Uiso   1.00
H258   H     0.67300   0.06915   0.39821   0.00000  Uiso   1.00
H259   H     0.78431   0.54578   0.46166   0.00000  Uiso   1.00
H260   H     0.61751   0.32122   0.02239   0.00000  Uiso   1.00
H261   H     0.49099   0.38451   0.33932   0.00000  Uiso   1.00
H262   H     0.47623   0.27147   0.39003   0.00000  Uiso   1.00
H263   H     0.52902   0.49751   0.42013   0.00000  Uiso   1.00
H264   H     0.44992   0.39101   0.21182   0.00000  Uiso   1.00
H265   H     0.48793   0.13602   0.43996   0.00000  Uiso   1.00
H266   H     0.59924   0.61266   0.50340   0.00000  Uiso   1.00
H267   H     0.43245   0.38809   0.06414   0.00000  Uiso   1.00
O268   O     0.57467   0.02683   0.45159   0.00000  Uiso   1.00
O269   O     0.72070   0.65215   0.53481   0.00000  Uiso   1.00
O270   O     0.50187   0.35753   0.95851   0.00000  Uiso   1.00
N271   N     0.63146   0.10039   0.40107   0.00000  Uiso   1.00
N272   N     0.73553   0.54601   0.46039   0.00000  Uiso   1.00
N273   N     0.57960   0.33608   0.04972   0.00000  Uiso   1.00
N274   N     0.53188   0.13638   0.42353   0.00000  Uiso   1.00
N275   N     0.63595   0.58199   0.48285   0.00000  Uiso   1.00
N276   N     0.48002   0.37207   0.07218   0.00000  Uiso   1.00
C277   C     0.15393   0.72456   0.26864   0.00000  Uiso   1.00
C278   C     0.13928   0.80462   0.28375   0.00000  Uiso   1.00
C279   C     0.17985   0.85566   0.27508   0.00000  Uiso   1.00
C280   C     0.15760   0.92611   0.29180   0.00000  Uiso   1.00
C281   C     0.14406   0.04759   0.31150   0.00000  Uiso   1.00
C282   C     0.09713   0.69594   0.21800   0.00000  Uiso   1.00
C283   C     0.10226   0.65558   0.15406   0.00000  Uiso   1.00
C284   C     0.04452   0.63454   0.11543   0.00000  Uiso   1.00
C285   C     0.96555   0.58724   0.03308   0.00000  Uiso   1.00
C286   C     0.14886   0.69668   0.33507   0.00000  Uiso   1.00
C287   C     0.19747   0.65692   0.36955   0.00000  Uiso   1.00
C288   C     0.18328   0.63649   0.42948   0.00000  Uiso   1.00
C289   C     0.18463   0.59033   0.52889   0.00000  Uiso   1.00
C290   C     0.04227   0.75894   0.31374   0.00000  Uiso   1.00
C291   C     0.07863   0.82329   0.30824   0.00000  Uiso   1.00
C292   C     0.05631   0.89369   0.32498   0.00000  Uiso   1.00
C293   C     0.09684   0.94482   0.31634   0.00000  Uiso   1.00
C294   C     0.03648   0.71461   0.24249   0.00000  Uiso   1.00
C295   C     0.97872   0.69362   0.20396   0.00000  Uiso   1.00
C296   C     0.98376   0.65325   0.13997   0.00000  Uiso   1.00
C297   C     0.08821   0.71535   0.35956   0.00000  Uiso   1.00
C298   C     0.07394   0.69496   0.41945   0.00000  Uiso   1.00
C299   C     0.12252   0.65519   0.45401   0.00000  Uiso   1.00
H300   H     0.20114   0.71002   0.24957   0.00000  Uiso   1.00
H301   H     0.22678   0.84119   0.25612   0.00000  Uiso   1.00
H302   H     0.14920   0.64114   0.13512   0.00000  Uiso   1.00
H303   H     0.24440   0.64248   0.35058   0.00000  Uiso   1.00
H304   H     0.22844   0.99484   0.27416   0.00000  Uiso   1.00
H305   H     0.06486   0.57301   0.01904   0.00000  Uiso   1.00
H306   H     0.26561   0.57584   0.47337   0.00000  Uiso   1.00
H307   H     0.99505   0.77347   0.33281   0.00000  Uiso   1.00
H308   H     0.00938   0.90813   0.34393   0.00000  Uiso   1.00
H309   H     0.93180   0.70808   0.22293   0.00000  Uiso   1.00
H310   H     0.02700   0.70942   0.43839   0.00000  Uiso   1.00
H311   H     0.05199   0.04917   0.34543   0.00000  Uiso   1.00
H312   H     0.88841   0.62733   0.09031   0.00000  Uiso   1.00
H313   H     0.08916   0.63017   0.54464   0.00000  Uiso   1.00
O314   O     0.15335   0.10944   0.31559   0.00000  Uiso   1.00
O315   O     0.93874   0.55600   0.98089   0.00000  Uiso   1.00
O316   O     0.20213   0.55972   0.57696   0.00000  Uiso   1.00
N317   N     0.18495   0.98915   0.28942   0.00000  Uiso   1.00
N318   N     0.03201   0.59477   0.05089   0.00000  Uiso   1.00
N319   N     0.21970   0.59740   0.47564   0.00000  Uiso   1.00
N320   N     0.09001   0.01838   0.32777   0.00000  Uiso   1.00
N321   N     0.93707   0.62400   0.08924   0.00000  Uiso   1.00
N322   N     0.12475   0.62664   0.51399   0.00000  Uiso   1.00
C323   C     0.26037   0.15577   0.97257   0.00000  Uiso   1.00
C324   C     0.23326   0.17339   0.04152   0.00000  Uiso   1.00
C325   C     0.20330   0.23808   0.06756   0.00000  Uiso   1.00
C326   C     0.18181   0.24356   0.13159   0.00000  Uiso   1.00
C327   C     0.13844   0.27960   0.23307   0.00000  Uiso   1.00
C328   C     0.22630   0.09096   0.93413   0.00000  Uiso   1.00
C329   C     0.19049   0.08635   0.86987   0.00000  Uiso   1.00
C330   C     0.16314   0.02244   0.84350   0.00000  Uiso   1.00
C331   C     0.10900   0.93050   0.77823   0.00000  Uiso   1.00
C332   C     0.33192   0.13078   0.98825   0.00000  Uiso   1.00
C333   C     0.38491   0.15964   0.96948   0.00000  Uiso   1.00
C334   C     0.44649   0.12925   0.98865   0.00000  Uiso   1.00
C335   C     0.55632   0.09914   0.00741   0.00000  Uiso   1.00
C336   C     0.27550   0.05046   0.03997   0.00000  Uiso   1.00
C337   C     0.24148   0.11618   0.07813   0.00000  Uiso   1.00
C338   C     0.22003   0.12156   0.14214   0.00000  Uiso   1.00
C339   C     0.19004   0.18625   0.16827   0.00000  Uiso   1.00
C340   C     0.23451   0.03376   0.97074   0.00000  Uiso   1.00
C341   C     0.20722   0.96984   0.94445   0.00000  Uiso   1.00
C342   C     0.17137   0.96513   0.88017   0.00000  Uiso   1.00
C343   C     0.34013   0.07358   0.02486   0.00000  Uiso   1.00
C344   C     0.40164   0.04313   0.04406   0.00000  Uiso   1.00
C345   C     0.45472   0.07194   0.02533   0.00000  Uiso   1.00
H346   H     0.25398   0.20030   0.94406   0.00000  Uiso   1.00
H347   H     0.19694   0.28233   0.03921   0.00000  Uiso   1.00
H348   H     0.18414   0.13062   0.84155   0.00000  Uiso   1.00
H349   H     0.37853   0.20391   0.94115   0.00000  Uiso   1.00
H350   H     0.13732   0.34805   0.16084   0.00000  Uiso   1.00
H351   H     0.11034   0.02815   0.74405   0.00000  Uiso   1.00
H352   H     0.52025   0.18269   0.95406   0.00000  Uiso   1.00
H353   H     0.28190   0.00592   0.06848   0.00000  Uiso   1.00
H354   H     0.22640   0.07729   0.17046   0.00000  Uiso   1.00
H355   H     0.21359   0.92558   0.97279   0.00000  Uiso   1.00
H356   H     0.40798   0.99887   0.07239   0.00000  Uiso   1.00
H357   H     0.16122   0.18163   0.26736   0.00000  Uiso   1.00
H358   H     0.13424   0.86173   0.85057   0.00000  Uiso   1.00
H359   H     0.54415   0.01627   0.06058   0.00000  Uiso   1.00
O360   O     0.11224   0.31528   0.27893   0.00000  Uiso   1.00
O361   O     0.07685   0.89560   0.73211   0.00000  Uiso   1.00
O362   O     0.61464   0.09835   0.00765   0.00000  Uiso   1.00
N363   N     0.15057   0.29909   0.17192   0.00000  Uiso   1.00
N364   N     0.12534   0.00001   0.78225   0.00000  Uiso   1.00
N365   N     0.50857   0.14448   0.97858   0.00000  Uiso   1.00
N366   N     0.16343   0.20954   0.22924   0.00000  Uiso   1.00
N367   N     0.13820   0.91046   0.83957   0.00000  Uiso   1.00
N368   N     0.52143   0.05493   0.03590   0.00000  Uiso   1.00
C369   C     0.81525   0.25974   0.21044   0.00000  Uiso   1.00
C370   C     0.87150   0.23248   0.25872   0.00000  Uiso   1.00
C371   C     0.86589   0.21071   0.32070   0.00000  Uiso   1.00
C372   C     0.92316   0.18753   0.35733   0.00000  Uiso   1.00
C373   C     0.00126   0.14537   0.43602   0.00000  Uiso   1.00
C374   C     0.81848   0.21220   0.14137   0.00000  Uiso   1.00
C375   C     0.76828   0.17340   0.10468   0.00000  Uiso   1.00
C376   C     0.78092   0.13316   0.04253   0.00000  Uiso   1.00
C377   C     0.77669   0.05957   0.93900   0.00000  Uiso   1.00
C378   C     0.83232   0.33284   0.20028   0.00000  Uiso   1.00
C379   C     0.79375   0.39548   0.21310   0.00000  Uiso   1.00
C380   C     0.81803   0.45681   0.20052   0.00000  Uiso   1.00
C381   C     0.83529   0.57052   0.18846   0.00000  Uiso   1.00
C382   C     0.92693   0.25728   0.16529   0.00000  Uiso   1.00
C383   C     0.93216   0.23114   0.23420   0.00000  Uiso   1.00
C384   C     0.98945   0.20799   0.27075   0.00000  Uiso   1.00
C385   C     0.98393   0.18619   0.33277   0.00000  Uiso   1.00
C386   C     0.87913   0.21087   0.11685   0.00000  Uiso   1.00
C387   C     0.89184   0.17068   0.05473   0.00000  Uiso   1.00
C388   C     0.84168   0.13182   0.01796   0.00000  Uiso   1.00
C389   C     0.89298   0.33151   0.17576   0.00000  Uiso   1.00
C390   C     0.91732   0.39275   0.16315   0.00000  Uiso   1.00
C391   C     0.87880   0.45547   0.17595   0.00000  Uiso   1.00
H392   H     0.76803   0.26078   0.22953   0.00000  Uiso   1.00
H393   H     0.81894   0.21174   0.33966   0.00000  Uiso   1.00
H394   H     0.72135   0.17445   0.12367   0.00000  Uiso   1.00
H395   H     0.74682   0.39649   0.23207   0.00000  Uiso   1.00
H396   H     0.90213   0.15677   0.45093   0.00000  Uiso   1.00
H397   H     0.69634   0.07815   0.99550   0.00000  Uiso   1.00
H398   H     0.75005   0.54637   0.22408   0.00000  Uiso   1.00
H399   H     0.97416   0.25624   0.14620   0.00000  Uiso   1.00
H400   H     0.03638   0.20696   0.25176   0.00000  Uiso   1.00
H401   H     0.93879   0.16966   0.03577   0.00000  Uiso   1.00
H402   H     0.96426   0.39170   0.14418   0.00000  Uiso   1.00
H403   H     0.07861   0.15288   0.37959   0.00000  Uiso   1.00
H404   H     0.87283   0.07426   0.92415   0.00000  Uiso   1.00
H405   H     0.92653   0.54248   0.15274   0.00000  Uiso   1.00
O406   O     0.02758   0.12247   0.48619   0.00000  Uiso   1.00
O407   O     0.75759   0.01933   0.88868   0.00000  Uiso   1.00
O408   O     0.82806   0.63362   0.18858   0.00000  Uiso   1.00
N409   N     0.93513   0.16263   0.41966   0.00000  Uiso   1.00
N410   N     0.74273   0.08912   0.99386   0.00000  Uiso   1.00
N411   N     0.79293   0.52686   0.20755   0.00000  Uiso   1.00
N412   N     0.03009   0.16054   0.38127   0.00000  Uiso   1.00
N413   N     0.83770   0.08703   0.95547   0.00000  Uiso   1.00
N414   N     0.88790   0.52477   0.16917   0.00000  Uiso   1.00
C415   C     0.67931   0.82807   0.31298   0.00000  Uiso   1.00
C416   C     0.66219   0.83091   0.38566   0.00000  Uiso   1.00
C417   C     0.70657   0.83193   0.44424   0.00000  Uiso   1.00
C418   C     0.68114   0.83457   0.50590   0.00000  Uiso   1.00
C419   C     0.66481   0.83871   0.61830   0.00000  Uiso   1.00
C420   C     0.64842   0.76306   0.27062   0.00000  Uiso   1.00
C421   C     0.68123   0.70704   0.23246   0.00000  Uiso   1.00
C422   C     0.64420   0.65257   0.19727   0.00000  Uiso   1.00
C423   C     0.60649   0.55139   0.13102   0.00000  Uiso   1.00
C424   C     0.64229   0.89220   0.28633   0.00000  Uiso   1.00
C425   C     0.66993   0.94474   0.26137   0.00000  Uiso   1.00
C426   C     0.62774   0.99898   0.23939   0.00000  Uiso   1.00
C427   C     0.58050   0.09831   0.19755   0.00000  Uiso   1.00
C428   C     0.55523   0.83094   0.31833   0.00000  Uiso   1.00
C429   C     0.59480   0.83247   0.38857   0.00000  Uiso   1.00
C430   C     0.56929   0.83511   0.45015   0.00000  Uiso   1.00
C431   C     0.61362   0.83614   0.50881   0.00000  Uiso   1.00
C432   C     0.58103   0.76462   0.27352   0.00000  Uiso   1.00
C433   C     0.54395   0.71022   0.23838   0.00000  Uiso   1.00
C434   C     0.57669   0.65413   0.20018   0.00000  Uiso   1.00
C435   C     0.57489   0.89376   0.28924   0.00000  Uiso   1.00
C436   C     0.53265   0.94792   0.26729   0.00000  Uiso   1.00
C437   C     0.56022   0.00054   0.24230   0.00000  Uiso   1.00
H438   H     0.73178   0.82685   0.31072   0.00000  Uiso   1.00
H439   H     0.75872   0.83072   0.44197   0.00000  Uiso   1.00
H440   H     0.73338   0.70585   0.23022   0.00000  Uiso   1.00
H441   H     0.72208   0.94352   0.25913   0.00000  Uiso   1.00
H442   H     0.75887   0.83567   0.58876   0.00000  Uiso   1.00
H443   H     0.70543   0.57239   0.14225   0.00000  Uiso   1.00
H444   H     0.68161   0.07356   0.20321   0.00000  Uiso   1.00
H445   H     0.50276   0.83215   0.32059   0.00000  Uiso   1.00
H446   H     0.51714   0.83631   0.45239   0.00000  Uiso   1.00
H447   H     0.49180   0.71144   0.24063   0.00000  Uiso   1.00
H448   H     0.48050   0.94911   0.26954   0.00000  Uiso   1.00
H449   H     0.56279   0.84021   0.59721   0.00000  Uiso   1.00
H450   H     0.50936   0.57692   0.15070   0.00000  Uiso   1.00
H451   H     0.48554   0.07809   0.21167   0.00000  Uiso   1.00
O452   O     0.67442   0.84055   0.67950   0.00000  Uiso   1.00
O453   O     0.60432   0.49515   0.09369   0.00000  Uiso   1.00
O454   O     0.57306   0.15267   0.17367   0.00000  Uiso   1.00
N455   N     0.71075   0.83618   0.57266   0.00000  Uiso   1.00
N456   N     0.66079   0.59002   0.15521   0.00000  Uiso   1.00
N457   N     0.63852   0.05856   0.21219   0.00000  Uiso   1.00
N458   N     0.60524   0.83862   0.57721   0.00000  Uiso   1.00
N459   N     0.55529   0.59246   0.15976   0.00000  Uiso   1.00
N460   N     0.53301   0.06100   0.21674   0.00000  Uiso   1.00
C461   C     0.71700   0.45125   0.76924   0.00000  Uiso   1.00
C462   C     0.69808   0.53023   0.77126   0.00000  Uiso   1.00
C463   C     0.67816   0.57648   0.82724   0.00000  Uiso   1.00
C464   C     0.66297   0.64675   0.81875   0.00000  Uiso   1.00
C465   C     0.63287   0.76586   0.83134   0.00000  Uiso   1.00
C466   C     0.67279   0.41320   0.70976   0.00000  Uiso   1.00
C467   C     0.63162   0.36104   0.71403   0.00000  Uiso   1.00
C468   C     0.59516   0.33279   0.65377   0.00000  Uiso   1.00
C469   C     0.52583   0.27017   0.57087   0.00000  Uiso   1.00
C470   C     0.78590   0.43948   0.74817   0.00000  Uiso   1.00
C471   C     0.83983   0.40940   0.78473   0.00000  Uiso   1.00
C472   C     0.89860   0.40326   0.75679   0.00000  Uiso   1.00
C473   C     0.00489   0.38145   0.73353   0.00000  Uiso   1.00
C474   C     0.72545   0.49381   0.65462   0.00000  Uiso   1.00
C475   C     0.70267   0.55334   0.70900   0.00000  Uiso   1.00
C476   C     0.68751   0.62356   0.70042   0.00000  Uiso   1.00
C477   C     0.66758   0.66991   0.75638   0.00000  Uiso   1.00
C478   C     0.67738   0.43631   0.64750   0.00000  Uiso   1.00
C479   C     0.64097   0.40812   0.58722   0.00000  Uiso   1.00
C480   C     0.59975   0.35594   0.59140   0.00000  Uiso   1.00
C481   C     0.79049   0.46260   0.68591   0.00000  Uiso   1.00
C482   C     0.84918   0.45649   0.65791   0.00000  Uiso   1.00
C483   C     0.90319   0.42641   0.69442   0.00000  Uiso   1.00
H484   H     0.71342   0.43326   0.81771   0.00000  Uiso   1.00
H485   H     0.67461   0.55857   0.87541   0.00000  Uiso   1.00
H486   H     0.62809   0.34317   0.76222   0.00000  Uiso   1.00
H487   H     0.83626   0.39152   0.83290   0.00000  Uiso   1.00
H488   H     0.63358   0.70770   0.91191   0.00000  Uiso   1.00
H489   H     0.53550   0.25348   0.67324   0.00000  Uiso   1.00
H490   H     0.97448   0.35545   0.82229   0.00000  Uiso   1.00
H491   H     0.72902   0.51180   0.60615   0.00000  Uiso   1.00
H492   H     0.69107   0.64143   0.65224   0.00000  Uiso   1.00
H493   H     0.64454   0.42602   0.53905   0.00000  Uiso   1.00
H494   H     0.85272   0.47438   0.60973   0.00000  Uiso   1.00
H495   H     0.64694   0.77495   0.73078   0.00000  Uiso   1.00
H496   H     0.54885   0.32073   0.49210   0.00000  Uiso   1.00
H497   H     0.98784   0.42270   0.64116   0.00000  Uiso   1.00
O498   O     0.61499   0.82517   0.85547   0.00000  Uiso   1.00
O499   O     0.48632   0.22925   0.54234   0.00000  Uiso   1.00
O500   O     0.06225   0.36304   0.73790   0.00000  Uiso   1.00
N501   N     0.64195   0.70574   0.86296   0.00000  Uiso   1.00
N502   N     0.55024   0.28108   0.63982   0.00000  Uiso   1.00
N503   N     0.96064   0.37640   0.77916   0.00000  Uiso   1.00
N504   N     0.64913   0.74192   0.76550   0.00000  Uiso   1.00
N505   N     0.55742   0.31727   0.54235   0.00000  Uiso   1.00
N506   N     0.96783   0.41258   0.68169   0.00000  Uiso   1.00
C507   C     0.34377   0.57450   0.75718   0.00000  Uiso   1.00
C508   C     0.38790   0.61965   0.72901   0.00000  Uiso   1.00
C509   C     0.36940   0.68445   0.70734   0.00000  Uiso   1.00
C510   C     0.41697   0.71742   0.68324   0.00000  Uiso   1.00
C511   C     0.47579   0.79220   0.63982   0.00000  Uiso   1.00
C512   C     0.34645   0.50206   0.71201   0.00000  Uiso   1.00
C513   C     0.29310   0.46800   0.67606   0.00000  Uiso   1.00
C514   C     0.30578   0.40199   0.63765   0.00000  Uiso   1.00
C515   C     0.30025   0.29419   0.56789   0.00000  Uiso   1.00
C516   C     0.37739   0.56294   0.82758   0.00000  Uiso   1.00
C517   C     0.35006   0.58004   0.88880   0.00000  Uiso   1.00
C518   C     0.38879   0.56526   0.94769   0.00000  Uiso   1.00
C519   C     0.43130   0.55198   0.05736   0.00000  Uiso   1.00
C520   C     0.46115   0.51783   0.75291   0.00000  Uiso   1.00
C521   C     0.45166   0.58887   0.72669   0.00000  Uiso   1.00
C522   C     0.49927   0.62176   0.70262   0.00000  Uiso   1.00
C523   C     0.48085   0.68659   0.68092   0.00000  Uiso   1.00
C524   C     0.41021   0.47129   0.70969   0.00000  Uiso   1.00
C525   C     0.42297   0.40531   0.67133   0.00000  Uiso   1.00
C526   C     0.36966   0.37115   0.63533   0.00000  Uiso   1.00
C527   C     0.44116   0.53216   0.82526   0.00000  Uiso   1.00
C528   C     0.47994   0.51735   0.88407   0.00000  Uiso   1.00
C529   C     0.45267   0.53443   0.94537   0.00000  Uiso   1.00
H530   H     0.29413   0.59845   0.75898   0.00000  Uiso   1.00
H531   H     0.32005   0.70824   0.70914   0.00000  Uiso   1.00
H532   H     0.24376   0.49183   0.67787   0.00000  Uiso   1.00
H533   H     0.30072   0.60385   0.89058   0.00000  Uiso   1.00
H534   H     0.37690   0.81638   0.65283   0.00000  Uiso   1.00
H535   H     0.21605   0.36004   0.58692   0.00000  Uiso   1.00
H536   H     0.33614   0.59627   0.03545   0.00000  Uiso   1.00
H537   H     0.51080   0.49387   0.75110   0.00000  Uiso   1.00
H538   H     0.54861   0.59792   0.70083   0.00000  Uiso   1.00
H539   H     0.47232   0.38151   0.66955   0.00000  Uiso   1.00
H540   H     0.52928   0.49353   0.88226   0.00000  Uiso   1.00
H541   H     0.56241   0.72684   0.64608   0.00000  Uiso   1.00
H542   H     0.40155   0.27050   0.58017   0.00000  Uiso   1.00
H543   H     0.52165   0.50673   0.02870   0.00000  Uiso   1.00
O544   O     0.49061   0.84194   0.61651   0.00000  Uiso   1.00
O545   O     0.27958   0.24324   0.53004   0.00000  Uiso   1.00
O546   O     0.43714   0.55316   0.11850   0.00000  Uiso   1.00
N547   N     0.41537   0.78104   0.65816   0.00000  Uiso   1.00
N548   N     0.26498   0.35439   0.59652   0.00000  Uiso   1.00
N549   N     0.37726   0.57523   0.01586   0.00000  Uiso   1.00
N550   N     0.51519   0.73285   0.65453   0.00000  Uiso   1.00
N551   N     0.36481   0.30621   0.59289   0.00000  Uiso   1.00
N552   N     0.47708   0.52705   0.01223   0.00000  Uiso   1.00
