data_job_00705
_audit_creation_date              2018-12-19
_audit_creation_method            'Materials Studio'
_symmetry_space_group_name_H-M    'P1'
_symmetry_Int_Tables_number       1
_symmetry_cell_setting            triclinic
loop_
_symmetry_equiv_pos_as_xyz
  x,y,z
_cell_length_a                    40.7259
_cell_length_b                    7.2126
_cell_length_c                    18.6965
_cell_angle_alpha                 90.0000
_cell_angle_beta                  64.5796
_cell_angle_gamma                 90.0000
loop_
_atom_site_label
_atom_site_type_symbol
_atom_site_fract_x
_atom_site_fract_y
_atom_site_fract_z
_atom_site_U_iso_or_equiv
_atom_site_adp_type
_atom_site_occupancy
C1     C     0.90683   0.22365   0.91324   0.00000  Uiso   1.00
C2     C     0.87188   0.14845   0.97884   0.00000  Uiso   1.00
C3     C     0.84925   0.24346   0.04673   0.00000  Uiso   1.00
C4     C     0.81857   0.15048   0.09957   0.00000  Uiso   1.00
C5     C     0.76549   0.06128   0.20366   0.00000  Uiso   1.00
C6     C     0.93668   0.08671   0.90563   0.00000  Uiso   1.00
C7     C     0.96854   0.12984   0.91196   0.00000  Uiso   1.00
C8     C     0.99241   0.98488   0.90317   0.00000  Uiso   1.00
C9     C     0.03995   0.79987   0.89355   0.00000  Uiso   1.00
C10    C     0.90216   0.20682   0.83684   0.00000  Uiso   1.00
C11    C     0.90499   0.35091   0.78531   0.00000  Uiso   1.00
C12    C     0.89980   0.30706   0.71858   0.00000  Uiso   1.00
C13    C     0.89373   0.30853   0.60215   0.00000  Uiso   1.00
C14    C     0.89257   0.88954   0.88635   0.00000  Uiso   1.00
C15    C     0.86414   0.96697   0.96423   0.00000  Uiso   1.00
C16    C     0.83348   0.87382   0.01698   0.00000  Uiso   1.00
C17    C     0.81081   0.96868   0.08494   0.00000  Uiso   1.00
C18    C     0.92894   0.90525   0.89103   0.00000  Uiso   1.00
C19    C     0.95277   0.76019   0.88221   0.00000  Uiso   1.00
C20    C     0.98465   0.80308   0.88854   0.00000  Uiso   1.00
C21    C     0.89441   0.02534   0.82223   0.00000  Uiso   1.00
C22    C     0.88921   0.98126   0.75556   0.00000  Uiso   1.00
C23    C     0.89204   0.12526   0.70395   0.00000  Uiso   1.00
H24    H     0.91286   0.36493   0.92461   0.00000  Uiso   1.00
H25    H     0.85526   0.38390   0.05801   0.00000  Uiso   1.00
H26    H     0.97453   0.27029   0.92326   0.00000  Uiso   1.00
H27    H     0.91099   0.49133   0.79663   0.00000  Uiso   1.00
H28    H     0.78799   0.32488   0.19949   0.00000  Uiso   1.00
H29    H     0.03948   0.08534   0.91533   0.00000  Uiso   1.00
H30    H     0.90549   0.55144   0.64830   0.00000  Uiso   1.00
H31    H     0.88654   0.74825   0.87498   0.00000  Uiso   1.00
H32    H     0.82749   0.73338   0.00566   0.00000  Uiso   1.00
H33    H     0.94677   0.61978   0.87091   0.00000  Uiso   1.00
H34    H     0.88322   0.84081   0.74428   0.00000  Uiso   1.00
H35    H     0.76545   0.79689   0.15700   0.00000  Uiso   1.00
H36    H     0.01695   0.55736   0.87283   0.00000  Uiso   1.00
H37    H     0.88295   0.02346   0.60581   0.00000  Uiso   1.00
O38    O     0.73836   0.06220   0.26512   0.00000  Uiso   1.00
O39    O     0.06831   0.74796   0.89229   0.00000  Uiso   1.00
O40    O     0.89251   0.35947   0.54196   0.00000  Uiso   1.00
N41    N     0.79078   0.20267   0.17155   0.00000  Uiso   1.00
N42    N     0.02591   0.97871   0.90588   0.00000  Uiso   1.00
N43    N     0.90065   0.41447   0.65622   0.00000  Uiso   1.00
N44    N     0.77866   0.91856   0.14868   0.00000  Uiso   1.00
N45    N     0.01379   0.69461   0.88302   0.00000  Uiso   1.00
N46    N     0.88852   0.13037   0.63336   0.00000  Uiso   1.00
C47    C     0.40683   0.72365   0.91324   0.00000  Uiso   1.00
C48    C     0.37188   0.64845   0.97884   0.00000  Uiso   1.00
C49    C     0.34925   0.74346   0.04673   0.00000  Uiso   1.00
C50    C     0.31857   0.65048   0.09957   0.00000  Uiso   1.00
C51    C     0.26549   0.56128   0.20366   0.00000  Uiso   1.00
C52    C     0.43668   0.58671   0.90563   0.00000  Uiso   1.00
C53    C     0.46854   0.62984   0.91196   0.00000  Uiso   1.00
C54    C     0.49241   0.48488   0.90317   0.00000  Uiso   1.00
C55    C     0.53995   0.29987   0.89355   0.00000  Uiso   1.00
C56    C     0.40216   0.70682   0.83684   0.00000  Uiso   1.00
C57    C     0.40499   0.85091   0.78531   0.00000  Uiso   1.00
C58    C     0.39980   0.80706   0.71858   0.00000  Uiso   1.00
C59    C     0.39373   0.80853   0.60215   0.00000  Uiso   1.00
C60    C     0.39257   0.38954   0.88635   0.00000  Uiso   1.00
C61    C     0.36414   0.46697   0.96423   0.00000  Uiso   1.00
C62    C     0.33348   0.37382   0.01698   0.00000  Uiso   1.00
C63    C     0.31081   0.46868   0.08494   0.00000  Uiso   1.00
C64    C     0.42894   0.40525   0.89103   0.00000  Uiso   1.00
C65    C     0.45277   0.26019   0.88221   0.00000  Uiso   1.00
C66    C     0.48465   0.30308   0.88854   0.00000  Uiso   1.00
C67    C     0.39441   0.52534   0.82223   0.00000  Uiso   1.00
C68    C     0.38921   0.48126   0.75556   0.00000  Uiso   1.00
C69    C     0.39204   0.62526   0.70395   0.00000  Uiso   1.00
H70    H     0.41286   0.86493   0.92461   0.00000  Uiso   1.00
H71    H     0.35526   0.88390   0.05801   0.00000  Uiso   1.00
H72    H     0.47453   0.77029   0.92326   0.00000  Uiso   1.00
H73    H     0.41099   0.99133   0.79663   0.00000  Uiso   1.00
H74    H     0.28799   0.82488   0.19949   0.00000  Uiso   1.00
H75    H     0.53948   0.58534   0.91533   0.00000  Uiso   1.00
H76    H     0.40549   0.05144   0.64830   0.00000  Uiso   1.00
H77    H     0.38654   0.24825   0.87498   0.00000  Uiso   1.00
H78    H     0.32749   0.23338   0.00566   0.00000  Uiso   1.00
H79    H     0.44677   0.11978   0.87091   0.00000  Uiso   1.00
H80    H     0.38322   0.34081   0.74428   0.00000  Uiso   1.00
H81    H     0.26545   0.29689   0.15700   0.00000  Uiso   1.00
H82    H     0.51695   0.05736   0.87283   0.00000  Uiso   1.00
H83    H     0.38295   0.52346   0.60581   0.00000  Uiso   1.00
O84    O     0.23836   0.56220   0.26512   0.00000  Uiso   1.00
O85    O     0.56831   0.24796   0.89229   0.00000  Uiso   1.00
O86    O     0.39251   0.85947   0.54196   0.00000  Uiso   1.00
N87    N     0.29078   0.70267   0.17155   0.00000  Uiso   1.00
N88    N     0.52591   0.47871   0.90588   0.00000  Uiso   1.00
N89    N     0.40065   0.91447   0.65622   0.00000  Uiso   1.00
N90    N     0.27866   0.41856   0.14868   0.00000  Uiso   1.00
N91    N     0.51379   0.19461   0.88302   0.00000  Uiso   1.00
N92    N     0.38852   0.63037   0.63336   0.00000  Uiso   1.00
C93    C     0.09317   0.22365   0.58676   0.00000  Uiso   1.00
C94    C     0.12812   0.14845   0.52116   0.00000  Uiso   1.00
C95    C     0.15075   0.24346   0.45327   0.00000  Uiso   1.00
C96    C     0.18143   0.15048   0.40043   0.00000  Uiso   1.00
C97    C     0.23451   0.06128   0.29634   0.00000  Uiso   1.00
C98    C     0.06332   0.08671   0.59437   0.00000  Uiso   1.00
C99    C     0.03146   0.12984   0.58804   0.00000  Uiso   1.00
C100   C     0.00759   0.98488   0.59683   0.00000  Uiso   1.00
C101   C     0.96005   0.79987   0.60645   0.00000  Uiso   1.00
C102   C     0.09784   0.20682   0.66316   0.00000  Uiso   1.00
C103   C     0.09501   0.35091   0.71469   0.00000  Uiso   1.00
C104   C     0.10020   0.30706   0.78142   0.00000  Uiso   1.00
C105   C     0.10627   0.30853   0.89785   0.00000  Uiso   1.00
C106   C     0.10743   0.88954   0.61365   0.00000  Uiso   1.00
C107   C     0.13586   0.96697   0.53577   0.00000  Uiso   1.00
C108   C     0.16652   0.87382   0.48302   0.00000  Uiso   1.00
C109   C     0.18919   0.96868   0.41506   0.00000  Uiso   1.00
C110   C     0.07106   0.90525   0.60897   0.00000  Uiso   1.00
C111   C     0.04723   0.76019   0.61779   0.00000  Uiso   1.00
C112   C     0.01535   0.80308   0.61146   0.00000  Uiso   1.00
C113   C     0.10559   0.02534   0.67777   0.00000  Uiso   1.00
C114   C     0.11079   0.98126   0.74444   0.00000  Uiso   1.00
C115   C     0.10796   0.12526   0.79605   0.00000  Uiso   1.00
H116   H     0.08714   0.36493   0.57539   0.00000  Uiso   1.00
H117   H     0.14474   0.38390   0.44199   0.00000  Uiso   1.00
H118   H     0.02547   0.27029   0.57674   0.00000  Uiso   1.00
H119   H     0.08901   0.49133   0.70337   0.00000  Uiso   1.00
H120   H     0.21201   0.32488   0.30051   0.00000  Uiso   1.00
H121   H     0.96052   0.08534   0.58467   0.00000  Uiso   1.00
H122   H     0.09451   0.55144   0.85170   0.00000  Uiso   1.00
H123   H     0.11346   0.74825   0.62502   0.00000  Uiso   1.00
H124   H     0.17251   0.73338   0.49434   0.00000  Uiso   1.00
H125   H     0.05323   0.61978   0.62909   0.00000  Uiso   1.00
H126   H     0.11678   0.84081   0.75572   0.00000  Uiso   1.00
H127   H     0.23455   0.79689   0.34300   0.00000  Uiso   1.00
H128   H     0.98305   0.55736   0.62717   0.00000  Uiso   1.00
H129   H     0.11705   0.02346   0.89419   0.00000  Uiso   1.00
O130   O     0.26164   0.06220   0.23488   0.00000  Uiso   1.00
O131   O     0.93169   0.74796   0.60771   0.00000  Uiso   1.00
O132   O     0.10749   0.35947   0.95804   0.00000  Uiso   1.00
N133   N     0.20922   0.20267   0.32845   0.00000  Uiso   1.00
N134   N     0.97409   0.97871   0.59412   0.00000  Uiso   1.00
N135   N     0.09935   0.41447   0.84378   0.00000  Uiso   1.00
N136   N     0.22134   0.91856   0.35132   0.00000  Uiso   1.00
N137   N     0.98621   0.69461   0.61698   0.00000  Uiso   1.00
N138   N     0.11148   0.13037   0.86664   0.00000  Uiso   1.00
C139   C     0.59317   0.72365   0.58676   0.00000  Uiso   1.00
C140   C     0.62812   0.64845   0.52116   0.00000  Uiso   1.00
C141   C     0.65075   0.74346   0.45327   0.00000  Uiso   1.00
C142   C     0.68143   0.65048   0.40043   0.00000  Uiso   1.00
C143   C     0.73451   0.56128   0.29634   0.00000  Uiso   1.00
C144   C     0.56332   0.58671   0.59437   0.00000  Uiso   1.00
C145   C     0.53146   0.62984   0.58804   0.00000  Uiso   1.00
C146   C     0.50759   0.48488   0.59683   0.00000  Uiso   1.00
C147   C     0.46005   0.29987   0.60645   0.00000  Uiso   1.00
C148   C     0.59784   0.70682   0.66316   0.00000  Uiso   1.00
C149   C     0.59501   0.85091   0.71469   0.00000  Uiso   1.00
C150   C     0.60020   0.80706   0.78142   0.00000  Uiso   1.00
C151   C     0.60627   0.80853   0.89785   0.00000  Uiso   1.00
C152   C     0.60743   0.38954   0.61365   0.00000  Uiso   1.00
C153   C     0.63586   0.46697   0.53577   0.00000  Uiso   1.00
C154   C     0.66652   0.37382   0.48302   0.00000  Uiso   1.00
C155   C     0.68919   0.46868   0.41506   0.00000  Uiso   1.00
C156   C     0.57106   0.40525   0.60897   0.00000  Uiso   1.00
C157   C     0.54723   0.26019   0.61779   0.00000  Uiso   1.00
C158   C     0.51535   0.30308   0.61146   0.00000  Uiso   1.00
C159   C     0.60559   0.52534   0.67777   0.00000  Uiso   1.00
C160   C     0.61079   0.48126   0.74444   0.00000  Uiso   1.00
C161   C     0.60796   0.62526   0.79605   0.00000  Uiso   1.00
H162   H     0.58714   0.86493   0.57539   0.00000  Uiso   1.00
H163   H     0.64474   0.88390   0.44199   0.00000  Uiso   1.00
H164   H     0.52547   0.77029   0.57674   0.00000  Uiso   1.00
H165   H     0.58901   0.99133   0.70337   0.00000  Uiso   1.00
H166   H     0.71201   0.82488   0.30051   0.00000  Uiso   1.00
H167   H     0.46052   0.58534   0.58467   0.00000  Uiso   1.00
H168   H     0.59451   0.05144   0.85170   0.00000  Uiso   1.00
H169   H     0.61346   0.24825   0.62502   0.00000  Uiso   1.00
H170   H     0.67251   0.23338   0.49434   0.00000  Uiso   1.00
H171   H     0.55323   0.11978   0.62909   0.00000  Uiso   1.00
H172   H     0.61678   0.34081   0.75572   0.00000  Uiso   1.00
H173   H     0.73455   0.29689   0.34300   0.00000  Uiso   1.00
H174   H     0.48305   0.05736   0.62717   0.00000  Uiso   1.00
H175   H     0.61705   0.52346   0.89419   0.00000  Uiso   1.00
O176   O     0.76164   0.56220   0.23488   0.00000  Uiso   1.00
O177   O     0.43169   0.24796   0.60771   0.00000  Uiso   1.00
O178   O     0.60749   0.85947   0.95804   0.00000  Uiso   1.00
N179   N     0.70922   0.70267   0.32845   0.00000  Uiso   1.00
N180   N     0.47409   0.47871   0.59412   0.00000  Uiso   1.00
N181   N     0.59935   0.91447   0.84378   0.00000  Uiso   1.00
N182   N     0.72134   0.41856   0.35132   0.00000  Uiso   1.00
N183   N     0.48621   0.19461   0.61698   0.00000  Uiso   1.00
N184   N     0.61148   0.63037   0.86664   0.00000  Uiso   1.00
C185   C     0.09317   0.77635   0.08676   0.00000  Uiso   1.00
C186   C     0.12812   0.85155   0.02116   0.00000  Uiso   1.00
C187   C     0.15075   0.75654   0.95327   0.00000  Uiso   1.00
C188   C     0.18143   0.84952   0.90043   0.00000  Uiso   1.00
C189   C     0.23451   0.93872   0.79634   0.00000  Uiso   1.00
C190   C     0.06332   0.91329   0.09437   0.00000  Uiso   1.00
C191   C     0.03146   0.87016   0.08804   0.00000  Uiso   1.00
C192   C     0.00759   0.01512   0.09683   0.00000  Uiso   1.00
C193   C     0.96005   0.20013   0.10645   0.00000  Uiso   1.00
C194   C     0.09784   0.79318   0.16316   0.00000  Uiso   1.00
C195   C     0.09501   0.64909   0.21469   0.00000  Uiso   1.00
C196   C     0.10020   0.69294   0.28142   0.00000  Uiso   1.00
C197   C     0.10627   0.69147   0.39785   0.00000  Uiso   1.00
C198   C     0.10743   0.11046   0.11365   0.00000  Uiso   1.00
C199   C     0.13586   0.03303   0.03577   0.00000  Uiso   1.00
C200   C     0.16652   0.12618   0.98302   0.00000  Uiso   1.00
C201   C     0.18919   0.03132   0.91506   0.00000  Uiso   1.00
C202   C     0.07106   0.09475   0.10897   0.00000  Uiso   1.00
C203   C     0.04723   0.23981   0.11779   0.00000  Uiso   1.00
C204   C     0.01535   0.19692   0.11146   0.00000  Uiso   1.00
C205   C     0.10559   0.97466   0.17777   0.00000  Uiso   1.00
C206   C     0.11079   0.01874   0.24444   0.00000  Uiso   1.00
C207   C     0.10796   0.87474   0.29605   0.00000  Uiso   1.00
H208   H     0.08714   0.63507   0.07539   0.00000  Uiso   1.00
H209   H     0.14474   0.61610   0.94199   0.00000  Uiso   1.00
H210   H     0.02547   0.72971   0.07674   0.00000  Uiso   1.00
H211   H     0.08901   0.50867   0.20337   0.00000  Uiso   1.00
H212   H     0.21201   0.67512   0.80051   0.00000  Uiso   1.00
H213   H     0.96052   0.91466   0.08467   0.00000  Uiso   1.00
H214   H     0.09451   0.44856   0.35170   0.00000  Uiso   1.00
H215   H     0.11346   0.25175   0.12502   0.00000  Uiso   1.00
H216   H     0.17251   0.26662   0.99434   0.00000  Uiso   1.00
H217   H     0.05323   0.38022   0.12909   0.00000  Uiso   1.00
H218   H     0.11678   0.15919   0.25572   0.00000  Uiso   1.00
H219   H     0.23455   0.20311   0.84300   0.00000  Uiso   1.00
H220   H     0.98305   0.44264   0.12717   0.00000  Uiso   1.00
H221   H     0.11705   0.97654   0.39419   0.00000  Uiso   1.00
O222   O     0.26164   0.93780   0.73488   0.00000  Uiso   1.00
O223   O     0.93169   0.25204   0.10771   0.00000  Uiso   1.00
O224   O     0.10749   0.64053   0.45804   0.00000  Uiso   1.00
N225   N     0.20922   0.79733   0.82845   0.00000  Uiso   1.00
N226   N     0.97409   0.02129   0.09412   0.00000  Uiso   1.00
N227   N     0.09935   0.58553   0.34378   0.00000  Uiso   1.00
N228   N     0.22134   0.08144   0.85132   0.00000  Uiso   1.00
N229   N     0.98621   0.30539   0.11698   0.00000  Uiso   1.00
N230   N     0.11148   0.86963   0.36664   0.00000  Uiso   1.00
C231   C     0.59317   0.27635   0.08676   0.00000  Uiso   1.00
C232   C     0.62812   0.35155   0.02116   0.00000  Uiso   1.00
C233   C     0.65075   0.25654   0.95327   0.00000  Uiso   1.00
C234   C     0.68143   0.34952   0.90043   0.00000  Uiso   1.00
C235   C     0.73451   0.43872   0.79634   0.00000  Uiso   1.00
C236   C     0.56332   0.41329   0.09437   0.00000  Uiso   1.00
C237   C     0.53146   0.37016   0.08804   0.00000  Uiso   1.00
C238   C     0.50759   0.51512   0.09683   0.00000  Uiso   1.00
C239   C     0.46005   0.70013   0.10645   0.00000  Uiso   1.00
C240   C     0.59784   0.29318   0.16316   0.00000  Uiso   1.00
C241   C     0.59501   0.14909   0.21469   0.00000  Uiso   1.00
C242   C     0.60020   0.19294   0.28142   0.00000  Uiso   1.00
C243   C     0.60627   0.19147   0.39785   0.00000  Uiso   1.00
C244   C     0.60743   0.61046   0.11365   0.00000  Uiso   1.00
C245   C     0.63586   0.53303   0.03577   0.00000  Uiso   1.00
C246   C     0.66652   0.62618   0.98302   0.00000  Uiso   1.00
C247   C     0.68919   0.53132   0.91506   0.00000  Uiso   1.00
C248   C     0.57106   0.59475   0.10897   0.00000  Uiso   1.00
C249   C     0.54723   0.73981   0.11779   0.00000  Uiso   1.00
C250   C     0.51535   0.69692   0.11146   0.00000  Uiso   1.00
C251   C     0.60559   0.47466   0.17777   0.00000  Uiso   1.00
C252   C     0.61079   0.51874   0.24444   0.00000  Uiso   1.00
C253   C     0.60796   0.37474   0.29605   0.00000  Uiso   1.00
H254   H     0.58714   0.13507   0.07539   0.00000  Uiso   1.00
H255   H     0.64474   0.11610   0.94199   0.00000  Uiso   1.00
H256   H     0.52547   0.22971   0.07674   0.00000  Uiso   1.00
H257   H     0.58901   0.00867   0.20337   0.00000  Uiso   1.00
H258   H     0.71201   0.17512   0.80051   0.00000  Uiso   1.00
H259   H     0.46052   0.41466   0.08467   0.00000  Uiso   1.00
H260   H     0.59451   0.94856   0.35170   0.00000  Uiso   1.00
H261   H     0.61346   0.75175   0.12502   0.00000  Uiso   1.00
H262   H     0.67251   0.76662   0.99434   0.00000  Uiso   1.00
H263   H     0.55323   0.88022   0.12909   0.00000  Uiso   1.00
H264   H     0.61678   0.65919   0.25572   0.00000  Uiso   1.00
H265   H     0.73455   0.70311   0.84300   0.00000  Uiso   1.00
H266   H     0.48305   0.94264   0.12717   0.00000  Uiso   1.00
H267   H     0.61705   0.47654   0.39419   0.00000  Uiso   1.00
O268   O     0.76164   0.43780   0.73488   0.00000  Uiso   1.00
O269   O     0.43169   0.75204   0.10771   0.00000  Uiso   1.00
O270   O     0.60749   0.14053   0.45804   0.00000  Uiso   1.00
N271   N     0.70922   0.29733   0.82845   0.00000  Uiso   1.00
N272   N     0.47409   0.52129   0.09412   0.00000  Uiso   1.00
N273   N     0.59935   0.08553   0.34378   0.00000  Uiso   1.00
N274   N     0.72134   0.58144   0.85132   0.00000  Uiso   1.00
N275   N     0.48621   0.80539   0.11698   0.00000  Uiso   1.00
N276   N     0.61148   0.36963   0.36664   0.00000  Uiso   1.00
C277   C     0.90683   0.77635   0.41324   0.00000  Uiso   1.00
C278   C     0.87188   0.85155   0.47884   0.00000  Uiso   1.00
C279   C     0.84925   0.75654   0.54673   0.00000  Uiso   1.00
C280   C     0.81857   0.84952   0.59957   0.00000  Uiso   1.00
C281   C     0.76549   0.93872   0.70366   0.00000  Uiso   1.00
C282   C     0.93668   0.91329   0.40563   0.00000  Uiso   1.00
C283   C     0.96854   0.87016   0.41196   0.00000  Uiso   1.00
C284   C     0.99241   0.01512   0.40317   0.00000  Uiso   1.00
C285   C     0.03995   0.20013   0.39355   0.00000  Uiso   1.00
C286   C     0.90216   0.79318   0.33684   0.00000  Uiso   1.00
C287   C     0.90499   0.64909   0.28531   0.00000  Uiso   1.00
C288   C     0.89980   0.69294   0.21858   0.00000  Uiso   1.00
C289   C     0.89373   0.69147   0.10215   0.00000  Uiso   1.00
C290   C     0.89257   0.11046   0.38635   0.00000  Uiso   1.00
C291   C     0.86414   0.03303   0.46423   0.00000  Uiso   1.00
C292   C     0.83348   0.12618   0.51698   0.00000  Uiso   1.00
C293   C     0.81081   0.03132   0.58494   0.00000  Uiso   1.00
C294   C     0.92894   0.09475   0.39103   0.00000  Uiso   1.00
C295   C     0.95277   0.23981   0.38221   0.00000  Uiso   1.00
C296   C     0.98465   0.19692   0.38854   0.00000  Uiso   1.00
C297   C     0.89441   0.97466   0.32223   0.00000  Uiso   1.00
C298   C     0.88921   0.01874   0.25556   0.00000  Uiso   1.00
C299   C     0.89204   0.87474   0.20395   0.00000  Uiso   1.00
H300   H     0.91286   0.63507   0.42461   0.00000  Uiso   1.00
H301   H     0.85526   0.61610   0.55801   0.00000  Uiso   1.00
H302   H     0.97453   0.72971   0.42326   0.00000  Uiso   1.00
H303   H     0.91099   0.50867   0.29663   0.00000  Uiso   1.00
H304   H     0.78799   0.67512   0.69949   0.00000  Uiso   1.00
H305   H     0.03948   0.91466   0.41533   0.00000  Uiso   1.00
H306   H     0.90549   0.44856   0.14830   0.00000  Uiso   1.00
H307   H     0.88654   0.25175   0.37498   0.00000  Uiso   1.00
H308   H     0.82749   0.26662   0.50566   0.00000  Uiso   1.00
H309   H     0.94677   0.38022   0.37091   0.00000  Uiso   1.00
H310   H     0.88322   0.15919   0.24428   0.00000  Uiso   1.00
H311   H     0.76545   0.20311   0.65700   0.00000  Uiso   1.00
H312   H     0.01695   0.44264   0.37283   0.00000  Uiso   1.00
H313   H     0.88295   0.97654   0.10581   0.00000  Uiso   1.00
O314   O     0.73836   0.93780   0.76512   0.00000  Uiso   1.00
O315   O     0.06831   0.25204   0.39229   0.00000  Uiso   1.00
O316   O     0.89251   0.64053   0.04196   0.00000  Uiso   1.00
N317   N     0.79078   0.79733   0.67155   0.00000  Uiso   1.00
N318   N     0.02591   0.02129   0.40588   0.00000  Uiso   1.00
N319   N     0.90065   0.58553   0.15622   0.00000  Uiso   1.00
N320   N     0.77866   0.08144   0.64868   0.00000  Uiso   1.00
N321   N     0.01379   0.30539   0.38302   0.00000  Uiso   1.00
N322   N     0.88852   0.86963   0.13336   0.00000  Uiso   1.00
C323   C     0.40683   0.27635   0.41324   0.00000  Uiso   1.00
C324   C     0.37188   0.35155   0.47884   0.00000  Uiso   1.00
C325   C     0.34925   0.25654   0.54673   0.00000  Uiso   1.00
C326   C     0.31857   0.34952   0.59957   0.00000  Uiso   1.00
C327   C     0.26549   0.43872   0.70366   0.00000  Uiso   1.00
C328   C     0.43668   0.41329   0.40563   0.00000  Uiso   1.00
C329   C     0.46854   0.37016   0.41196   0.00000  Uiso   1.00
C330   C     0.49241   0.51512   0.40317   0.00000  Uiso   1.00
C331   C     0.53995   0.70013   0.39355   0.00000  Uiso   1.00
C332   C     0.40216   0.29318   0.33684   0.00000  Uiso   1.00
C333   C     0.40499   0.14909   0.28531   0.00000  Uiso   1.00
C334   C     0.39980   0.19294   0.21858   0.00000  Uiso   1.00
C335   C     0.39373   0.19147   0.10215   0.00000  Uiso   1.00
C336   C     0.39257   0.61046   0.38635   0.00000  Uiso   1.00
C337   C     0.36414   0.53303   0.46423   0.00000  Uiso   1.00
C338   C     0.33348   0.62618   0.51698   0.00000  Uiso   1.00
C339   C     0.31081   0.53132   0.58494   0.00000  Uiso   1.00
C340   C     0.42894   0.59475   0.39103   0.00000  Uiso   1.00
C341   C     0.45277   0.73981   0.38221   0.00000  Uiso   1.00
C342   C     0.48465   0.69692   0.38854   0.00000  Uiso   1.00
C343   C     0.39441   0.47466   0.32223   0.00000  Uiso   1.00
C344   C     0.38921   0.51874   0.25556   0.00000  Uiso   1.00
C345   C     0.39204   0.37474   0.20395   0.00000  Uiso   1.00
H346   H     0.41286   0.13507   0.42461   0.00000  Uiso   1.00
H347   H     0.35526   0.11610   0.55801   0.00000  Uiso   1.00
H348   H     0.47453   0.22971   0.42326   0.00000  Uiso   1.00
H349   H     0.41099   0.00867   0.29663   0.00000  Uiso   1.00
H350   H     0.28799   0.17512   0.69949   0.00000  Uiso   1.00
H351   H     0.53948   0.41466   0.41533   0.00000  Uiso   1.00
H352   H     0.40549   0.94856   0.14830   0.00000  Uiso   1.00
H353   H     0.38654   0.75175   0.37498   0.00000  Uiso   1.00
H354   H     0.32749   0.76662   0.50566   0.00000  Uiso   1.00
H355   H     0.44677   0.88022   0.37091   0.00000  Uiso   1.00
H356   H     0.38322   0.65919   0.24428   0.00000  Uiso   1.00
H357   H     0.26545   0.70311   0.65700   0.00000  Uiso   1.00
H358   H     0.51695   0.94264   0.37283   0.00000  Uiso   1.00
H359   H     0.38295   0.47654   0.10581   0.00000  Uiso   1.00
O360   O     0.23836   0.43780   0.76512   0.00000  Uiso   1.00
O361   O     0.56831   0.75204   0.39229   0.00000  Uiso   1.00
O362   O     0.39251   0.14053   0.04196   0.00000  Uiso   1.00
N363   N     0.29078   0.29733   0.67155   0.00000  Uiso   1.00
N364   N     0.52591   0.52129   0.40588   0.00000  Uiso   1.00
N365   N     0.40065   0.08553   0.15622   0.00000  Uiso   1.00
N366   N     0.27866   0.58144   0.64868   0.00000  Uiso   1.00
N367   N     0.51379   0.80539   0.38302   0.00000  Uiso   1.00
N368   N     0.38852   0.36963   0.13336   0.00000  Uiso   1.00
