data_job_01279
_audit_creation_date              2018-12-19
_audit_creation_method            'Materials Studio'
_symmetry_space_group_name_H-M    'P1'
_symmetry_Int_Tables_number       1
_symmetry_cell_setting            triclinic
loop_
_symmetry_equiv_pos_as_xyz
  x,y,z
_cell_length_a                    18.0017
_cell_length_b                    7.4065
_cell_length_c                    18.0016
_cell_angle_alpha                 90.0000
_cell_angle_beta                  90.0000
_cell_angle_gamma                 90.0000
loop_
_atom_site_label
_atom_site_type_symbol
_atom_site_fract_x
_atom_site_fract_y
_atom_site_fract_z
_atom_site_U_iso_or_equiv
_atom_site_adp_type
_atom_site_occupancy
C1     C     0.71539   0.76667   0.97748   0.00000  Uiso   1.00
C2     C     0.64738   0.88474   0.96368   0.00000  Uiso   1.00
C3     C     0.58143   0.82866   0.93110   0.00000  Uiso   1.00
C4     C     0.52582   0.95719   0.92340   0.00000  Uiso   1.00
C5     C     0.41870   0.11344   0.89828   0.00000  Uiso   1.00
C6     C     0.78000   0.86053   0.93862   0.00000  Uiso   1.00
C7     C     0.82556   0.78408   0.88497   0.00000  Uiso   1.00
C8     C     0.88160   0.89223   0.85618   0.00000  Uiso   1.00
C9     C     0.98041   0.01085   0.79219   0.00000  Uiso   1.00
C10    C     0.73148   0.77952   0.06048   0.00000  Uiso   1.00
C11    C     0.73627   0.63496   0.10929   0.00000  Uiso   1.00
C12    C     0.75148   0.67490   0.18310   0.00000  Uiso   1.00
C13    C     0.77496   0.66774   0.30832   0.00000  Uiso   1.00
C14    C     0.73390   0.09467   0.02176   0.00000  Uiso   1.00
C15    C     0.65743   0.06289   0.98773   0.00000  Uiso   1.00
C16    C     0.60191   0.19154   0.98008   0.00000  Uiso   1.00
C17    C     0.53589   0.13566   0.94750   0.00000  Uiso   1.00
C18    C     0.79005   0.03868   0.96266   0.00000  Uiso   1.00
C19    C     0.84604   0.14696   0.93395   0.00000  Uiso   1.00
C20    C     0.89167   0.07070   0.88027   0.00000  Uiso   1.00
C21    C     0.74153   0.95768   0.08453   0.00000  Uiso   1.00
C22    C     0.75674   0.99785   0.15828   0.00000  Uiso   1.00
C23    C     0.76155   0.85338   0.20719   0.00000  Uiso   1.00
H24    H     0.70757   0.62798   0.95876   0.00000  Uiso   1.00
H25    H     0.57368   0.69078   0.91249   0.00000  Uiso   1.00
H26    H     0.81777   0.64620   0.86638   0.00000  Uiso   1.00
H27    H     0.72849   0.49711   0.09066   0.00000  Uiso   1.00
H28    H     0.42967   0.83899   0.87178   0.00000  Uiso   1.00
H29    H     0.94438   0.74498   0.77456   0.00000  Uiso   1.00
H30    H     0.75612   0.43058   0.24751   0.00000  Uiso   1.00
H31    H     0.74173   0.23337   0.04048   0.00000  Uiso   1.00
H32    H     0.60970   0.32940   0.99870   0.00000  Uiso   1.00
H33    H     0.85380   0.28482   0.95258   0.00000  Uiso   1.00
H34    H     0.76452   0.13573   0.17687   0.00000  Uiso   1.00
H35    H     0.45892   0.35732   0.94174   0.00000  Uiso   1.00
H36    H     0.97363   0.26330   0.84452   0.00000  Uiso   1.00
H37    H     0.78536   0.94892   0.31748   0.00000  Uiso   1.00
O38    O     0.35684   0.15041   0.87778   0.00000  Uiso   1.00
O39    O     0.03212   0.02706   0.75024   0.00000  Uiso   1.00
O40    O     0.78512   0.61459   0.37074   0.00000  Uiso   1.00
N41    N     0.45467   0.94779   0.89399   0.00000  Uiso   1.00
N42    N     0.93588   0.85990   0.80309   0.00000  Uiso   1.00
N43    N     0.75989   0.56597   0.24526   0.00000  Uiso   1.00
N44    N     0.47040   0.22670   0.93164   0.00000  Uiso   1.00
N45    N     0.95162   0.13881   0.84073   0.00000  Uiso   1.00
N46    N     0.77562   0.84488   0.28290   0.00000  Uiso   1.00
C47    C     0.78461   0.23333   0.47748   0.00000  Uiso   1.00
C48    C     0.85262   0.11526   0.46368   0.00000  Uiso   1.00
C49    C     0.91857   0.17134   0.43110   0.00000  Uiso   1.00
C50    C     0.97418   0.04281   0.42340   0.00000  Uiso   1.00
C51    C     0.08130   0.88656   0.39828   0.00000  Uiso   1.00
C52    C     0.72000   0.13947   0.43862   0.00000  Uiso   1.00
C53    C     0.67444   0.21592   0.38497   0.00000  Uiso   1.00
C54    C     0.61840   0.10777   0.35618   0.00000  Uiso   1.00
C55    C     0.51959   0.98915   0.29219   0.00000  Uiso   1.00
C56    C     0.76852   0.22048   0.56048   0.00000  Uiso   1.00
C57    C     0.76373   0.36504   0.60929   0.00000  Uiso   1.00
C58    C     0.74852   0.32510   0.68310   0.00000  Uiso   1.00
C59    C     0.72504   0.33226   0.80832   0.00000  Uiso   1.00
C60    C     0.76610   0.90533   0.52176   0.00000  Uiso   1.00
C61    C     0.84257   0.93711   0.48773   0.00000  Uiso   1.00
C62    C     0.89809   0.80846   0.48008   0.00000  Uiso   1.00
C63    C     0.96411   0.86434   0.44750   0.00000  Uiso   1.00
C64    C     0.70995   0.96132   0.46266   0.00000  Uiso   1.00
C65    C     0.65396   0.85304   0.43395   0.00000  Uiso   1.00
C66    C     0.60833   0.92930   0.38027   0.00000  Uiso   1.00
C67    C     0.75847   0.04232   0.58453   0.00000  Uiso   1.00
C68    C     0.74326   0.00215   0.65828   0.00000  Uiso   1.00
C69    C     0.73845   0.14662   0.70719   0.00000  Uiso   1.00
H70    H     0.79243   0.37202   0.45876   0.00000  Uiso   1.00
H71    H     0.92632   0.30922   0.41249   0.00000  Uiso   1.00
H72    H     0.68223   0.35380   0.36638   0.00000  Uiso   1.00
H73    H     0.77151   0.50289   0.59066   0.00000  Uiso   1.00
H74    H     0.07033   0.16101   0.37178   0.00000  Uiso   1.00
H75    H     0.55562   0.25502   0.27456   0.00000  Uiso   1.00
H76    H     0.74388   0.56942   0.74751   0.00000  Uiso   1.00
H77    H     0.75827   0.76663   0.54048   0.00000  Uiso   1.00
H78    H     0.89030   0.67060   0.49870   0.00000  Uiso   1.00
H79    H     0.64620   0.71518   0.45258   0.00000  Uiso   1.00
H80    H     0.73548   0.86427   0.67687   0.00000  Uiso   1.00
H81    H     0.04108   0.64268   0.44174   0.00000  Uiso   1.00
H82    H     0.52637   0.73670   0.34452   0.00000  Uiso   1.00
H83    H     0.71464   0.05108   0.81748   0.00000  Uiso   1.00
O84    O     0.14316   0.84959   0.37778   0.00000  Uiso   1.00
O85    O     0.46788   0.97294   0.25024   0.00000  Uiso   1.00
O86    O     0.71488   0.38541   0.87074   0.00000  Uiso   1.00
N87    N     0.04533   0.05221   0.39399   0.00000  Uiso   1.00
N88    N     0.56412   0.14010   0.30309   0.00000  Uiso   1.00
N89    N     0.74011   0.43403   0.74526   0.00000  Uiso   1.00
N90    N     0.02960   0.77330   0.43164   0.00000  Uiso   1.00
N91    N     0.54838   0.86119   0.34073   0.00000  Uiso   1.00
N92    N     0.72438   0.15512   0.78290   0.00000  Uiso   1.00
C93    C     0.28461   0.26667   0.52252   0.00000  Uiso   1.00
C94    C     0.35262   0.38474   0.53632   0.00000  Uiso   1.00
C95    C     0.41857   0.32866   0.56890   0.00000  Uiso   1.00
C96    C     0.47418   0.45719   0.57660   0.00000  Uiso   1.00
C97    C     0.58130   0.61344   0.60172   0.00000  Uiso   1.00
C98    C     0.22000   0.36053   0.56138   0.00000  Uiso   1.00
C99    C     0.17444   0.28408   0.61503   0.00000  Uiso   1.00
C100   C     0.11840   0.39223   0.64382   0.00000  Uiso   1.00
C101   C     0.01959   0.51085   0.70781   0.00000  Uiso   1.00
C102   C     0.26852   0.27952   0.43952   0.00000  Uiso   1.00
C103   C     0.26373   0.13496   0.39071   0.00000  Uiso   1.00
C104   C     0.24852   0.17490   0.31690   0.00000  Uiso   1.00
C105   C     0.22504   0.16774   0.19168   0.00000  Uiso   1.00
C106   C     0.26610   0.59467   0.47824   0.00000  Uiso   1.00
C107   C     0.34257   0.56289   0.51227   0.00000  Uiso   1.00
C108   C     0.39809   0.69154   0.51992   0.00000  Uiso   1.00
C109   C     0.46411   0.63566   0.55250   0.00000  Uiso   1.00
C110   C     0.20995   0.53868   0.53734   0.00000  Uiso   1.00
C111   C     0.15396   0.64696   0.56605   0.00000  Uiso   1.00
C112   C     0.10833   0.57070   0.61973   0.00000  Uiso   1.00
C113   C     0.25847   0.45768   0.41547   0.00000  Uiso   1.00
C114   C     0.24326   0.49785   0.34172   0.00000  Uiso   1.00
C115   C     0.23845   0.35338   0.29281   0.00000  Uiso   1.00
H116   H     0.29243   0.12798   0.54124   0.00000  Uiso   1.00
H117   H     0.42632   0.19078   0.58751   0.00000  Uiso   1.00
H118   H     0.18223   0.14620   0.63362   0.00000  Uiso   1.00
H119   H     0.27151   0.99711   0.40934   0.00000  Uiso   1.00
H120   H     0.57033   0.33899   0.62822   0.00000  Uiso   1.00
H121   H     0.05562   0.24498   0.72544   0.00000  Uiso   1.00
H122   H     0.24388   0.93058   0.25249   0.00000  Uiso   1.00
H123   H     0.25827   0.73337   0.45952   0.00000  Uiso   1.00
H124   H     0.39030   0.82940   0.50130   0.00000  Uiso   1.00
H125   H     0.14620   0.78482   0.54742   0.00000  Uiso   1.00
H126   H     0.23548   0.63573   0.32313   0.00000  Uiso   1.00
H127   H     0.54108   0.85732   0.55826   0.00000  Uiso   1.00
H128   H     0.02637   0.76330   0.65548   0.00000  Uiso   1.00
H129   H     0.21464   0.44892   0.18252   0.00000  Uiso   1.00
O130   O     0.64316   0.65041   0.62222   0.00000  Uiso   1.00
O131   O     0.96788   0.52706   0.74976   0.00000  Uiso   1.00
O132   O     0.21488   0.11459   0.12926   0.00000  Uiso   1.00
N133   N     0.54533   0.44779   0.60601   0.00000  Uiso   1.00
N134   N     0.06412   0.35990   0.69691   0.00000  Uiso   1.00
N135   N     0.24011   0.06597   0.25474   0.00000  Uiso   1.00
N136   N     0.52960   0.72670   0.56836   0.00000  Uiso   1.00
N137   N     0.04838   0.63881   0.65927   0.00000  Uiso   1.00
N138   N     0.22438   0.34488   0.21710   0.00000  Uiso   1.00
C139   C     0.21539   0.73333   0.02252   0.00000  Uiso   1.00
C140   C     0.14738   0.61526   0.03632   0.00000  Uiso   1.00
C141   C     0.08143   0.67134   0.06890   0.00000  Uiso   1.00
C142   C     0.02582   0.54281   0.07660   0.00000  Uiso   1.00
C143   C     0.91870   0.38656   0.10172   0.00000  Uiso   1.00
C144   C     0.28000   0.63947   0.06138   0.00000  Uiso   1.00
C145   C     0.32556   0.71592   0.11503   0.00000  Uiso   1.00
C146   C     0.38160   0.60777   0.14382   0.00000  Uiso   1.00
C147   C     0.48041   0.48915   0.20781   0.00000  Uiso   1.00
C148   C     0.23148   0.72048   0.93952   0.00000  Uiso   1.00
C149   C     0.23627   0.86504   0.89071   0.00000  Uiso   1.00
C150   C     0.25148   0.82510   0.81690   0.00000  Uiso   1.00
C151   C     0.27496   0.83226   0.69168   0.00000  Uiso   1.00
C152   C     0.23390   0.40533   0.97824   0.00000  Uiso   1.00
C153   C     0.15743   0.43711   0.01227   0.00000  Uiso   1.00
C154   C     0.10191   0.30846   0.01992   0.00000  Uiso   1.00
C155   C     0.03589   0.36434   0.05250   0.00000  Uiso   1.00
C156   C     0.29005   0.46132   0.03734   0.00000  Uiso   1.00
C157   C     0.34604   0.35304   0.06605   0.00000  Uiso   1.00
C158   C     0.39167   0.42930   0.11973   0.00000  Uiso   1.00
C159   C     0.24153   0.54232   0.91547   0.00000  Uiso   1.00
C160   C     0.25674   0.50215   0.84172   0.00000  Uiso   1.00
C161   C     0.26155   0.64662   0.79281   0.00000  Uiso   1.00
H162   H     0.20757   0.87202   0.04124   0.00000  Uiso   1.00
H163   H     0.07368   0.80922   0.08751   0.00000  Uiso   1.00
H164   H     0.31777   0.85380   0.13362   0.00000  Uiso   1.00
H165   H     0.22849   0.00289   0.90934   0.00000  Uiso   1.00
H166   H     0.92967   0.66101   0.12822   0.00000  Uiso   1.00
H167   H     0.44438   0.75502   0.22544   0.00000  Uiso   1.00
H168   H     0.25612   0.06942   0.75249   0.00000  Uiso   1.00
H169   H     0.24173   0.26663   0.95952   0.00000  Uiso   1.00
H170   H     0.10970   0.17060   0.00130   0.00000  Uiso   1.00
H171   H     0.35380   0.21518   0.04742   0.00000  Uiso   1.00
H172   H     0.26452   0.36427   0.82313   0.00000  Uiso   1.00
H173   H     0.95892   0.14268   0.05826   0.00000  Uiso   1.00
H174   H     0.47363   0.23670   0.15548   0.00000  Uiso   1.00
H175   H     0.28536   0.55108   0.68252   0.00000  Uiso   1.00
O176   O     0.85684   0.34959   0.12222   0.00000  Uiso   1.00
O177   O     0.53212   0.47294   0.24976   0.00000  Uiso   1.00
O178   O     0.28512   0.88541   0.62926   0.00000  Uiso   1.00
N179   N     0.95467   0.55221   0.10601   0.00000  Uiso   1.00
N180   N     0.43588   0.64010   0.19691   0.00000  Uiso   1.00
N181   N     0.25989   0.93403   0.75474   0.00000  Uiso   1.00
N182   N     0.97040   0.27330   0.06836   0.00000  Uiso   1.00
N183   N     0.45162   0.36119   0.15927   0.00000  Uiso   1.00
N184   N     0.27562   0.65512   0.71710   0.00000  Uiso   1.00
