data_job_05412
_audit_creation_date              2018-12-19
_audit_creation_method            'Materials Studio'
_symmetry_space_group_name_H-M    'P1'
_symmetry_Int_Tables_number       1
_symmetry_cell_setting            triclinic
loop_
_symmetry_equiv_pos_as_xyz
  x,y,z
_cell_length_a                    29.1831
_cell_length_b                    13.3753
_cell_length_c                    13.7014
_cell_angle_alpha                 90.0000
_cell_angle_beta                  96.3200
_cell_angle_gamma                 90.0000
loop_
_atom_site_label
_atom_site_type_symbol
_atom_site_fract_x
_atom_site_fract_y
_atom_site_fract_z
_atom_site_U_iso_or_equiv
_atom_site_adp_type
_atom_site_occupancy
C1     C     0.67662   0.39719   0.67039   0.00000  Uiso   1.00
C2     C     0.65944   0.30697   0.60886   0.00000  Uiso   1.00
C3     C     0.65463   0.30202   0.50708   0.00000  Uiso   1.00
C4     C     0.63835   0.21277   0.46466   0.00000  Uiso   1.00
C5     C     0.61332   0.08506   0.36039   0.00000  Uiso   1.00
C6     C     0.63882   0.42163   0.73511   0.00000  Uiso   1.00
C7     C     0.61669   0.51310   0.73948   0.00000  Uiso   1.00
C8     C     0.58306   0.52038   0.80335   0.00000  Uiso   1.00
C9     C     0.52605   0.57072   0.89513   0.00000  Uiso   1.00
C10    C     0.71765   0.36039   0.73962   0.00000  Uiso   1.00
C11    C     0.76179   0.40038   0.74780   0.00000  Uiso   1.00
C12    C     0.79452   0.35612   0.81548   0.00000  Uiso   1.00
C13    C     0.85990   0.31137   0.91426   0.00000  Uiso   1.00
C14    C     0.65626   0.24750   0.77606   0.00000  Uiso   1.00
C15    C     0.64838   0.22566   0.66626   0.00000  Uiso   1.00
C16    C     0.63210   0.13640   0.62399   0.00000  Uiso   1.00
C17    C     0.62727   0.13132   0.52216   0.00000  Uiso   1.00
C18    C     0.62776   0.34033   0.79251   0.00000  Uiso   1.00
C19    C     0.59416   0.34748   0.85639   0.00000  Uiso   1.00
C20    C     0.57197   0.43893   0.86085   0.00000  Uiso   1.00
C21    C     0.70659   0.27908   0.79701   0.00000  Uiso   1.00
C22    C     0.73926   0.23476   0.86471   0.00000  Uiso   1.00
C23    C     0.78344   0.27467   0.87298   0.00000  Uiso   1.00
H24    H     0.68523   0.46050   0.62571   0.00000  Uiso   1.00
H25    H     0.66319   0.36496   0.46269   0.00000  Uiso   1.00
H26    H     0.62526   0.57601   0.69506   0.00000  Uiso   1.00
H27    H     0.77033   0.46330   0.70337   0.00000  Uiso   1.00
H28    H     0.63386   0.22320   0.30726   0.00000  Uiso   1.00
H29    H     0.55388   0.66822   0.79725   0.00000  Uiso   1.00
H30    H     0.85981   0.43056   0.81478   0.00000  Uiso   1.00
H31    H     0.64765   0.18420   0.82075   0.00000  Uiso   1.00
H32    H     0.62354   0.07349   0.66843   0.00000  Uiso   1.00
H33    H     0.58561   0.28455   0.90080   0.00000  Uiso   1.00
H34    H     0.73069   0.17184   0.90911   0.00000  Uiso   1.00
H35    H     0.60167   0.98663   0.47424   0.00000  Uiso   1.00
H36    H     0.52171   0.43166   0.96424   0.00000  Uiso   1.00
H37    H     0.82763   0.19399   0.98176   0.00000  Uiso   1.00
O38    O     0.60257   0.03709   0.28703   0.00000  Uiso   1.00
O39    O     0.49766   0.62095   0.92989   0.00000  Uiso   1.00
O40    O     0.89902   0.30913   0.95288   0.00000  Uiso   1.00
N41    N     0.62960   0.18271   0.36746   0.00000  Uiso   1.00
N42    N     0.55483   0.59877   0.82557   0.00000  Uiso   1.00
N43    N     0.84083   0.37659   0.84197   0.00000  Uiso   1.00
N44    N     0.61228   0.05541   0.45731   0.00000  Uiso   1.00
N45    N     0.53751   0.47148   0.91542   0.00000  Uiso   1.00
N46    N     0.82352   0.24930   0.93182   0.00000  Uiso   1.00
C47    C     0.17662   0.89719   0.67039   0.00000  Uiso   1.00
C48    C     0.15944   0.80697   0.60886   0.00000  Uiso   1.00
C49    C     0.15463   0.80202   0.50708   0.00000  Uiso   1.00
C50    C     0.13835   0.71277   0.46466   0.00000  Uiso   1.00
C51    C     0.11332   0.58506   0.36039   0.00000  Uiso   1.00
C52    C     0.13882   0.92163   0.73511   0.00000  Uiso   1.00
C53    C     0.11669   0.01310   0.73948   0.00000  Uiso   1.00
C54    C     0.08306   0.02038   0.80335   0.00000  Uiso   1.00
C55    C     0.02605   0.07072   0.89513   0.00000  Uiso   1.00
C56    C     0.21765   0.86039   0.73962   0.00000  Uiso   1.00
C57    C     0.26179   0.90038   0.74780   0.00000  Uiso   1.00
C58    C     0.29452   0.85612   0.81548   0.00000  Uiso   1.00
C59    C     0.35990   0.81137   0.91426   0.00000  Uiso   1.00
C60    C     0.15626   0.74750   0.77606   0.00000  Uiso   1.00
C61    C     0.14838   0.72566   0.66626   0.00000  Uiso   1.00
C62    C     0.13210   0.63640   0.62399   0.00000  Uiso   1.00
C63    C     0.12727   0.63132   0.52216   0.00000  Uiso   1.00
C64    C     0.12776   0.84033   0.79251   0.00000  Uiso   1.00
C65    C     0.09416   0.84748   0.85639   0.00000  Uiso   1.00
C66    C     0.07197   0.93893   0.86085   0.00000  Uiso   1.00
C67    C     0.20659   0.77908   0.79701   0.00000  Uiso   1.00
C68    C     0.23926   0.73476   0.86471   0.00000  Uiso   1.00
C69    C     0.28344   0.77467   0.87298   0.00000  Uiso   1.00
H70    H     0.18523   0.96050   0.62571   0.00000  Uiso   1.00
H71    H     0.16319   0.86496   0.46269   0.00000  Uiso   1.00
H72    H     0.12526   0.07601   0.69506   0.00000  Uiso   1.00
H73    H     0.27033   0.96330   0.70337   0.00000  Uiso   1.00
H74    H     0.13386   0.72320   0.30726   0.00000  Uiso   1.00
H75    H     0.05388   0.16822   0.79725   0.00000  Uiso   1.00
H76    H     0.35981   0.93056   0.81478   0.00000  Uiso   1.00
H77    H     0.14765   0.68420   0.82075   0.00000  Uiso   1.00
H78    H     0.12354   0.57349   0.66843   0.00000  Uiso   1.00
H79    H     0.08561   0.78455   0.90080   0.00000  Uiso   1.00
H80    H     0.23069   0.67184   0.90911   0.00000  Uiso   1.00
H81    H     0.10167   0.48663   0.47424   0.00000  Uiso   1.00
H82    H     0.02171   0.93166   0.96424   0.00000  Uiso   1.00
H83    H     0.32763   0.69399   0.98176   0.00000  Uiso   1.00
O84    O     0.10257   0.53709   0.28703   0.00000  Uiso   1.00
O85    O     0.99766   0.12095   0.92989   0.00000  Uiso   1.00
O86    O     0.39902   0.80913   0.95288   0.00000  Uiso   1.00
N87    N     0.12960   0.68271   0.36746   0.00000  Uiso   1.00
N88    N     0.05483   0.09877   0.82557   0.00000  Uiso   1.00
N89    N     0.34083   0.87659   0.84197   0.00000  Uiso   1.00
N90    N     0.11228   0.55541   0.45731   0.00000  Uiso   1.00
N91    N     0.03751   0.97148   0.91542   0.00000  Uiso   1.00
N92    N     0.32352   0.74930   0.93182   0.00000  Uiso   1.00
C93    C     0.32338   0.39719   0.82961   0.00000  Uiso   1.00
C94    C     0.34056   0.30697   0.89114   0.00000  Uiso   1.00
C95    C     0.34537   0.30202   0.99292   0.00000  Uiso   1.00
C96    C     0.36165   0.21277   0.03534   0.00000  Uiso   1.00
C97    C     0.38668   0.08506   0.13961   0.00000  Uiso   1.00
C98    C     0.36118   0.42163   0.76489   0.00000  Uiso   1.00
C99    C     0.38331   0.51310   0.76052   0.00000  Uiso   1.00
C100   C     0.41694   0.52038   0.69665   0.00000  Uiso   1.00
C101   C     0.47395   0.57072   0.60487   0.00000  Uiso   1.00
C102   C     0.28235   0.36039   0.76038   0.00000  Uiso   1.00
C103   C     0.23821   0.40038   0.75220   0.00000  Uiso   1.00
C104   C     0.20548   0.35612   0.68452   0.00000  Uiso   1.00
C105   C     0.14010   0.31137   0.58574   0.00000  Uiso   1.00
C106   C     0.34374   0.24750   0.72394   0.00000  Uiso   1.00
C107   C     0.35162   0.22566   0.83374   0.00000  Uiso   1.00
C108   C     0.36790   0.13640   0.87601   0.00000  Uiso   1.00
C109   C     0.37273   0.13132   0.97784   0.00000  Uiso   1.00
C110   C     0.37224   0.34033   0.70749   0.00000  Uiso   1.00
C111   C     0.40584   0.34748   0.64361   0.00000  Uiso   1.00
C112   C     0.42803   0.43893   0.63915   0.00000  Uiso   1.00
C113   C     0.29341   0.27908   0.70299   0.00000  Uiso   1.00
C114   C     0.26074   0.23476   0.63529   0.00000  Uiso   1.00
C115   C     0.21656   0.27467   0.62702   0.00000  Uiso   1.00
H116   H     0.31477   0.46050   0.87429   0.00000  Uiso   1.00
H117   H     0.33681   0.36496   0.03731   0.00000  Uiso   1.00
H118   H     0.37474   0.57601   0.80494   0.00000  Uiso   1.00
H119   H     0.22967   0.46330   0.79663   0.00000  Uiso   1.00
H120   H     0.36614   0.22320   0.19274   0.00000  Uiso   1.00
H121   H     0.44612   0.66822   0.70275   0.00000  Uiso   1.00
H122   H     0.14019   0.43056   0.68522   0.00000  Uiso   1.00
H123   H     0.35235   0.18420   0.67925   0.00000  Uiso   1.00
H124   H     0.37646   0.07349   0.83157   0.00000  Uiso   1.00
H125   H     0.41439   0.28455   0.59920   0.00000  Uiso   1.00
H126   H     0.26931   0.17184   0.59089   0.00000  Uiso   1.00
H127   H     0.39833   0.98663   0.02576   0.00000  Uiso   1.00
H128   H     0.47829   0.43166   0.53576   0.00000  Uiso   1.00
H129   H     0.17237   0.19399   0.51824   0.00000  Uiso   1.00
O130   O     0.39743   0.03709   0.21297   0.00000  Uiso   1.00
O131   O     0.50234   0.62095   0.57011   0.00000  Uiso   1.00
O132   O     0.10098   0.30913   0.54712   0.00000  Uiso   1.00
N133   N     0.37040   0.18271   0.13254   0.00000  Uiso   1.00
N134   N     0.44517   0.59877   0.67443   0.00000  Uiso   1.00
N135   N     0.15917   0.37659   0.65803   0.00000  Uiso   1.00
N136   N     0.38772   0.05541   0.04269   0.00000  Uiso   1.00
N137   N     0.46249   0.47148   0.58458   0.00000  Uiso   1.00
N138   N     0.17648   0.24930   0.56818   0.00000  Uiso   1.00
C139   C     0.82338   0.89719   0.82961   0.00000  Uiso   1.00
C140   C     0.84056   0.80697   0.89114   0.00000  Uiso   1.00
C141   C     0.84537   0.80202   0.99292   0.00000  Uiso   1.00
C142   C     0.86165   0.71277   0.03534   0.00000  Uiso   1.00
C143   C     0.88668   0.58506   0.13961   0.00000  Uiso   1.00
C144   C     0.86118   0.92163   0.76489   0.00000  Uiso   1.00
C145   C     0.88331   0.01310   0.76052   0.00000  Uiso   1.00
C146   C     0.91694   0.02038   0.69665   0.00000  Uiso   1.00
C147   C     0.97395   0.07072   0.60487   0.00000  Uiso   1.00
C148   C     0.78235   0.86039   0.76038   0.00000  Uiso   1.00
C149   C     0.73821   0.90038   0.75220   0.00000  Uiso   1.00
C150   C     0.70548   0.85612   0.68452   0.00000  Uiso   1.00
C151   C     0.64010   0.81137   0.58574   0.00000  Uiso   1.00
C152   C     0.84374   0.74750   0.72394   0.00000  Uiso   1.00
C153   C     0.85162   0.72566   0.83374   0.00000  Uiso   1.00
C154   C     0.86790   0.63640   0.87601   0.00000  Uiso   1.00
C155   C     0.87273   0.63132   0.97784   0.00000  Uiso   1.00
C156   C     0.87224   0.84033   0.70749   0.00000  Uiso   1.00
C157   C     0.90584   0.84748   0.64361   0.00000  Uiso   1.00
C158   C     0.92803   0.93893   0.63915   0.00000  Uiso   1.00
C159   C     0.79341   0.77908   0.70299   0.00000  Uiso   1.00
C160   C     0.76074   0.73476   0.63529   0.00000  Uiso   1.00
C161   C     0.71656   0.77467   0.62702   0.00000  Uiso   1.00
H162   H     0.81477   0.96050   0.87429   0.00000  Uiso   1.00
H163   H     0.83681   0.86496   0.03731   0.00000  Uiso   1.00
H164   H     0.87474   0.07601   0.80494   0.00000  Uiso   1.00
H165   H     0.72967   0.96330   0.79663   0.00000  Uiso   1.00
H166   H     0.86614   0.72320   0.19274   0.00000  Uiso   1.00
H167   H     0.94612   0.16822   0.70275   0.00000  Uiso   1.00
H168   H     0.64019   0.93056   0.68522   0.00000  Uiso   1.00
H169   H     0.85235   0.68420   0.67925   0.00000  Uiso   1.00
H170   H     0.87646   0.57349   0.83157   0.00000  Uiso   1.00
H171   H     0.91439   0.78455   0.59920   0.00000  Uiso   1.00
H172   H     0.76931   0.67184   0.59089   0.00000  Uiso   1.00
H173   H     0.89833   0.48663   0.02576   0.00000  Uiso   1.00
H174   H     0.97829   0.93166   0.53576   0.00000  Uiso   1.00
H175   H     0.67237   0.69399   0.51824   0.00000  Uiso   1.00
O176   O     0.89743   0.53709   0.21297   0.00000  Uiso   1.00
O177   O     0.00234   0.12095   0.57011   0.00000  Uiso   1.00
O178   O     0.60098   0.80913   0.54712   0.00000  Uiso   1.00
N179   N     0.87040   0.68271   0.13254   0.00000  Uiso   1.00
N180   N     0.94517   0.09877   0.67443   0.00000  Uiso   1.00
N181   N     0.65917   0.87659   0.65803   0.00000  Uiso   1.00
N182   N     0.88772   0.55541   0.04269   0.00000  Uiso   1.00
N183   N     0.96249   0.97148   0.58458   0.00000  Uiso   1.00
N184   N     0.67648   0.74930   0.56818   0.00000  Uiso   1.00
C185   C     0.32338   0.60281   0.32961   0.00000  Uiso   1.00
C186   C     0.34056   0.69303   0.39114   0.00000  Uiso   1.00
C187   C     0.34537   0.69798   0.49292   0.00000  Uiso   1.00
C188   C     0.36165   0.78723   0.53534   0.00000  Uiso   1.00
C189   C     0.38668   0.91494   0.63961   0.00000  Uiso   1.00
C190   C     0.36118   0.57837   0.26489   0.00000  Uiso   1.00
C191   C     0.38331   0.48690   0.26052   0.00000  Uiso   1.00
C192   C     0.41694   0.47962   0.19665   0.00000  Uiso   1.00
C193   C     0.47395   0.42928   0.10487   0.00000  Uiso   1.00
C194   C     0.28235   0.63961   0.26038   0.00000  Uiso   1.00
C195   C     0.23821   0.59962   0.25220   0.00000  Uiso   1.00
C196   C     0.20548   0.64388   0.18452   0.00000  Uiso   1.00
C197   C     0.14010   0.68863   0.08574   0.00000  Uiso   1.00
C198   C     0.34374   0.75250   0.22394   0.00000  Uiso   1.00
C199   C     0.35162   0.77434   0.33374   0.00000  Uiso   1.00
C200   C     0.36790   0.86360   0.37601   0.00000  Uiso   1.00
C201   C     0.37273   0.86868   0.47784   0.00000  Uiso   1.00
C202   C     0.37224   0.65967   0.20749   0.00000  Uiso   1.00
C203   C     0.40584   0.65252   0.14361   0.00000  Uiso   1.00
C204   C     0.42803   0.56107   0.13915   0.00000  Uiso   1.00
C205   C     0.29341   0.72092   0.20299   0.00000  Uiso   1.00
C206   C     0.26074   0.76524   0.13529   0.00000  Uiso   1.00
C207   C     0.21656   0.72533   0.12702   0.00000  Uiso   1.00
H208   H     0.31477   0.53950   0.37429   0.00000  Uiso   1.00
H209   H     0.33681   0.63504   0.53731   0.00000  Uiso   1.00
H210   H     0.37474   0.42399   0.30494   0.00000  Uiso   1.00
H211   H     0.22967   0.53670   0.29663   0.00000  Uiso   1.00
H212   H     0.36614   0.77680   0.69274   0.00000  Uiso   1.00
H213   H     0.44612   0.33178   0.20275   0.00000  Uiso   1.00
H214   H     0.14019   0.56944   0.18522   0.00000  Uiso   1.00
H215   H     0.35235   0.81580   0.17925   0.00000  Uiso   1.00
H216   H     0.37646   0.92651   0.33157   0.00000  Uiso   1.00
H217   H     0.41439   0.71545   0.09920   0.00000  Uiso   1.00
H218   H     0.26931   0.82816   0.09089   0.00000  Uiso   1.00
H219   H     0.39833   0.01337   0.52576   0.00000  Uiso   1.00
H220   H     0.47829   0.56834   0.03576   0.00000  Uiso   1.00
H221   H     0.17237   0.80601   0.01824   0.00000  Uiso   1.00
O222   O     0.39743   0.96291   0.71297   0.00000  Uiso   1.00
O223   O     0.50234   0.37905   0.07011   0.00000  Uiso   1.00
O224   O     0.10098   0.69087   0.04712   0.00000  Uiso   1.00
N225   N     0.37040   0.81729   0.63254   0.00000  Uiso   1.00
N226   N     0.44517   0.40123   0.17443   0.00000  Uiso   1.00
N227   N     0.15917   0.62341   0.15803   0.00000  Uiso   1.00
N228   N     0.38772   0.94459   0.54269   0.00000  Uiso   1.00
N229   N     0.46249   0.52852   0.08458   0.00000  Uiso   1.00
N230   N     0.17648   0.75070   0.06818   0.00000  Uiso   1.00
C231   C     0.82338   0.10281   0.32961   0.00000  Uiso   1.00
C232   C     0.84056   0.19303   0.39114   0.00000  Uiso   1.00
C233   C     0.84537   0.19798   0.49292   0.00000  Uiso   1.00
C234   C     0.86165   0.28723   0.53534   0.00000  Uiso   1.00
C235   C     0.88668   0.41494   0.63961   0.00000  Uiso   1.00
C236   C     0.86118   0.07837   0.26489   0.00000  Uiso   1.00
C237   C     0.88331   0.98690   0.26052   0.00000  Uiso   1.00
C238   C     0.91694   0.97962   0.19665   0.00000  Uiso   1.00
C239   C     0.97395   0.92928   0.10487   0.00000  Uiso   1.00
C240   C     0.78235   0.13961   0.26038   0.00000  Uiso   1.00
C241   C     0.73821   0.09962   0.25220   0.00000  Uiso   1.00
C242   C     0.70548   0.14388   0.18452   0.00000  Uiso   1.00
C243   C     0.64010   0.18863   0.08574   0.00000  Uiso   1.00
C244   C     0.84374   0.25250   0.22394   0.00000  Uiso   1.00
C245   C     0.85162   0.27434   0.33374   0.00000  Uiso   1.00
C246   C     0.86790   0.36360   0.37601   0.00000  Uiso   1.00
C247   C     0.87273   0.36868   0.47784   0.00000  Uiso   1.00
C248   C     0.87224   0.15967   0.20749   0.00000  Uiso   1.00
C249   C     0.90584   0.15252   0.14361   0.00000  Uiso   1.00
C250   C     0.92803   0.06107   0.13915   0.00000  Uiso   1.00
C251   C     0.79341   0.22092   0.20299   0.00000  Uiso   1.00
C252   C     0.76074   0.26524   0.13529   0.00000  Uiso   1.00
C253   C     0.71656   0.22533   0.12702   0.00000  Uiso   1.00
H254   H     0.81477   0.03950   0.37429   0.00000  Uiso   1.00
H255   H     0.83681   0.13504   0.53731   0.00000  Uiso   1.00
H256   H     0.87474   0.92399   0.30494   0.00000  Uiso   1.00
H257   H     0.72967   0.03670   0.29663   0.00000  Uiso   1.00
H258   H     0.86614   0.27680   0.69274   0.00000  Uiso   1.00
H259   H     0.94612   0.83178   0.20275   0.00000  Uiso   1.00
H260   H     0.64019   0.06944   0.18522   0.00000  Uiso   1.00
H261   H     0.85235   0.31580   0.17925   0.00000  Uiso   1.00
H262   H     0.87646   0.42651   0.33157   0.00000  Uiso   1.00
H263   H     0.91439   0.21545   0.09920   0.00000  Uiso   1.00
H264   H     0.76931   0.32816   0.09089   0.00000  Uiso   1.00
H265   H     0.89833   0.51337   0.52576   0.00000  Uiso   1.00
H266   H     0.97829   0.06834   0.03576   0.00000  Uiso   1.00
H267   H     0.67237   0.30601   0.01824   0.00000  Uiso   1.00
O268   O     0.89743   0.46291   0.71297   0.00000  Uiso   1.00
O269   O     0.00234   0.87905   0.07011   0.00000  Uiso   1.00
O270   O     0.60098   0.19087   0.04712   0.00000  Uiso   1.00
N271   N     0.87040   0.31729   0.63254   0.00000  Uiso   1.00
N272   N     0.94517   0.90123   0.17443   0.00000  Uiso   1.00
N273   N     0.65917   0.12341   0.15803   0.00000  Uiso   1.00
N274   N     0.88772   0.44459   0.54269   0.00000  Uiso   1.00
N275   N     0.96249   0.02852   0.08458   0.00000  Uiso   1.00
N276   N     0.67648   0.25070   0.06818   0.00000  Uiso   1.00
C277   C     0.67662   0.60281   0.17039   0.00000  Uiso   1.00
C278   C     0.65944   0.69303   0.10886   0.00000  Uiso   1.00
C279   C     0.65463   0.69798   0.00708   0.00000  Uiso   1.00
C280   C     0.63835   0.78723   0.96466   0.00000  Uiso   1.00
C281   C     0.61332   0.91494   0.86039   0.00000  Uiso   1.00
C282   C     0.63882   0.57837   0.23511   0.00000  Uiso   1.00
C283   C     0.61669   0.48690   0.23948   0.00000  Uiso   1.00
C284   C     0.58306   0.47962   0.30335   0.00000  Uiso   1.00
C285   C     0.52605   0.42928   0.39513   0.00000  Uiso   1.00
C286   C     0.71765   0.63961   0.23962   0.00000  Uiso   1.00
C287   C     0.76179   0.59962   0.24780   0.00000  Uiso   1.00
C288   C     0.79452   0.64388   0.31548   0.00000  Uiso   1.00
C289   C     0.85990   0.68863   0.41426   0.00000  Uiso   1.00
C290   C     0.65626   0.75250   0.27606   0.00000  Uiso   1.00
C291   C     0.64838   0.77434   0.16626   0.00000  Uiso   1.00
C292   C     0.63210   0.86360   0.12399   0.00000  Uiso   1.00
C293   C     0.62727   0.86868   0.02216   0.00000  Uiso   1.00
C294   C     0.62776   0.65967   0.29251   0.00000  Uiso   1.00
C295   C     0.59416   0.65252   0.35639   0.00000  Uiso   1.00
C296   C     0.57197   0.56107   0.36085   0.00000  Uiso   1.00
C297   C     0.70659   0.72092   0.29701   0.00000  Uiso   1.00
C298   C     0.73926   0.76524   0.36471   0.00000  Uiso   1.00
C299   C     0.78344   0.72533   0.37298   0.00000  Uiso   1.00
H300   H     0.68523   0.53950   0.12571   0.00000  Uiso   1.00
H301   H     0.66319   0.63504   0.96269   0.00000  Uiso   1.00
H302   H     0.62526   0.42399   0.19506   0.00000  Uiso   1.00
H303   H     0.77033   0.53670   0.20337   0.00000  Uiso   1.00
H304   H     0.63386   0.77680   0.80726   0.00000  Uiso   1.00
H305   H     0.55388   0.33178   0.29725   0.00000  Uiso   1.00
H306   H     0.85981   0.56944   0.31478   0.00000  Uiso   1.00
H307   H     0.64765   0.81580   0.32075   0.00000  Uiso   1.00
H308   H     0.62354   0.92651   0.16843   0.00000  Uiso   1.00
H309   H     0.58561   0.71545   0.40080   0.00000  Uiso   1.00
H310   H     0.73069   0.82816   0.40911   0.00000  Uiso   1.00
H311   H     0.60167   0.01337   0.97424   0.00000  Uiso   1.00
H312   H     0.52171   0.56834   0.46424   0.00000  Uiso   1.00
H313   H     0.82763   0.80601   0.48176   0.00000  Uiso   1.00
O314   O     0.60257   0.96291   0.78703   0.00000  Uiso   1.00
O315   O     0.49766   0.37905   0.42989   0.00000  Uiso   1.00
O316   O     0.89902   0.69087   0.45288   0.00000  Uiso   1.00
N317   N     0.62960   0.81729   0.86746   0.00000  Uiso   1.00
N318   N     0.55483   0.40123   0.32557   0.00000  Uiso   1.00
N319   N     0.84083   0.62341   0.34197   0.00000  Uiso   1.00
N320   N     0.61228   0.94459   0.95731   0.00000  Uiso   1.00
N321   N     0.53751   0.52852   0.41542   0.00000  Uiso   1.00
N322   N     0.82352   0.75070   0.43182   0.00000  Uiso   1.00
C323   C     0.17662   0.10281   0.17039   0.00000  Uiso   1.00
C324   C     0.15944   0.19303   0.10886   0.00000  Uiso   1.00
C325   C     0.15463   0.19798   0.00708   0.00000  Uiso   1.00
C326   C     0.13835   0.28723   0.96466   0.00000  Uiso   1.00
C327   C     0.11332   0.41494   0.86039   0.00000  Uiso   1.00
C328   C     0.13882   0.07837   0.23511   0.00000  Uiso   1.00
C329   C     0.11669   0.98690   0.23948   0.00000  Uiso   1.00
C330   C     0.08306   0.97962   0.30335   0.00000  Uiso   1.00
C331   C     0.02605   0.92928   0.39513   0.00000  Uiso   1.00
C332   C     0.21765   0.13961   0.23962   0.00000  Uiso   1.00
C333   C     0.26179   0.09962   0.24780   0.00000  Uiso   1.00
C334   C     0.29452   0.14388   0.31548   0.00000  Uiso   1.00
C335   C     0.35990   0.18863   0.41426   0.00000  Uiso   1.00
C336   C     0.15626   0.25250   0.27606   0.00000  Uiso   1.00
C337   C     0.14838   0.27434   0.16626   0.00000  Uiso   1.00
C338   C     0.13210   0.36360   0.12399   0.00000  Uiso   1.00
C339   C     0.12727   0.36868   0.02216   0.00000  Uiso   1.00
C340   C     0.12776   0.15967   0.29251   0.00000  Uiso   1.00
C341   C     0.09416   0.15252   0.35639   0.00000  Uiso   1.00
C342   C     0.07197   0.06107   0.36085   0.00000  Uiso   1.00
C343   C     0.20659   0.22092   0.29701   0.00000  Uiso   1.00
C344   C     0.23926   0.26524   0.36471   0.00000  Uiso   1.00
C345   C     0.28344   0.22533   0.37298   0.00000  Uiso   1.00
H346   H     0.18523   0.03950   0.12571   0.00000  Uiso   1.00
H347   H     0.16319   0.13504   0.96269   0.00000  Uiso   1.00
H348   H     0.12526   0.92399   0.19506   0.00000  Uiso   1.00
H349   H     0.27033   0.03670   0.20337   0.00000  Uiso   1.00
H350   H     0.13386   0.27680   0.80726   0.00000  Uiso   1.00
H351   H     0.05388   0.83178   0.29725   0.00000  Uiso   1.00
H352   H     0.35981   0.06944   0.31478   0.00000  Uiso   1.00
H353   H     0.14765   0.31580   0.32075   0.00000  Uiso   1.00
H354   H     0.12354   0.42651   0.16843   0.00000  Uiso   1.00
H355   H     0.08561   0.21545   0.40080   0.00000  Uiso   1.00
H356   H     0.23069   0.32816   0.40911   0.00000  Uiso   1.00
H357   H     0.10167   0.51337   0.97424   0.00000  Uiso   1.00
H358   H     0.02171   0.06834   0.46424   0.00000  Uiso   1.00
H359   H     0.32763   0.30601   0.48176   0.00000  Uiso   1.00
O360   O     0.10257   0.46291   0.78703   0.00000  Uiso   1.00
O361   O     0.99766   0.87905   0.42989   0.00000  Uiso   1.00
O362   O     0.39902   0.19087   0.45288   0.00000  Uiso   1.00
N363   N     0.12960   0.31729   0.86746   0.00000  Uiso   1.00
N364   N     0.05483   0.90123   0.32557   0.00000  Uiso   1.00
N365   N     0.34083   0.12341   0.34197   0.00000  Uiso   1.00
N366   N     0.11228   0.44459   0.95731   0.00000  Uiso   1.00
N367   N     0.03751   0.02852   0.41542   0.00000  Uiso   1.00
N368   N     0.32352   0.25070   0.43182   0.00000  Uiso   1.00
