data_job_02023
_audit_creation_date              2018-12-19
_audit_creation_method            'Materials Studio'
_symmetry_space_group_name_H-M    'P1'
_symmetry_Int_Tables_number       1
_symmetry_cell_setting            triclinic
loop_
_symmetry_equiv_pos_as_xyz
  x,y,z
_cell_length_a                    8.2788
_cell_length_b                    27.5774
_cell_length_c                    13.7914
_cell_angle_alpha                 90.0000
_cell_angle_beta                  130.0257
_cell_angle_gamma                 90.0000
loop_
_atom_site_label
_atom_site_type_symbol
_atom_site_fract_x
_atom_site_fract_y
_atom_site_fract_z
_atom_site_U_iso_or_equiv
_atom_site_adp_type
_atom_site_occupancy
C1     C     0.46816   0.87940   0.35611   0.00000  Uiso   1.00
C2     C     0.70589   0.88567   0.45915   0.00000  Uiso   1.00
C3     C     0.81984   0.87849   0.58785   0.00000  Uiso   1.00
C4     C     0.03608   0.88611   0.66672   0.00000  Uiso   1.00
C5     C     0.39022   0.89371   0.83406   0.00000  Uiso   1.00
C6     C     0.38541   0.92767   0.28590   0.00000  Uiso   1.00
C7     C     0.22988   0.95578   0.26892   0.00000  Uiso   1.00
C8     C     0.17633   0.99876   0.20193   0.00000  Uiso   1.00
C9     C     0.03280   0.07153   0.10022   0.00000  Uiso   1.00
C10    C     0.43749   0.84290   0.26242   0.00000  Uiso   1.00
C11    C     0.32570   0.79975   0.22566   0.00000  Uiso   1.00
C12    C     0.31595   0.77136   0.13887   0.00000  Uiso   1.00
C13    C     0.25328   0.71251   0.00070   0.00000  Uiso   1.00
C14    C     0.64956   0.90572   0.26731   0.00000  Uiso   1.00
C15    C     0.80441   0.89997   0.41091   0.00000  Uiso   1.00
C16    C     0.02054   0.90761   0.48960   0.00000  Uiso   1.00
C17    C     0.13480   0.90043   0.61840   0.00000  Uiso   1.00
C18    C     0.48393   0.94196   0.23767   0.00000  Uiso   1.00
C19    C     0.43058   0.98490   0.17068   0.00000  Uiso   1.00
C20    C     0.27503   0.01308   0.15361   0.00000  Uiso   1.00
C21    C     0.53602   0.85719   0.21418   0.00000  Uiso   1.00
C22    C     0.52642   0.82887   0.12743   0.00000  Uiso   1.00
C23    C     0.41465   0.78568   0.09055   0.00000  Uiso   1.00
H24    H     0.39144   0.86827   0.39365   0.00000  Uiso   1.00
H25    H     0.74353   0.86743   0.62514   0.00000  Uiso   1.00
H26    H     0.15365   0.94471   0.30625   0.00000  Uiso   1.00
H27    H     0.24947   0.78870   0.26300   0.00000  Uiso   1.00
H28    H     0.17733   0.87282   0.86052   0.00000  Uiso   1.00
H29    H     0.93348   0.03576   0.18809   0.00000  Uiso   1.00
H30    H     0.13553   0.70678   0.09689   0.00000  Uiso   1.00
H31    H     0.72627   0.91685   0.22975   0.00000  Uiso   1.00
H32    H     0.09675   0.91867   0.45225   0.00000  Uiso   1.00
H33    H     0.50686   0.99595   0.13336   0.00000  Uiso   1.00
H34    H     0.60268   0.83994   0.09012   0.00000  Uiso   1.00
H35    H     0.46401   0.91441   0.72020   0.00000  Uiso   1.00
H36    H     0.22015   0.07735   0.04776   0.00000  Uiso   1.00
H37    H     0.42221   0.74837   0.95657   0.00000  Uiso   1.00
O38    O     0.55833   0.89395   0.93969   0.00000  Uiso   1.00
O39    O     0.92642   0.10772   0.05746   0.00000  Uiso   1.00
O40    O     0.19152   0.67610   0.93783   0.00000  Uiso   1.00
N41    N     0.19396   0.88235   0.79696   0.00000  Uiso   1.00
N42    N     0.03106   0.03469   0.16829   0.00000  Uiso   1.00
N43    N     0.21991   0.72713   0.08301   0.00000  Uiso   1.00
N44    N     0.34822   0.90472   0.72145   0.00000  Uiso   1.00
N45    N     0.18533   0.05707   0.09279   0.00000  Uiso   1.00
N46    N     0.37418   0.74951   0.00750   0.00000  Uiso   1.00
C47    C     0.53184   0.37940   0.14389   0.00000  Uiso   1.00
C48    C     0.29411   0.38567   0.04085   0.00000  Uiso   1.00
C49    C     0.18016   0.37849   0.91215   0.00000  Uiso   1.00
C50    C     0.96392   0.38611   0.83328   0.00000  Uiso   1.00
C51    C     0.60978   0.39371   0.66594   0.00000  Uiso   1.00
C52    C     0.61459   0.42767   0.21410   0.00000  Uiso   1.00
C53    C     0.77012   0.45578   0.23108   0.00000  Uiso   1.00
C54    C     0.82367   0.49876   0.29807   0.00000  Uiso   1.00
C55    C     0.96720   0.57153   0.39978   0.00000  Uiso   1.00
C56    C     0.56251   0.34290   0.23758   0.00000  Uiso   1.00
C57    C     0.67430   0.29975   0.27434   0.00000  Uiso   1.00
C58    C     0.68405   0.27136   0.36113   0.00000  Uiso   1.00
C59    C     0.74672   0.21251   0.49930   0.00000  Uiso   1.00
C60    C     0.35044   0.40572   0.23269   0.00000  Uiso   1.00
C61    C     0.19559   0.39997   0.08909   0.00000  Uiso   1.00
C62    C     0.97946   0.40761   0.01040   0.00000  Uiso   1.00
C63    C     0.86520   0.40043   0.88160   0.00000  Uiso   1.00
C64    C     0.51607   0.44196   0.26233   0.00000  Uiso   1.00
C65    C     0.56942   0.48490   0.32932   0.00000  Uiso   1.00
C66    C     0.72497   0.51308   0.34639   0.00000  Uiso   1.00
C67    C     0.46398   0.35719   0.28582   0.00000  Uiso   1.00
C68    C     0.47358   0.32887   0.37257   0.00000  Uiso   1.00
C69    C     0.58535   0.28568   0.40945   0.00000  Uiso   1.00
H70    H     0.60856   0.36827   0.10635   0.00000  Uiso   1.00
H71    H     0.25647   0.36743   0.87486   0.00000  Uiso   1.00
H72    H     0.84635   0.44471   0.19375   0.00000  Uiso   1.00
H73    H     0.75053   0.28870   0.23700   0.00000  Uiso   1.00
H74    H     0.82267   0.37282   0.63948   0.00000  Uiso   1.00
H75    H     0.06652   0.53576   0.31191   0.00000  Uiso   1.00
H76    H     0.86447   0.20678   0.40311   0.00000  Uiso   1.00
H77    H     0.27373   0.41685   0.27025   0.00000  Uiso   1.00
H78    H     0.90325   0.41867   0.04775   0.00000  Uiso   1.00
H79    H     0.49314   0.49595   0.36664   0.00000  Uiso   1.00
H80    H     0.39732   0.33994   0.40988   0.00000  Uiso   1.00
H81    H     0.53599   0.41441   0.77980   0.00000  Uiso   1.00
H82    H     0.77985   0.57735   0.45224   0.00000  Uiso   1.00
H83    H     0.57779   0.24837   0.54343   0.00000  Uiso   1.00
O84    O     0.44167   0.39395   0.56031   0.00000  Uiso   1.00
O85    O     0.07358   0.60772   0.44254   0.00000  Uiso   1.00
O86    O     0.80848   0.17610   0.56217   0.00000  Uiso   1.00
N87    N     0.80604   0.38235   0.70304   0.00000  Uiso   1.00
N88    N     0.96894   0.53469   0.33171   0.00000  Uiso   1.00
N89    N     0.78009   0.22713   0.41699   0.00000  Uiso   1.00
N90    N     0.65178   0.40472   0.77855   0.00000  Uiso   1.00
N91    N     0.81467   0.55707   0.40721   0.00000  Uiso   1.00
N92    N     0.62582   0.24951   0.49250   0.00000  Uiso   1.00
C93    C     0.53184   0.12060   0.64389   0.00000  Uiso   1.00
C94    C     0.29411   0.11433   0.54085   0.00000  Uiso   1.00
C95    C     0.18016   0.12151   0.41215   0.00000  Uiso   1.00
C96    C     0.96392   0.11389   0.33328   0.00000  Uiso   1.00
C97    C     0.60978   0.10629   0.16594   0.00000  Uiso   1.00
C98    C     0.61459   0.07233   0.71410   0.00000  Uiso   1.00
C99    C     0.77012   0.04422   0.73108   0.00000  Uiso   1.00
C100   C     0.82367   0.00124   0.79807   0.00000  Uiso   1.00
C101   C     0.96720   0.92847   0.89978   0.00000  Uiso   1.00
C102   C     0.56251   0.15710   0.73758   0.00000  Uiso   1.00
C103   C     0.67430   0.20025   0.77434   0.00000  Uiso   1.00
C104   C     0.68405   0.22864   0.86113   0.00000  Uiso   1.00
C105   C     0.74672   0.28749   0.99930   0.00000  Uiso   1.00
C106   C     0.35044   0.09428   0.73269   0.00000  Uiso   1.00
C107   C     0.19559   0.10003   0.58909   0.00000  Uiso   1.00
C108   C     0.97946   0.09239   0.51040   0.00000  Uiso   1.00
C109   C     0.86520   0.09957   0.38160   0.00000  Uiso   1.00
C110   C     0.51607   0.05804   0.76233   0.00000  Uiso   1.00
C111   C     0.56942   0.01510   0.82932   0.00000  Uiso   1.00
C112   C     0.72497   0.98692   0.84639   0.00000  Uiso   1.00
C113   C     0.46398   0.14281   0.78582   0.00000  Uiso   1.00
C114   C     0.47358   0.17113   0.87257   0.00000  Uiso   1.00
C115   C     0.58535   0.21432   0.90945   0.00000  Uiso   1.00
H116   H     0.60856   0.13173   0.60635   0.00000  Uiso   1.00
H117   H     0.25647   0.13257   0.37486   0.00000  Uiso   1.00
H118   H     0.84635   0.05529   0.69375   0.00000  Uiso   1.00
H119   H     0.75053   0.21130   0.73700   0.00000  Uiso   1.00
H120   H     0.82267   0.12718   0.13948   0.00000  Uiso   1.00
H121   H     0.06652   0.96424   0.81191   0.00000  Uiso   1.00
H122   H     0.86447   0.29322   0.90311   0.00000  Uiso   1.00
H123   H     0.27373   0.08315   0.77025   0.00000  Uiso   1.00
H124   H     0.90325   0.08133   0.54775   0.00000  Uiso   1.00
H125   H     0.49314   0.00405   0.86664   0.00000  Uiso   1.00
H126   H     0.39732   0.16006   0.90988   0.00000  Uiso   1.00
H127   H     0.53599   0.08559   0.27980   0.00000  Uiso   1.00
H128   H     0.77985   0.92265   0.95224   0.00000  Uiso   1.00
H129   H     0.57779   0.25163   0.04343   0.00000  Uiso   1.00
O130   O     0.44167   0.10605   0.06031   0.00000  Uiso   1.00
O131   O     0.07358   0.89228   0.94254   0.00000  Uiso   1.00
O132   O     0.80848   0.32390   0.06217   0.00000  Uiso   1.00
N133   N     0.80604   0.11765   0.20304   0.00000  Uiso   1.00
N134   N     0.96894   0.96531   0.83171   0.00000  Uiso   1.00
N135   N     0.78009   0.27287   0.91699   0.00000  Uiso   1.00
N136   N     0.65178   0.09528   0.27855   0.00000  Uiso   1.00
N137   N     0.81467   0.94293   0.90721   0.00000  Uiso   1.00
N138   N     0.62582   0.25049   0.99250   0.00000  Uiso   1.00
C139   C     0.46816   0.62060   0.85611   0.00000  Uiso   1.00
C140   C     0.70589   0.61433   0.95915   0.00000  Uiso   1.00
C141   C     0.81984   0.62151   0.08785   0.00000  Uiso   1.00
C142   C     0.03608   0.61389   0.16672   0.00000  Uiso   1.00
C143   C     0.39022   0.60629   0.33406   0.00000  Uiso   1.00
C144   C     0.38541   0.57233   0.78590   0.00000  Uiso   1.00
C145   C     0.22988   0.54422   0.76892   0.00000  Uiso   1.00
C146   C     0.17633   0.50124   0.70193   0.00000  Uiso   1.00
C147   C     0.03280   0.42847   0.60022   0.00000  Uiso   1.00
C148   C     0.43749   0.65710   0.76242   0.00000  Uiso   1.00
C149   C     0.32570   0.70025   0.72566   0.00000  Uiso   1.00
C150   C     0.31595   0.72864   0.63887   0.00000  Uiso   1.00
C151   C     0.25328   0.78749   0.50070   0.00000  Uiso   1.00
C152   C     0.64956   0.59428   0.76731   0.00000  Uiso   1.00
C153   C     0.80441   0.60003   0.91091   0.00000  Uiso   1.00
C154   C     0.02054   0.59239   0.98960   0.00000  Uiso   1.00
C155   C     0.13480   0.59957   0.11840   0.00000  Uiso   1.00
C156   C     0.48393   0.55804   0.73767   0.00000  Uiso   1.00
C157   C     0.43058   0.51510   0.67068   0.00000  Uiso   1.00
C158   C     0.27503   0.48692   0.65361   0.00000  Uiso   1.00
C159   C     0.53602   0.64281   0.71418   0.00000  Uiso   1.00
C160   C     0.52642   0.67113   0.62743   0.00000  Uiso   1.00
C161   C     0.41465   0.71432   0.59055   0.00000  Uiso   1.00
H162   H     0.39144   0.63173   0.89365   0.00000  Uiso   1.00
H163   H     0.74353   0.63257   0.12514   0.00000  Uiso   1.00
H164   H     0.15365   0.55529   0.80625   0.00000  Uiso   1.00
H165   H     0.24947   0.71130   0.76300   0.00000  Uiso   1.00
H166   H     0.17733   0.62718   0.36052   0.00000  Uiso   1.00
H167   H     0.93348   0.46424   0.68809   0.00000  Uiso   1.00
H168   H     0.13553   0.79322   0.59689   0.00000  Uiso   1.00
H169   H     0.72627   0.58315   0.72975   0.00000  Uiso   1.00
H170   H     0.09675   0.58133   0.95225   0.00000  Uiso   1.00
H171   H     0.50686   0.50405   0.63336   0.00000  Uiso   1.00
H172   H     0.60268   0.66006   0.59012   0.00000  Uiso   1.00
H173   H     0.46401   0.58559   0.22020   0.00000  Uiso   1.00
H174   H     0.22015   0.42265   0.54776   0.00000  Uiso   1.00
H175   H     0.42221   0.75163   0.45657   0.00000  Uiso   1.00
O176   O     0.55833   0.60605   0.43969   0.00000  Uiso   1.00
O177   O     0.92642   0.39228   0.55746   0.00000  Uiso   1.00
O178   O     0.19152   0.82390   0.43783   0.00000  Uiso   1.00
N179   N     0.19396   0.61765   0.29696   0.00000  Uiso   1.00
N180   N     0.03106   0.46531   0.66829   0.00000  Uiso   1.00
N181   N     0.21991   0.77287   0.58301   0.00000  Uiso   1.00
N182   N     0.34822   0.59528   0.22145   0.00000  Uiso   1.00
N183   N     0.18533   0.44293   0.59279   0.00000  Uiso   1.00
N184   N     0.37418   0.75049   0.50750   0.00000  Uiso   1.00
