data_job_03540
_audit_creation_date              2018-12-19
_audit_creation_method            'Materials Studio'
_symmetry_space_group_name_H-M    'P1'
_symmetry_Int_Tables_number       1
_symmetry_cell_setting            triclinic
loop_
_symmetry_equiv_pos_as_xyz
  x,y,z
_cell_length_a                    34.3434
_cell_length_b                    15.1303
_cell_length_c                    23.1160
_cell_angle_alpha                 90.0000
_cell_angle_beta                  146.9302
_cell_angle_gamma                 90.0000
loop_
_atom_site_label
_atom_site_type_symbol
_atom_site_fract_x
_atom_site_fract_y
_atom_site_fract_z
_atom_site_U_iso_or_equiv
_atom_site_adp_type
_atom_site_occupancy
C1     C     0.14493   0.42801   0.08074   0.00000  Uiso   1.00
C2     C     0.11804   0.33853   0.06837   0.00000  Uiso   1.00
C3     C     0.13229   0.30114   0.13970   0.00000  Uiso   1.00
C4     C     0.10275   0.21870   0.11398   0.00000  Uiso   1.00
C5     C     0.06744   0.08634   0.10905   0.00000  Uiso   1.00
C6     C     0.18474   0.40999   0.07397   0.00000  Uiso   1.00
C7     C     0.25507   0.43270   0.15002   0.00000  Uiso   1.00
C8     C     0.28167   0.41042   0.12901   0.00000  Uiso   1.00
C9     C     0.34990   0.38907   0.13276   0.00000  Uiso   1.00
C10    C     0.07870   0.48074   0.98163   0.00000  Uiso   1.00
C11    C     0.05989   0.56296   0.98002   0.00000  Uiso   1.00
C12    C     0.99722   0.60027   0.88125   0.00000  Uiso   1.00
C13    C     0.90082   0.68877   0.74161   0.00000  Uiso   1.00
C14    C     0.06711   0.34809   0.90819   0.00000  Uiso   1.00
C15    C     0.07577   0.29512   0.97464   0.00000  Uiso   1.00
C16    C     0.04619   0.21272   0.94880   0.00000  Uiso   1.00
C17    C     0.06040   0.17522   0.02008   0.00000  Uiso   1.00
C18    C     0.14247   0.36658   0.98026   0.00000  Uiso   1.00
C19    C     0.16897   0.34428   0.95912   0.00000  Uiso   1.00
C20    C     0.23932   0.36694   0.03512   0.00000  Uiso   1.00
C21    C     0.03643   0.43734   0.88790   0.00000  Uiso   1.00
C22    C     0.97379   0.47453   0.78912   0.00000  Uiso   1.00
C23    C     0.95488   0.55678   0.78736   0.00000  Uiso   1.00
H24    H     0.17785   0.46180   0.15370   0.00000  Uiso   1.00
H25    H     0.16501   0.33475   0.21223   0.00000  Uiso   1.00
H26    H     0.28777   0.46629   0.22254   0.00000  Uiso   1.00
H27    H     0.09261   0.59653   0.05256   0.00000  Uiso   1.00
H28    H     0.13216   0.17473   0.23581   0.00000  Uiso   1.00
H29    H     0.39099   0.45212   0.25753   0.00000  Uiso   1.00
H30    H     0.97948   0.72676   0.89910   0.00000  Uiso   1.00
H31    H     0.03420   0.31430   0.83522   0.00000  Uiso   1.00
H32    H     0.01348   0.17914   0.87626   0.00000  Uiso   1.00
H33    H     0.13624   0.31069   0.88658   0.00000  Uiso   1.00
H34    H     0.94109   0.44092   0.71660   0.00000  Uiso   1.00
H35    H     0.00918   0.04843   0.96313   0.00000  Uiso   1.00
H36    H     0.26801   0.32583   0.98485   0.00000  Uiso   1.00
H37    H     0.85649   0.60046   0.62642   0.00000  Uiso   1.00
O38    O     0.05965   0.02532   0.13223   0.00000  Uiso   1.00
O39    O     0.39922   0.38927   0.16073   0.00000  Uiso   1.00
O40    O     0.85932   0.74957   0.69048   0.00000  Uiso   1.00
N41    N     0.10605   0.16356   0.16599   0.00000  Uiso   1.00
N42    N     0.34804   0.42290   0.18631   0.00000  Uiso   1.00
N43    N     0.96332   0.67966   0.85121   0.00000  Uiso   1.00
N44    N     0.03987   0.09560   0.01926   0.00000  Uiso   1.00
N45    N     0.28186   0.35494   0.03958   0.00000  Uiso   1.00
N46    N     0.89714   0.61171   0.70448   0.00000  Uiso   1.00
C47    C     0.64493   0.92801   0.08074   0.00000  Uiso   1.00
C48    C     0.61804   0.83853   0.06837   0.00000  Uiso   1.00
C49    C     0.63229   0.80114   0.13970   0.00000  Uiso   1.00
C50    C     0.60275   0.71870   0.11398   0.00000  Uiso   1.00
C51    C     0.56744   0.58634   0.10905   0.00000  Uiso   1.00
C52    C     0.68474   0.90999   0.07397   0.00000  Uiso   1.00
C53    C     0.75507   0.93270   0.15002   0.00000  Uiso   1.00
C54    C     0.78167   0.91042   0.12901   0.00000  Uiso   1.00
C55    C     0.84990   0.88907   0.13276   0.00000  Uiso   1.00
C56    C     0.57870   0.98074   0.98163   0.00000  Uiso   1.00
C57    C     0.55989   0.06296   0.98002   0.00000  Uiso   1.00
C58    C     0.49722   0.10027   0.88125   0.00000  Uiso   1.00
C59    C     0.40082   0.18877   0.74161   0.00000  Uiso   1.00
C60    C     0.56711   0.84809   0.90819   0.00000  Uiso   1.00
C61    C     0.57577   0.79512   0.97464   0.00000  Uiso   1.00
C62    C     0.54619   0.71272   0.94880   0.00000  Uiso   1.00
C63    C     0.56040   0.67522   0.02008   0.00000  Uiso   1.00
C64    C     0.64247   0.86658   0.98026   0.00000  Uiso   1.00
C65    C     0.66897   0.84428   0.95912   0.00000  Uiso   1.00
C66    C     0.73932   0.86694   0.03512   0.00000  Uiso   1.00
C67    C     0.53643   0.93734   0.88790   0.00000  Uiso   1.00
C68    C     0.47379   0.97453   0.78912   0.00000  Uiso   1.00
C69    C     0.45488   0.05678   0.78736   0.00000  Uiso   1.00
H70    H     0.67785   0.96180   0.15370   0.00000  Uiso   1.00
H71    H     0.66501   0.83475   0.21223   0.00000  Uiso   1.00
H72    H     0.78777   0.96629   0.22254   0.00000  Uiso   1.00
H73    H     0.59261   0.09653   0.05256   0.00000  Uiso   1.00
H74    H     0.63216   0.67473   0.23581   0.00000  Uiso   1.00
H75    H     0.89099   0.95212   0.25753   0.00000  Uiso   1.00
H76    H     0.47948   0.22676   0.89910   0.00000  Uiso   1.00
H77    H     0.53420   0.81430   0.83522   0.00000  Uiso   1.00
H78    H     0.51348   0.67914   0.87626   0.00000  Uiso   1.00
H79    H     0.63624   0.81069   0.88658   0.00000  Uiso   1.00
H80    H     0.44109   0.94092   0.71660   0.00000  Uiso   1.00
H81    H     0.50918   0.54843   0.96313   0.00000  Uiso   1.00
H82    H     0.76801   0.82583   0.98485   0.00000  Uiso   1.00
H83    H     0.35649   0.10046   0.62642   0.00000  Uiso   1.00
O84    O     0.55965   0.52532   0.13223   0.00000  Uiso   1.00
O85    O     0.89922   0.88927   0.16073   0.00000  Uiso   1.00
O86    O     0.35932   0.24957   0.69048   0.00000  Uiso   1.00
N87    N     0.60605   0.66356   0.16599   0.00000  Uiso   1.00
N88    N     0.84804   0.92290   0.18631   0.00000  Uiso   1.00
N89    N     0.46332   0.17966   0.85121   0.00000  Uiso   1.00
N90    N     0.53987   0.59560   0.01926   0.00000  Uiso   1.00
N91    N     0.78186   0.85494   0.03958   0.00000  Uiso   1.00
N92    N     0.39714   0.11171   0.70448   0.00000  Uiso   1.00
C93    C     0.85507   0.42801   0.41926   0.00000  Uiso   1.00
C94    C     0.88196   0.33853   0.43163   0.00000  Uiso   1.00
C95    C     0.86771   0.30114   0.36030   0.00000  Uiso   1.00
C96    C     0.89725   0.21870   0.38602   0.00000  Uiso   1.00
C97    C     0.93256   0.08634   0.39095   0.00000  Uiso   1.00
C98    C     0.81526   0.40999   0.42603   0.00000  Uiso   1.00
C99    C     0.74493   0.43270   0.34998   0.00000  Uiso   1.00
C100   C     0.71833   0.41042   0.37099   0.00000  Uiso   1.00
C101   C     0.65010   0.38907   0.36724   0.00000  Uiso   1.00
C102   C     0.92130   0.48074   0.51837   0.00000  Uiso   1.00
C103   C     0.94011   0.56296   0.51998   0.00000  Uiso   1.00
C104   C     0.00278   0.60027   0.61875   0.00000  Uiso   1.00
C105   C     0.09918   0.68877   0.75839   0.00000  Uiso   1.00
C106   C     0.93289   0.34809   0.59181   0.00000  Uiso   1.00
C107   C     0.92423   0.29512   0.52536   0.00000  Uiso   1.00
C108   C     0.95381   0.21272   0.55120   0.00000  Uiso   1.00
C109   C     0.93960   0.17522   0.47992   0.00000  Uiso   1.00
C110   C     0.85753   0.36658   0.51974   0.00000  Uiso   1.00
C111   C     0.83103   0.34428   0.54088   0.00000  Uiso   1.00
C112   C     0.76068   0.36694   0.46488   0.00000  Uiso   1.00
C113   C     0.96357   0.43734   0.61210   0.00000  Uiso   1.00
C114   C     0.02621   0.47453   0.71088   0.00000  Uiso   1.00
C115   C     0.04512   0.55678   0.71264   0.00000  Uiso   1.00
H116   H     0.82215   0.46180   0.34630   0.00000  Uiso   1.00
H117   H     0.83499   0.33475   0.28777   0.00000  Uiso   1.00
H118   H     0.71223   0.46629   0.27746   0.00000  Uiso   1.00
H119   H     0.90739   0.59653   0.44744   0.00000  Uiso   1.00
H120   H     0.86784   0.17473   0.26419   0.00000  Uiso   1.00
H121   H     0.60901   0.45212   0.24247   0.00000  Uiso   1.00
H122   H     0.02052   0.72676   0.60090   0.00000  Uiso   1.00
H123   H     0.96580   0.31430   0.66478   0.00000  Uiso   1.00
H124   H     0.98652   0.17914   0.62374   0.00000  Uiso   1.00
H125   H     0.86376   0.31069   0.61342   0.00000  Uiso   1.00
H126   H     0.05891   0.44092   0.78340   0.00000  Uiso   1.00
H127   H     0.99082   0.04843   0.53687   0.00000  Uiso   1.00
H128   H     0.73199   0.32583   0.51515   0.00000  Uiso   1.00
H129   H     0.14351   0.60046   0.87358   0.00000  Uiso   1.00
O130   O     0.94035   0.02532   0.36777   0.00000  Uiso   1.00
O131   O     0.60078   0.38927   0.33927   0.00000  Uiso   1.00
O132   O     0.14068   0.74957   0.80952   0.00000  Uiso   1.00
N133   N     0.89395   0.16356   0.33401   0.00000  Uiso   1.00
N134   N     0.65196   0.42290   0.31369   0.00000  Uiso   1.00
N135   N     0.03668   0.67966   0.64879   0.00000  Uiso   1.00
N136   N     0.96013   0.09560   0.48074   0.00000  Uiso   1.00
N137   N     0.71814   0.35494   0.46042   0.00000  Uiso   1.00
N138   N     0.10286   0.61171   0.79552   0.00000  Uiso   1.00
C139   C     0.35507   0.92801   0.41926   0.00000  Uiso   1.00
C140   C     0.38196   0.83853   0.43163   0.00000  Uiso   1.00
C141   C     0.36771   0.80114   0.36030   0.00000  Uiso   1.00
C142   C     0.39725   0.71870   0.38602   0.00000  Uiso   1.00
C143   C     0.43256   0.58634   0.39095   0.00000  Uiso   1.00
C144   C     0.31526   0.90999   0.42603   0.00000  Uiso   1.00
C145   C     0.24493   0.93270   0.34998   0.00000  Uiso   1.00
C146   C     0.21833   0.91042   0.37099   0.00000  Uiso   1.00
C147   C     0.15010   0.88907   0.36724   0.00000  Uiso   1.00
C148   C     0.42130   0.98074   0.51837   0.00000  Uiso   1.00
C149   C     0.44011   0.06296   0.51998   0.00000  Uiso   1.00
C150   C     0.50278   0.10027   0.61875   0.00000  Uiso   1.00
C151   C     0.59918   0.18877   0.75839   0.00000  Uiso   1.00
C152   C     0.43289   0.84809   0.59181   0.00000  Uiso   1.00
C153   C     0.42423   0.79512   0.52536   0.00000  Uiso   1.00
C154   C     0.45381   0.71272   0.55120   0.00000  Uiso   1.00
C155   C     0.43960   0.67522   0.47992   0.00000  Uiso   1.00
C156   C     0.35753   0.86658   0.51974   0.00000  Uiso   1.00
C157   C     0.33103   0.84428   0.54088   0.00000  Uiso   1.00
C158   C     0.26068   0.86694   0.46488   0.00000  Uiso   1.00
C159   C     0.46357   0.93734   0.61210   0.00000  Uiso   1.00
C160   C     0.52621   0.97453   0.71088   0.00000  Uiso   1.00
C161   C     0.54512   0.05678   0.71264   0.00000  Uiso   1.00
H162   H     0.32215   0.96180   0.34630   0.00000  Uiso   1.00
H163   H     0.33499   0.83475   0.28777   0.00000  Uiso   1.00
H164   H     0.21223   0.96629   0.27746   0.00000  Uiso   1.00
H165   H     0.40739   0.09653   0.44744   0.00000  Uiso   1.00
H166   H     0.36784   0.67473   0.26419   0.00000  Uiso   1.00
H167   H     0.10901   0.95212   0.24247   0.00000  Uiso   1.00
H168   H     0.52052   0.22676   0.60090   0.00000  Uiso   1.00
H169   H     0.46580   0.81430   0.66478   0.00000  Uiso   1.00
H170   H     0.48652   0.67914   0.62374   0.00000  Uiso   1.00
H171   H     0.36376   0.81069   0.61342   0.00000  Uiso   1.00
H172   H     0.55891   0.94092   0.78340   0.00000  Uiso   1.00
H173   H     0.49082   0.54843   0.53687   0.00000  Uiso   1.00
H174   H     0.23199   0.82583   0.51515   0.00000  Uiso   1.00
H175   H     0.64351   0.10046   0.87358   0.00000  Uiso   1.00
O176   O     0.44035   0.52532   0.36777   0.00000  Uiso   1.00
O177   O     0.10078   0.88927   0.33927   0.00000  Uiso   1.00
O178   O     0.64068   0.24957   0.80952   0.00000  Uiso   1.00
N179   N     0.39395   0.66356   0.33401   0.00000  Uiso   1.00
N180   N     0.15196   0.92290   0.31369   0.00000  Uiso   1.00
N181   N     0.53668   0.17966   0.64879   0.00000  Uiso   1.00
N182   N     0.46013   0.59560   0.48074   0.00000  Uiso   1.00
N183   N     0.21814   0.85494   0.46042   0.00000  Uiso   1.00
N184   N     0.60286   0.11171   0.79552   0.00000  Uiso   1.00
C185   C     0.85507   0.57199   0.91926   0.00000  Uiso   1.00
C186   C     0.88196   0.66147   0.93163   0.00000  Uiso   1.00
C187   C     0.86771   0.69886   0.86030   0.00000  Uiso   1.00
C188   C     0.89725   0.78130   0.88602   0.00000  Uiso   1.00
C189   C     0.93256   0.91366   0.89095   0.00000  Uiso   1.00
C190   C     0.81526   0.59001   0.92603   0.00000  Uiso   1.00
C191   C     0.74493   0.56730   0.84998   0.00000  Uiso   1.00
C192   C     0.71833   0.58958   0.87099   0.00000  Uiso   1.00
C193   C     0.65010   0.61093   0.86724   0.00000  Uiso   1.00
C194   C     0.92130   0.51926   0.01837   0.00000  Uiso   1.00
C195   C     0.94011   0.43704   0.01998   0.00000  Uiso   1.00
C196   C     0.00278   0.39973   0.11875   0.00000  Uiso   1.00
C197   C     0.09918   0.31123   0.25839   0.00000  Uiso   1.00
C198   C     0.93289   0.65191   0.09181   0.00000  Uiso   1.00
C199   C     0.92423   0.70488   0.02536   0.00000  Uiso   1.00
C200   C     0.95381   0.78728   0.05120   0.00000  Uiso   1.00
C201   C     0.93960   0.82478   0.97992   0.00000  Uiso   1.00
C202   C     0.85753   0.63342   0.01974   0.00000  Uiso   1.00
C203   C     0.83103   0.65572   0.04088   0.00000  Uiso   1.00
C204   C     0.76068   0.63306   0.96488   0.00000  Uiso   1.00
C205   C     0.96357   0.56266   0.11210   0.00000  Uiso   1.00
C206   C     0.02621   0.52547   0.21088   0.00000  Uiso   1.00
C207   C     0.04512   0.44322   0.21264   0.00000  Uiso   1.00
H208   H     0.82215   0.53820   0.84630   0.00000  Uiso   1.00
H209   H     0.83499   0.66525   0.78777   0.00000  Uiso   1.00
H210   H     0.71223   0.53371   0.77746   0.00000  Uiso   1.00
H211   H     0.90739   0.40347   0.94744   0.00000  Uiso   1.00
H212   H     0.86784   0.82527   0.76419   0.00000  Uiso   1.00
H213   H     0.60901   0.54788   0.74247   0.00000  Uiso   1.00
H214   H     0.02052   0.27324   0.10090   0.00000  Uiso   1.00
H215   H     0.96580   0.68570   0.16478   0.00000  Uiso   1.00
H216   H     0.98652   0.82086   0.12374   0.00000  Uiso   1.00
H217   H     0.86376   0.68931   0.11342   0.00000  Uiso   1.00
H218   H     0.05891   0.55908   0.28340   0.00000  Uiso   1.00
H219   H     0.99082   0.95157   0.03687   0.00000  Uiso   1.00
H220   H     0.73199   0.67417   0.01515   0.00000  Uiso   1.00
H221   H     0.14351   0.39954   0.37358   0.00000  Uiso   1.00
O222   O     0.94035   0.97468   0.86777   0.00000  Uiso   1.00
O223   O     0.60078   0.61073   0.83927   0.00000  Uiso   1.00
O224   O     0.14068   0.25043   0.30952   0.00000  Uiso   1.00
N225   N     0.89395   0.83644   0.83401   0.00000  Uiso   1.00
N226   N     0.65196   0.57710   0.81369   0.00000  Uiso   1.00
N227   N     0.03668   0.32034   0.14879   0.00000  Uiso   1.00
N228   N     0.96013   0.90440   0.98074   0.00000  Uiso   1.00
N229   N     0.71814   0.64506   0.96042   0.00000  Uiso   1.00
N230   N     0.10286   0.38829   0.29552   0.00000  Uiso   1.00
C231   C     0.35507   0.07199   0.91926   0.00000  Uiso   1.00
C232   C     0.38196   0.16147   0.93163   0.00000  Uiso   1.00
C233   C     0.36771   0.19886   0.86030   0.00000  Uiso   1.00
C234   C     0.39725   0.28130   0.88602   0.00000  Uiso   1.00
C235   C     0.43256   0.41366   0.89095   0.00000  Uiso   1.00
C236   C     0.31526   0.09001   0.92603   0.00000  Uiso   1.00
C237   C     0.24493   0.06730   0.84998   0.00000  Uiso   1.00
C238   C     0.21833   0.08958   0.87099   0.00000  Uiso   1.00
C239   C     0.15010   0.11093   0.86724   0.00000  Uiso   1.00
C240   C     0.42130   0.01926   0.01837   0.00000  Uiso   1.00
C241   C     0.44011   0.93704   0.01998   0.00000  Uiso   1.00
C242   C     0.50278   0.89973   0.11875   0.00000  Uiso   1.00
C243   C     0.59918   0.81123   0.25839   0.00000  Uiso   1.00
C244   C     0.43289   0.15191   0.09181   0.00000  Uiso   1.00
C245   C     0.42423   0.20488   0.02536   0.00000  Uiso   1.00
C246   C     0.45381   0.28728   0.05120   0.00000  Uiso   1.00
C247   C     0.43960   0.32478   0.97992   0.00000  Uiso   1.00
C248   C     0.35753   0.13342   0.01974   0.00000  Uiso   1.00
C249   C     0.33103   0.15572   0.04088   0.00000  Uiso   1.00
C250   C     0.26068   0.13306   0.96488   0.00000  Uiso   1.00
C251   C     0.46357   0.06266   0.11210   0.00000  Uiso   1.00
C252   C     0.52621   0.02547   0.21088   0.00000  Uiso   1.00
C253   C     0.54512   0.94322   0.21264   0.00000  Uiso   1.00
H254   H     0.32215   0.03820   0.84630   0.00000  Uiso   1.00
H255   H     0.33499   0.16525   0.78777   0.00000  Uiso   1.00
H256   H     0.21223   0.03371   0.77746   0.00000  Uiso   1.00
H257   H     0.40739   0.90347   0.94744   0.00000  Uiso   1.00
H258   H     0.36784   0.32527   0.76419   0.00000  Uiso   1.00
H259   H     0.10901   0.04788   0.74247   0.00000  Uiso   1.00
H260   H     0.52052   0.77324   0.10090   0.00000  Uiso   1.00
H261   H     0.46580   0.18570   0.16478   0.00000  Uiso   1.00
H262   H     0.48652   0.32086   0.12374   0.00000  Uiso   1.00
H263   H     0.36376   0.18931   0.11342   0.00000  Uiso   1.00
H264   H     0.55891   0.05908   0.28340   0.00000  Uiso   1.00
H265   H     0.49082   0.45157   0.03687   0.00000  Uiso   1.00
H266   H     0.23199   0.17417   0.01515   0.00000  Uiso   1.00
H267   H     0.64351   0.89954   0.37358   0.00000  Uiso   1.00
O268   O     0.44035   0.47468   0.86777   0.00000  Uiso   1.00
O269   O     0.10078   0.11073   0.83927   0.00000  Uiso   1.00
O270   O     0.64068   0.75043   0.30952   0.00000  Uiso   1.00
N271   N     0.39395   0.33644   0.83401   0.00000  Uiso   1.00
N272   N     0.15196   0.07710   0.81369   0.00000  Uiso   1.00
N273   N     0.53668   0.82034   0.14879   0.00000  Uiso   1.00
N274   N     0.46013   0.40440   0.98074   0.00000  Uiso   1.00
N275   N     0.21814   0.14506   0.96042   0.00000  Uiso   1.00
N276   N     0.60286   0.88829   0.29552   0.00000  Uiso   1.00
C277   C     0.14493   0.57199   0.58074   0.00000  Uiso   1.00
C278   C     0.11804   0.66147   0.56837   0.00000  Uiso   1.00
C279   C     0.13229   0.69886   0.63970   0.00000  Uiso   1.00
C280   C     0.10275   0.78130   0.61398   0.00000  Uiso   1.00
C281   C     0.06744   0.91366   0.60905   0.00000  Uiso   1.00
C282   C     0.18474   0.59001   0.57397   0.00000  Uiso   1.00
C283   C     0.25507   0.56730   0.65002   0.00000  Uiso   1.00
C284   C     0.28167   0.58958   0.62901   0.00000  Uiso   1.00
C285   C     0.34990   0.61093   0.63276   0.00000  Uiso   1.00
C286   C     0.07870   0.51926   0.48163   0.00000  Uiso   1.00
C287   C     0.05989   0.43704   0.48002   0.00000  Uiso   1.00
C288   C     0.99722   0.39973   0.38125   0.00000  Uiso   1.00
C289   C     0.90082   0.31123   0.24161   0.00000  Uiso   1.00
C290   C     0.06711   0.65191   0.40819   0.00000  Uiso   1.00
C291   C     0.07577   0.70488   0.47464   0.00000  Uiso   1.00
C292   C     0.04619   0.78728   0.44880   0.00000  Uiso   1.00
C293   C     0.06040   0.82478   0.52008   0.00000  Uiso   1.00
C294   C     0.14247   0.63342   0.48026   0.00000  Uiso   1.00
C295   C     0.16897   0.65572   0.45912   0.00000  Uiso   1.00
C296   C     0.23932   0.63306   0.53512   0.00000  Uiso   1.00
C297   C     0.03643   0.56266   0.38790   0.00000  Uiso   1.00
C298   C     0.97379   0.52547   0.28912   0.00000  Uiso   1.00
C299   C     0.95488   0.44322   0.28736   0.00000  Uiso   1.00
H300   H     0.17785   0.53820   0.65370   0.00000  Uiso   1.00
H301   H     0.16501   0.66525   0.71223   0.00000  Uiso   1.00
H302   H     0.28777   0.53371   0.72254   0.00000  Uiso   1.00
H303   H     0.09261   0.40347   0.55256   0.00000  Uiso   1.00
H304   H     0.13216   0.82527   0.73581   0.00000  Uiso   1.00
H305   H     0.39099   0.54788   0.75753   0.00000  Uiso   1.00
H306   H     0.97948   0.27324   0.39910   0.00000  Uiso   1.00
H307   H     0.03420   0.68570   0.33522   0.00000  Uiso   1.00
H308   H     0.01348   0.82086   0.37626   0.00000  Uiso   1.00
H309   H     0.13624   0.68931   0.38658   0.00000  Uiso   1.00
H310   H     0.94109   0.55908   0.21660   0.00000  Uiso   1.00
H311   H     0.00918   0.95157   0.46313   0.00000  Uiso   1.00
H312   H     0.26801   0.67417   0.48485   0.00000  Uiso   1.00
H313   H     0.85649   0.39954   0.12642   0.00000  Uiso   1.00
O314   O     0.05965   0.97468   0.63223   0.00000  Uiso   1.00
O315   O     0.39922   0.61073   0.66073   0.00000  Uiso   1.00
O316   O     0.85932   0.25043   0.19048   0.00000  Uiso   1.00
N317   N     0.10605   0.83644   0.66599   0.00000  Uiso   1.00
N318   N     0.34804   0.57710   0.68631   0.00000  Uiso   1.00
N319   N     0.96332   0.32034   0.35121   0.00000  Uiso   1.00
N320   N     0.03987   0.90440   0.51926   0.00000  Uiso   1.00
N321   N     0.28186   0.64506   0.53958   0.00000  Uiso   1.00
N322   N     0.89714   0.38829   0.20448   0.00000  Uiso   1.00
C323   C     0.64493   0.07199   0.58074   0.00000  Uiso   1.00
C324   C     0.61804   0.16147   0.56837   0.00000  Uiso   1.00
C325   C     0.63229   0.19886   0.63970   0.00000  Uiso   1.00
C326   C     0.60275   0.28130   0.61398   0.00000  Uiso   1.00
C327   C     0.56744   0.41366   0.60905   0.00000  Uiso   1.00
C328   C     0.68474   0.09001   0.57397   0.00000  Uiso   1.00
C329   C     0.75507   0.06730   0.65002   0.00000  Uiso   1.00
C330   C     0.78167   0.08958   0.62901   0.00000  Uiso   1.00
C331   C     0.84990   0.11093   0.63276   0.00000  Uiso   1.00
C332   C     0.57870   0.01926   0.48163   0.00000  Uiso   1.00
C333   C     0.55989   0.93704   0.48002   0.00000  Uiso   1.00
C334   C     0.49722   0.89973   0.38125   0.00000  Uiso   1.00
C335   C     0.40082   0.81123   0.24161   0.00000  Uiso   1.00
C336   C     0.56711   0.15191   0.40819   0.00000  Uiso   1.00
C337   C     0.57577   0.20488   0.47464   0.00000  Uiso   1.00
C338   C     0.54619   0.28728   0.44880   0.00000  Uiso   1.00
C339   C     0.56040   0.32478   0.52008   0.00000  Uiso   1.00
C340   C     0.64247   0.13342   0.48026   0.00000  Uiso   1.00
C341   C     0.66897   0.15572   0.45912   0.00000  Uiso   1.00
C342   C     0.73932   0.13306   0.53512   0.00000  Uiso   1.00
C343   C     0.53643   0.06266   0.38790   0.00000  Uiso   1.00
C344   C     0.47379   0.02547   0.28912   0.00000  Uiso   1.00
C345   C     0.45488   0.94322   0.28736   0.00000  Uiso   1.00
H346   H     0.67785   0.03820   0.65370   0.00000  Uiso   1.00
H347   H     0.66501   0.16525   0.71223   0.00000  Uiso   1.00
H348   H     0.78777   0.03371   0.72254   0.00000  Uiso   1.00
H349   H     0.59261   0.90347   0.55256   0.00000  Uiso   1.00
H350   H     0.63216   0.32527   0.73581   0.00000  Uiso   1.00
H351   H     0.89099   0.04788   0.75753   0.00000  Uiso   1.00
H352   H     0.47948   0.77324   0.39910   0.00000  Uiso   1.00
H353   H     0.53420   0.18570   0.33522   0.00000  Uiso   1.00
H354   H     0.51348   0.32086   0.37626   0.00000  Uiso   1.00
H355   H     0.63624   0.18931   0.38658   0.00000  Uiso   1.00
H356   H     0.44109   0.05908   0.21660   0.00000  Uiso   1.00
H357   H     0.50918   0.45157   0.46313   0.00000  Uiso   1.00
H358   H     0.76801   0.17417   0.48485   0.00000  Uiso   1.00
H359   H     0.35649   0.89954   0.12642   0.00000  Uiso   1.00
O360   O     0.55965   0.47468   0.63223   0.00000  Uiso   1.00
O361   O     0.89922   0.11073   0.66073   0.00000  Uiso   1.00
O362   O     0.35932   0.75043   0.19048   0.00000  Uiso   1.00
N363   N     0.60605   0.33644   0.66599   0.00000  Uiso   1.00
N364   N     0.84804   0.07710   0.68631   0.00000  Uiso   1.00
N365   N     0.46332   0.82034   0.35121   0.00000  Uiso   1.00
N366   N     0.53987   0.40440   0.51926   0.00000  Uiso   1.00
N367   N     0.78186   0.14506   0.53958   0.00000  Uiso   1.00
N368   N     0.39714   0.88829   0.20448   0.00000  Uiso   1.00
