data_job_06616
_audit_creation_date              2018-12-19
_audit_creation_method            'Materials Studio'
_symmetry_space_group_name_H-M    'P1'
_symmetry_Int_Tables_number       1
_symmetry_cell_setting            triclinic
loop_
_symmetry_equiv_pos_as_xyz
  x,y,z
_cell_length_a                    21.9184
_cell_length_b                    20.2484
_cell_length_c                    21.8138
_cell_angle_alpha                 109.4090
_cell_angle_beta                  109.2070
_cell_angle_gamma                 106.3320
loop_
_atom_site_label
_atom_site_type_symbol
_atom_site_fract_x
_atom_site_fract_y
_atom_site_fract_z
_atom_site_U_iso_or_equiv
_atom_site_adp_type
_atom_site_occupancy
C1     C     0.54565   0.24106   0.60893   0.00000  Uiso   1.00
C2     C     0.60215   0.30333   0.68686   0.00000  Uiso   1.00
C3     C     0.64382   0.38032   0.70772   0.00000  Uiso   1.00
C4     C     0.69249   0.42812   0.78170   0.00000  Uiso   1.00
C5     C     0.77922   0.52910   0.89491   0.00000  Uiso   1.00
C6     C     0.56738   0.17452   0.59170   0.00000  Uiso   1.00
C7     C     0.57980   0.14320   0.53254   0.00000  Uiso   1.00
C8     C     0.59919   0.08256   0.52641   0.00000  Uiso   1.00
C9     C     0.63189   0.98353   0.49185   0.00000  Uiso   1.00
C10    C     0.47588   0.20968   0.61285   0.00000  Uiso   1.00
C11    C     0.41136   0.20790   0.57146   0.00000  Uiso   1.00
C12    C     0.35371   0.17685   0.58313   0.00000  Uiso   1.00
C13    C     0.24435   0.13240   0.58140   0.00000  Uiso   1.00
C14    C     0.55798   0.18904   0.70323   0.00000  Uiso   1.00
C15    C     0.60885   0.27507   0.73808   0.00000  Uiso   1.00
C16    C     0.65746   0.32277   0.81205   0.00000  Uiso   1.00
C17    C     0.69920   0.39982   0.83301   0.00000  Uiso   1.00
C18    C     0.57408   0.14626   0.64292   0.00000  Uiso   1.00
C19    C     0.59345   0.08565   0.63687   0.00000  Uiso   1.00
C20    C     0.60590   0.05426   0.57772   0.00000  Uiso   1.00
C21    C     0.48258   0.18143   0.66407   0.00000  Uiso   1.00
C22    C     0.42501   0.15036   0.67580   0.00000  Uiso   1.00
C23    C     0.36042   0.14855   0.63443   0.00000  Uiso   1.00
H24    H     0.54043   0.26305   0.56906   0.00000  Uiso   1.00
H25    H     0.63862   0.40216   0.66806   0.00000  Uiso   1.00
H26    H     0.57461   0.16507   0.49291   0.00000  Uiso   1.00
H27    H     0.40620   0.22977   0.53183   0.00000  Uiso   1.00
H28    H     0.75045   0.54392   0.80042   0.00000  Uiso   1.00
H29    H     0.61545   0.04400   0.43108   0.00000  Uiso   1.00
H30    H     0.26033   0.18042   0.51315   0.00000  Uiso   1.00
H31    H     0.56320   0.16704   0.74311   0.00000  Uiso   1.00
H32    H     0.66264   0.30089   0.85167   0.00000  Uiso   1.00
H33    H     0.59862   0.06380   0.67651   0.00000  Uiso   1.00
H34    H     0.43022   0.12850   0.71544   0.00000  Uiso   1.00
H35    H     0.76995   0.46172   0.94944   0.00000  Uiso   1.00
H36    H     0.63494   0.96180   0.58010   0.00000  Uiso   1.00
H37    H     0.27982   0.09823   0.66217   0.00000  Uiso   1.00
O38    O     0.82522   0.59259   0.94320   0.00000  Uiso   1.00
O39    O     0.64808   0.93671   0.45864   0.00000  Uiso   1.00
O40    O     0.18218   0.11570   0.56631   0.00000  Uiso   1.00
N41    N     0.74138   0.50621   0.82060   0.00000  Uiso   1.00
N42    N     0.61517   0.03882   0.47529   0.00000  Uiso   1.00
N43    N     0.28316   0.16635   0.55200   0.00000  Uiso   1.00
N44    N     0.75187   0.46198   0.90078   0.00000  Uiso   1.00
N45    N     0.62566   0.99459   0.55548   0.00000  Uiso   1.00
N46    N     0.29365   0.12212   0.63219   0.00000  Uiso   1.00
C47    C     0.57859   0.44387   0.30327   0.00000  Uiso   1.00
C48    C     0.66034   0.48835   0.34540   0.00000  Uiso   1.00
C49    C     0.70099   0.53399   0.42103   0.00000  Uiso   1.00
C50    C     0.77508   0.56991   0.44896   0.00000  Uiso   1.00
C51    C     0.89713   0.64045   0.52140   0.00000  Uiso   1.00
C52    C     0.55431   0.47233   0.24717   0.00000  Uiso   1.00
C53    C     0.50580   0.50448   0.24021   0.00000  Uiso   1.00
C54    C     0.49062   0.52691   0.18544   0.00000  Uiso   1.00
C55    C     0.44800   0.57252   0.10534   0.00000  Uiso   1.00
C56    C     0.56175   0.35903   0.25907   0.00000  Uiso   1.00
C57    C     0.51948   0.29591   0.26208   0.00000  Uiso   1.00
C58    C     0.51056   0.22294   0.21731   0.00000  Uiso   1.00
C59    C     0.47949   0.09264   0.15568   0.00000  Uiso   1.00
C60    C     0.63788   0.42651   0.21840   0.00000  Uiso   1.00
C61    C     0.69255   0.47893   0.29930   0.00000  Uiso   1.00
C62    C     0.76660   0.51478   0.32713   0.00000  Uiso   1.00
C63    C     0.80735   0.56046   0.40278   0.00000  Uiso   1.00
C64    C     0.58651   0.46291   0.20108   0.00000  Uiso   1.00
C65    C     0.57140   0.48528   0.14631   0.00000  Uiso   1.00
C66    C     0.52289   0.51746   0.13926   0.00000  Uiso   1.00
C67    C     0.59396   0.34960   0.21297   0.00000  Uiso   1.00
C68    C     0.58509   0.27671   0.16818   0.00000  Uiso   1.00
C69    C     0.54282   0.21350   0.17113   0.00000  Uiso   1.00
H70    H     0.55351   0.45121   0.33915   0.00000  Uiso   1.00
H71    H     0.67605   0.54127   0.45668   0.00000  Uiso   1.00
H72    H     0.48088   0.51177   0.27588   0.00000  Uiso   1.00
H73    H     0.49457   0.30323   0.29776   0.00000  Uiso   1.00
H74    H     0.82610   0.63699   0.56665   0.00000  Uiso   1.00
H75    H     0.41456   0.57475   0.18541   0.00000  Uiso   1.00
H76    H     0.44342   0.13501   0.23154   0.00000  Uiso   1.00
H77    H     0.66296   0.41917   0.18250   0.00000  Uiso   1.00
H78    H     0.79150   0.50748   0.29144   0.00000  Uiso   1.00
H79    H     0.59633   0.47797   0.11064   0.00000  Uiso   1.00
H80    H     0.61002   0.26944   0.13252   0.00000  Uiso   1.00
H81    H     0.91981   0.60956   0.43254   0.00000  Uiso   1.00
H82    H     0.50826   0.54732   0.05129   0.00000  Uiso   1.00
H83    H     0.53713   0.10759   0.09742   0.00000  Uiso   1.00
O84    O     0.95554   0.68197   0.57408   0.00000  Uiso   1.00
O85    O     0.41560   0.60029   0.07390   0.00000  Uiso   1.00
O86    O     0.45347   0.02337   0.13442   0.00000  Uiso   1.00
N87    N     0.83052   0.61840   0.52014   0.00000  Uiso   1.00
N88    N     0.44576   0.56022   0.16371   0.00000  Uiso   1.00
N89    N     0.47272   0.14910   0.20682   0.00000  Uiso   1.00
N90    N     0.88094   0.60365   0.44797   0.00000  Uiso   1.00
N91    N     0.49618   0.54547   0.09154   0.00000  Uiso   1.00
N92    N     0.52314   0.13435   0.13465   0.00000  Uiso   1.00
C93    C     0.30835   0.61487   0.73881   0.00000  Uiso   1.00
C94    C     0.36138   0.69593   0.76013   0.00000  Uiso   1.00
C95    C     0.43237   0.73572   0.81468   0.00000  Uiso   1.00
C96    C     0.47205   0.80929   0.82578   0.00000  Uiso   1.00
C97    C     0.55898   0.93023   0.86530   0.00000  Uiso   1.00
C98    C     0.24401   0.62369   0.74646   0.00000  Uiso   1.00
C99    C     0.21632   0.60272   0.78952   0.00000  Uiso   1.00
C100   C     0.15720   0.61546   0.78911   0.00000  Uiso   1.00
C101   C     0.06189   0.62419   0.80737   0.00000  Uiso   1.00
C102   C     0.28146   0.56604   0.65685   0.00000  Uiso   1.00
C103   C     0.28523   0.49659   0.62455   0.00000  Uiso   1.00
C104   C     0.25761   0.46080   0.54868   0.00000  Uiso   1.00
C105   C     0.22043   0.38002   0.42780   0.00000  Uiso   1.00
C106   C     0.25259   0.67478   0.66149   0.00000  Uiso   1.00
C107   C     0.33108   0.72848   0.71813   0.00000  Uiso   1.00
C108   C     0.37067   0.80201   0.72914   0.00000  Uiso   1.00
C109   C     0.44171   0.84189   0.78371   0.00000  Uiso   1.00
C110   C     0.21372   0.65623   0.70447   0.00000  Uiso   1.00
C111   C     0.15463   0.66901   0.70398   0.00000  Uiso   1.00
C112   C     0.12686   0.64807   0.74704   0.00000  Uiso   1.00
C113   C     0.25117   0.59859   0.61485   0.00000  Uiso   1.00
C114   C     0.22353   0.56289   0.53901   0.00000  Uiso   1.00
C115   C     0.22727   0.49340   0.50661   0.00000  Uiso   1.00
H116   H     0.33193   0.58953   0.77150   0.00000  Uiso   1.00
H117   H     0.45579   0.71052   0.84718   0.00000  Uiso   1.00
H118   H     0.23977   0.57753   0.82201   0.00000  Uiso   1.00
H119   H     0.30867   0.47143   0.65707   0.00000  Uiso   1.00
H120   H     0.57974   0.85901   0.91257   0.00000  Uiso   1.00
H121   H     0.12424   0.57858   0.85949   0.00000  Uiso   1.00
H122   H     0.26953   0.35483   0.51168   0.00000  Uiso   1.00
H123   H     0.22900   0.70012   0.62880   0.00000  Uiso   1.00
H124   H     0.34722   0.82718   0.69664   0.00000  Uiso   1.00
H125   H     0.13120   0.69419   0.67148   0.00000  Uiso   1.00
H126   H     0.20010   0.58809   0.50653   0.00000  Uiso   1.00
H127   H     0.49161   0.95370   0.79040   0.00000  Uiso   1.00
H128   H     0.03612   0.67326   0.73731   0.00000  Uiso   1.00
H129   H     0.18140   0.44952   0.38950   0.00000  Uiso   1.00
O130   O     0.61529   0.98796   0.89871   0.00000  Uiso   1.00
O131   O     0.01769   0.62002   0.82906   0.00000  Uiso   1.00
O132   O     0.20830   0.32648   0.37273   0.00000  Uiso   1.00
N133   N     0.54278   0.86386   0.87450   0.00000  Uiso   1.00
N134   N     0.11693   0.60167   0.82488   0.00000  Uiso   1.00
N135   N     0.25274   0.39248   0.49970   0.00000  Uiso   1.00
N136   N     0.49536   0.91481   0.80875   0.00000  Uiso   1.00
N137   N     0.06951   0.65262   0.75914   0.00000  Uiso   1.00
N138   N     0.20532   0.44343   0.43396   0.00000  Uiso   1.00
C139   C     0.06672   0.09389   0.84128   0.00000  Uiso   1.00
C140   C     0.10903   0.18224   0.88642   0.00000  Uiso   1.00
C141   C     0.14988   0.22358   0.96232   0.00000  Uiso   1.00
C142   C     0.18452   0.30414   0.99321   0.00000  Uiso   1.00
C143   C     0.25117   0.43557   0.06992   0.00000  Uiso   1.00
C144   C     0.09422   0.06923   0.78579   0.00000  Uiso   1.00
C145   C     0.12260   0.01553   0.77708   0.00000  Uiso   1.00
C146   C     0.14476   0.00094   0.72325   0.00000  Uiso   1.00
C147   C     0.18836   0.95687   0.64369   0.00000  Uiso   1.00
C148   C     0.98930   0.07788   0.79672   0.00000  Uiso   1.00
C149   C     0.92946   0.03143   0.79718   0.00000  Uiso   1.00
C150   C     0.86329   0.02411   0.75254   0.00000  Uiso   1.00
C151   C     0.74399   0.99348   0.68995   0.00000  Uiso   1.00
C152   C     0.05561   0.16345   0.76115   0.00000  Uiso   1.00
C153   C     0.10299   0.22002   0.84289   0.00000  Uiso   1.00
C154   C     0.13758   0.30054   0.87367   0.00000  Uiso   1.00
C155   C     0.17847   0.34199   0.94961   0.00000  Uiso   1.00
C156   C     0.08818   0.10701   0.74227   0.00000  Uiso   1.00
C157   C     0.11030   0.09249   0.68843   0.00000  Uiso   1.00
C158   C     0.13872   0.03879   0.67965   0.00000  Uiso   1.00
C159   C     0.98326   0.11566   0.75320   0.00000  Uiso   1.00
C160   C     0.91717   0.10840   0.70853   0.00000  Uiso   1.00
C161   C     0.85724   0.06196   0.70893   0.00000  Uiso   1.00
H162   H     0.07142   0.06447   0.87516   0.00000  Uiso   1.00
H163   H     0.15454   0.19432   0.99599   0.00000  Uiso   1.00
H164   H     0.12726   0.98629   0.81077   0.00000  Uiso   1.00
H165   H     0.93415   0.00220   0.83087   0.00000  Uiso   1.00
H166   H     0.24406   0.35493   0.11075   0.00000  Uiso   1.00
H167   H     0.18650   0.91629   0.72019   0.00000  Uiso   1.00
H168   H     0.77931   0.94983   0.76258   0.00000  Uiso   1.00
H169   H     0.05091   0.19287   0.72726   0.00000  Uiso   1.00
H170   H     0.13290   0.32976   0.83998   0.00000  Uiso   1.00
H171   H     0.10562   0.12174   0.65476   0.00000  Uiso   1.00
H172   H     0.91252   0.13765   0.67486   0.00000  Uiso   1.00
H173   H     0.22650   0.46487   0.98412   0.00000  Uiso   1.00
H174   H     0.16894   0.02621   0.59356   0.00000  Uiso   1.00
H175   H     0.76175   0.05976   0.63595   0.00000  Uiso   1.00
O176   O     0.28961   0.49763   0.12425   0.00000  Uiso   1.00
O177   O     0.21408   0.92213   0.61184   0.00000  Uiso   1.00
O178   O     0.67986   0.96615   0.66746   0.00000  Uiso   1.00
N179   N     0.22866   0.36202   0.06548   0.00000  Uiso   1.00
N180   N     0.17486   0.95192   0.70034   0.00000  Uiso   1.00
N181   N     0.79416   0.98326   0.73995   0.00000  Uiso   1.00
N182   N     0.21921   0.42117   0.99735   0.00000  Uiso   1.00
N183   N     0.16541   0.01107   0.63220   0.00000  Uiso   1.00
N184   N     0.78471   0.04242   0.67182   0.00000  Uiso   1.00
C185   C     0.16911   0.82354   0.24355   0.00000  Uiso   1.00
C186   C     0.24337   0.87516   0.25810   0.00000  Uiso   1.00
C187   C     0.28430   0.95339   0.30923   0.00000  Uiso   1.00
C188   C     0.35086   0.99032   0.31420   0.00000  Uiso   1.00
C189   C     0.46243   0.07655   0.34361   0.00000  Uiso   1.00
C190   C     0.17523   0.75465   0.25447   0.00000  Uiso   1.00
C191   C     0.15885   0.73155   0.30254   0.00000  Uiso   1.00
C192   C     0.16804   0.66703   0.30445   0.00000  Uiso   1.00
C193   C     0.17377   0.56612   0.32818   0.00000  Uiso   1.00
C194   C     0.11986   0.79042   0.16182   0.00000  Uiso   1.00
C195   C     0.05691   0.79736   0.13198   0.00000  Uiso   1.00
C196   C     0.01947   0.76293   0.05588   0.00000  Uiso   1.00
C197   C     0.93923   0.71756   0.93576   0.00000  Uiso   1.00
C198   C     0.21453   0.75003   0.16147   0.00000  Uiso   1.00
C199   C     0.26804   0.83523   0.21352   0.00000  Uiso   1.00
C200   C     0.33456   0.87206   0.21842   0.00000  Uiso   1.00
C201   C     0.37558   0.95032   0.26954   0.00000  Uiso   1.00
C202   C     0.19990   0.71472   0.20989   0.00000  Uiso   1.00
C203   C     0.20911   0.65022   0.21173   0.00000  Uiso   1.00
C204   C     0.19276   0.62702   0.25978   0.00000  Uiso   1.00
C205   C     0.14453   0.75049   0.11724   0.00000  Uiso   1.00
C206   C     0.10718   0.71604   0.04117   0.00000  Uiso   1.00
C207   C     0.04419   0.72293   0.01122   0.00000  Uiso   1.00
H208   H     0.14990   0.85462   0.27826   0.00000  Uiso   1.00
H209   H     0.26519   0.98427   0.34372   0.00000  Uiso   1.00
H210   H     0.13976   0.76246   0.33702   0.00000  Uiso   1.00
H211   H     0.03784   0.82827   0.16650   0.00000  Uiso   1.00
H212   H     0.40390   0.11039   0.39666   0.00000  Uiso   1.00
H213   H     0.13940   0.64267   0.38252   0.00000  Uiso   1.00
H214   H     0.92447   0.78144   0.02293   0.00000  Uiso   1.00
H215   H     0.23374   0.71894   0.12676   0.00000  Uiso   1.00
H216   H     0.35364   0.84114   0.18391   0.00000  Uiso   1.00
H217   H     0.22820   0.61933   0.17722   0.00000  Uiso   1.00
H218   H     0.12628   0.68514   0.00669   0.00000  Uiso   1.00
H219   H     0.47569   0.99422   0.26696   0.00000  Uiso   1.00
H220   H     0.21118   0.52650   0.25282   0.00000  Uiso   1.00
H221   H     0.99626   0.66528   0.89323   0.00000  Uiso   1.00
O222   O     0.51716   0.13514   0.37216   0.00000  Uiso   1.00
O223   O     0.17012   0.52150   0.35360   0.00000  Uiso   1.00
O224   O     0.88816   0.70357   0.88182   0.00000  Uiso   1.00
N225   N     0.40434   0.06628   0.35828   0.00000  Uiso   1.00
N226   N     0.15705   0.62900   0.34507   0.00000  Uiso   1.00
N227   N     0.95611   0.75872   0.00888   0.00000  Uiso   1.00
N228   N     0.44297   0.00377   0.28849   0.00000  Uiso   1.00
N229   N     0.19568   0.56649   0.27528   0.00000  Uiso   1.00
N230   N     0.99474   0.69622   0.93909   0.00000  Uiso   1.00
C231   C     0.85336   0.94131   0.13929   0.00000  Uiso   1.00
C232   C     0.91388   0.99703   0.21730   0.00000  Uiso   1.00
C233   C     0.98342   0.04505   0.23618   0.00000  Uiso   1.00
C234   C     0.03086   0.09174   0.31062   0.00000  Uiso   1.00
C235   C     0.12807   0.17849   0.42360   0.00000  Uiso   1.00
C236   C     0.79180   0.96419   0.13291   0.00000  Uiso   1.00
C237   C     0.75871   0.98460   0.08082   0.00000  Uiso   1.00
C238   C     0.70338   0.00364   0.08420   0.00000  Uiso   1.00
C239   C     0.61104   0.03935   0.06613   0.00000  Uiso   1.00
C240   C     0.82740   0.86104   0.13524   0.00000  Uiso   1.00
C241   C     0.82421   0.79469   0.08510   0.00000  Uiso   1.00
C242   C     0.79883   0.72688   0.09045   0.00000  Uiso   1.00
C243   C     0.76174   0.60243   0.07600   0.00000  Uiso   1.00
C244   C     0.81395   0.93885   0.23792   0.00000  Uiso   1.00
C245   C     0.89246   0.99569   0.27087   0.00000  Uiso   1.00
C246   C     0.93981   0.04232   0.34530   0.00000  Uiso   1.00
C247   C     0.00942   0.09040   0.36429   0.00000  Uiso   1.00
C248   C     0.77039   0.96286   0.18647   0.00000  Uiso   1.00
C249   C     0.71510   0.98187   0.18994   0.00000  Uiso   1.00
C250   C     0.68193   0.00230   0.13787   0.00000  Uiso   1.00
C251   C     0.80599   0.85970   0.18881   0.00000  Uiso   1.00
C252   C     0.78060   0.79197   0.19423   0.00000  Uiso   1.00
C253   C     0.77738   0.72554   0.14412   0.00000  Uiso   1.00
H254   H     0.87003   0.94236   0.09758   0.00000  Uiso   1.00
H255   H     0.99997   0.04607   0.19470   0.00000  Uiso   1.00
H256   H     0.77528   0.98562   0.03936   0.00000  Uiso   1.00
H257   H     0.84078   0.79575   0.04366   0.00000  Uiso   1.00
H258   H     0.13458   0.16049   0.32601   0.00000  Uiso   1.00
H259   H     0.66081   0.03300   0.99845   0.00000  Uiso   1.00
H260   H     0.79891   0.63262   0.00750   0.00000  Uiso   1.00
H261   H     0.79728   0.93781   0.27962   0.00000  Uiso   1.00
H262   H     0.92323   0.04128   0.38674   0.00000  Uiso   1.00
H263   H     0.69855   0.98083   0.23140   0.00000  Uiso   1.00
H264   H     0.76404   0.79096   0.23569   0.00000  Uiso   1.00
H265   H     0.07230   0.15660   0.48188   0.00000  Uiso   1.00
H266   H     0.59852   0.02911   0.15431   0.00000  Uiso   1.00
H267   H     0.73663   0.62873   0.16337   0.00000  Uiso   1.00
O268   O     0.18760   0.22671   0.47113   0.00000  Uiso   1.00
O269   O     0.56602   0.05943   0.04136   0.00000  Uiso   1.00
O270   O     0.74721   0.53415   0.05324   0.00000  Uiso   1.00
N271   N     0.10264   0.14536   0.34800   0.00000  Uiso   1.00
N272   N     0.65970   0.02618   0.04175   0.00000  Uiso   1.00
N273   N     0.78879   0.65186   0.05020   0.00000  Uiso   1.00
N274   N     0.06913   0.14327   0.43187   0.00000  Uiso   1.00
N275   N     0.62618   0.02408   0.12562   0.00000  Uiso   1.00
N276   N     0.75528   0.64976   0.13407   0.00000  Uiso   1.00
C277   C     0.41548   0.68868   0.52534   0.00000  Uiso   1.00
C278   C     0.39208   0.62319   0.45025   0.00000  Uiso   1.00
C279   C     0.34268   0.54643   0.42008   0.00000  Uiso   1.00
C280   C     0.32854   0.49537   0.35068   0.00000  Uiso   1.00
C281   C     0.28700   0.38991   0.23983   0.00000  Uiso   1.00
C282   C     0.40028   0.75267   0.51122   0.00000  Uiso   1.00
C283   C     0.35779   0.78480   0.53232   0.00000  Uiso   1.00
C284   C     0.35057   0.84274   0.51425   0.00000  Uiso   1.00
C285   C     0.32181   0.93835   0.49810   0.00000  Uiso   1.00
C286   C     0.49706   0.72156   0.56685   0.00000  Uiso   1.00
C287   C     0.53594   0.72754   0.63473   0.00000  Uiso   1.00
C288   C     0.61021   0.75931   0.66351   0.00000  Uiso   1.00
C289   C     0.73171   0.80660   0.73373   0.00000  Uiso   1.00
C290   C     0.47822   0.73448   0.45575   0.00000  Uiso   1.00
C291   C     0.42616   0.64807   0.41246   0.00000  Uiso   1.00
C292   C     0.41210   0.59711   0.34309   0.00000  Uiso   1.00
C293   C     0.36269   0.52029   0.31282   0.00000  Uiso   1.00
C294   C     0.43436   0.77756   0.47343   0.00000  Uiso   1.00
C295   C     0.42721   0.83547   0.45533   0.00000  Uiso   1.00
C296   C     0.38471   0.86767   0.47639   0.00000  Uiso   1.00
C297   C     0.53114   0.74644   0.52905   0.00000  Uiso   1.00
C298   C     0.60536   0.77821   0.55774   0.00000  Uiso   1.00
C299   C     0.64435   0.78423   0.62564   0.00000  Uiso   1.00
H300   H     0.38894   0.66931   0.55476   0.00000  Uiso   1.00
H301   H     0.31631   0.52720   0.44935   0.00000  Uiso   1.00
H302   H     0.33143   0.76553   0.56157   0.00000  Uiso   1.00
H303   H     0.50955   0.70828   0.66396   0.00000  Uiso   1.00
H304   H     0.25079   0.38063   0.31579   0.00000  Uiso   1.00
H305   H     0.28268   0.88318   0.55245   0.00000  Uiso   1.00
H306   H     0.65830   0.76245   0.76836   0.00000  Uiso   1.00
H307   H     0.50476   0.75386   0.42633   0.00000  Uiso   1.00
H308   H     0.43848   0.61638   0.31386   0.00000  Uiso   1.00
H309   H     0.45359   0.85471   0.42608   0.00000  Uiso   1.00
H310   H     0.63172   0.79746   0.52847   0.00000  Uiso   1.00
H311   H     0.34995   0.45301   0.20582   0.00000  Uiso   1.00
H312   H     0.38184   0.95557   0.44248   0.00000  Uiso   1.00
H313   H     0.75745   0.83483   0.65839   0.00000  Uiso   1.00
O314   O     0.25466   0.32487   0.18913   0.00000  Uiso   1.00
O315   O     0.29652   0.98420   0.49963   0.00000  Uiso   1.00
O316   O     0.78931   0.82581   0.78289   0.00000  Uiso   1.00
N317   N     0.28324   0.41653   0.30535   0.00000  Uiso   1.00
N318   N     0.31304   0.88637   0.52660   0.00000  Uiso   1.00
N319   N     0.66421   0.77352   0.72847   0.00000  Uiso   1.00
N320   N     0.33659   0.45547   0.24618   0.00000  Uiso   1.00
N321   N     0.36640   0.92532   0.46743   0.00000  Uiso   1.00
N322   N     0.71757   0.81247   0.66930   0.00000  Uiso   1.00
C323   C     0.44991   0.41171   0.79556   0.00000  Uiso   1.00
C324   C     0.36839   0.38082   0.76181   0.00000  Uiso   1.00
C325   C     0.32051   0.33866   0.68725   0.00000  Uiso   1.00
C326   C     0.24801   0.31567   0.66749   0.00000  Uiso   1.00
C327   C     0.12504   0.26485   0.60704   0.00000  Uiso   1.00
C328   C     0.47086   0.37841   0.84819   0.00000  Uiso   1.00
C329   C     0.50914   0.33424   0.84626   0.00000  Uiso   1.00
C330   C     0.52291   0.30924   0.89924   0.00000  Uiso   1.00
C331   C     0.55907   0.25473   0.97292   0.00000  Uiso   1.00
C332   C     0.48059   0.49930   0.84349   0.00000  Uiso   1.00
C333   C     0.52706   0.55677   0.83763   0.00000  Uiso   1.00
C334   C     0.54903   0.63355   0.88666   0.00000  Uiso   1.00
C335   C     0.60029   0.76674   0.95305   0.00000  Uiso   1.00
C336   C     0.40631   0.44588   0.89307   0.00000  Uiso   1.00
C337   C     0.34471   0.39938   0.81477   0.00000  Uiso   1.00
C338   C     0.27227   0.37646   0.79513   0.00000  Uiso   1.00
C339   C     0.22428   0.33427   0.72055   0.00000  Uiso   1.00
C340   C     0.44718   0.39697   0.90115   0.00000  Uiso   1.00
C341   C     0.46090   0.37204   0.95415   0.00000  Uiso   1.00
C342   C     0.49918   0.32783   0.95230   0.00000  Uiso   1.00
C343   C     0.45690   0.51786   0.89646   0.00000  Uiso   1.00
C344   C     0.47882   0.59457   0.94551   0.00000  Uiso   1.00
C345   C     0.52531   0.65214   0.93972   0.00000  Uiso   1.00
H346   H     0.46835   0.39726   0.75432   0.00000  Uiso   1.00
H347   H     0.33885   0.32430   0.64627   0.00000  Uiso   1.00
H348   H     0.52746   0.31989   0.80527   0.00000  Uiso   1.00
H349   H     0.54537   0.54239   0.79664   0.00000  Uiso   1.00
H350   H     0.18484   0.25157   0.54984   0.00000  Uiso   1.00
H351   H     0.58256   0.24230   0.88511   0.00000  Uiso   1.00
H352   H     0.62033   0.71147   0.86690   0.00000  Uiso   1.00
H353   H     0.38787   0.46032   0.93431   0.00000  Uiso   1.00
H354   H     0.25396   0.39082   0.83613   0.00000  Uiso   1.00
H355   H     0.44257   0.38641   0.99513   0.00000  Uiso   1.00
H356   H     0.46048   0.60891   0.98649   0.00000  Uiso   1.00
H357   H     0.11594   0.30556   0.70393   0.00000  Uiso   1.00
H358   H     0.51366   0.29629   0.03921   0.00000  Uiso   1.00
H359   H     0.55143   0.76546   0.02099   0.00000  Uiso   1.00
O360   O     0.06375   0.23168   0.55906   0.00000  Uiso   1.00
O361   O     0.58555   0.21953   0.99893   0.00000  Uiso   1.00
O362   O     0.63510   0.83508   0.97503   0.00000  Uiso   1.00
N363   N     0.18700   0.27383   0.59958   0.00000  Uiso   1.00
N364   N     0.55884   0.26515   0.91303   0.00000  Uiso   1.00
N365   N     0.59416   0.70379   0.89602   0.00000  Uiso   1.00
N366   N     0.14993   0.30288   0.68249   0.00000  Uiso   1.00
N367   N     0.52176   0.29420   0.99595   0.00000  Uiso   1.00
N368   N     0.55709   0.73284   0.97893   0.00000  Uiso   1.00
C369   C     0.73655   0.24667   0.36429   0.00000  Uiso   1.00
C370   C     0.69585   0.16211   0.34528   0.00000  Uiso   1.00
C371   C     0.62903   0.10918   0.28550   0.00000  Uiso   1.00
C372   C     0.60089   0.03457   0.27769   0.00000  Uiso   1.00
C373   C     0.53203   0.90642   0.24051   0.00000  Uiso   1.00
C374   C     0.80951   0.25583   0.36851   0.00000  Uiso   1.00
C375   C     0.83825   0.28171   0.32827   0.00000  Uiso   1.00
C376   C     0.90579   0.28601   0.34003   0.00000  Uiso   1.00
C377   C     0.01340   0.30341   0.33895   0.00000  Uiso   1.00
C378   C     0.75146   0.29578   0.44243   0.00000  Uiso   1.00
C379   C     0.73142   0.35527   0.46436   0.00000  Uiso   1.00
C380   C     0.75011   0.39322   0.53837   0.00000  Uiso   1.00
C381   C     0.76760   0.47265   0.65207   0.00000  Uiso   1.00
C382   C     0.80539   0.20828   0.45674   0.00000  Uiso   1.00
C383   C     0.73325   0.14125   0.39549   0.00000  Uiso   1.00
C384   C     0.70520   0.06670   0.38778   0.00000  Uiso   1.00
C385   C     0.63835   0.01368   0.32799   0.00000  Uiso   1.00
C386   C     0.84690   0.23497   0.41872   0.00000  Uiso   1.00
C387   C     0.91442   0.23923   0.43055   0.00000  Uiso   1.00
C388   C     0.94325   0.26512   0.39033   0.00000  Uiso   1.00
C389   C     0.78886   0.27492   0.49265   0.00000  Uiso   1.00
C390   C     0.80759   0.31279   0.56664   0.00000  Uiso   1.00
C391   C     0.78757   0.37233   0.58867   0.00000  Uiso   1.00
H392   H     0.70744   0.26291   0.32520   0.00000  Uiso   1.00
H393   H     0.60011   0.12534   0.24664   0.00000  Uiso   1.00
H394   H     0.80930   0.29786   0.28942   0.00000  Uiso   1.00
H395   H     0.70248   0.37140   0.42549   0.00000  Uiso   1.00
H396   H     0.49762   0.96362   0.18168   0.00000  Uiso   1.00
H397   H     0.93872   0.32739   0.27189   0.00000  Uiso   1.00
H398   H     0.71348   0.48247   0.55882   0.00000  Uiso   1.00
H399   H     0.83451   0.19204   0.49583   0.00000  Uiso   1.00
H400   H     0.73415   0.05058   0.42664   0.00000  Uiso   1.00
H401   H     0.94334   0.22309   0.46941   0.00000  Uiso   1.00
H402   H     0.83652   0.29664   0.60548   0.00000  Uiso   1.00
H403   H     0.60641   0.90294   0.32777   0.00000  Uiso   1.00
H404   H     0.04752   0.26672   0.41798   0.00000  Uiso   1.00
H405   H     0.82227   0.42179   0.70491   0.00000  Uiso   1.00
O406   O     0.48372   0.84149   0.20612   0.00000  Uiso   1.00
O407   O     0.06243   0.31877   0.32448   0.00000  Uiso   1.00
O408   O     0.76691   0.52222   0.70092   0.00000  Uiso   1.00
N409   N     0.53699   0.96876   0.22557   0.00000  Uiso   1.00
N410   N     0.94939   0.30885   0.30990   0.00000  Uiso   1.00
N411   N     0.73882   0.45385   0.57815   0.00000  Uiso   1.00
N412   N     0.59553   0.93611   0.30418   0.00000  Uiso   1.00
N413   N     0.00793   0.27620   0.38851   0.00000  Uiso   1.00
N414   N     0.79736   0.42120   0.65676   0.00000  Uiso   1.00
C415   C     0.91826   0.75361   0.33559   0.00000  Uiso   1.00
C416   C     0.93301   0.68273   0.32749   0.00000  Uiso   1.00
C417   C     0.89378   0.60970   0.26629   0.00000  Uiso   1.00
C418   C     0.91587   0.55255   0.26968   0.00000  Uiso   1.00
C419   C     0.92975   0.44014   0.24764   0.00000  Uiso   1.00
C420   C     0.90874   0.77953   0.40455   0.00000  Uiso   1.00
C421   C     0.84911   0.78790   0.40814   0.00000  Uiso   1.00
C422   C     0.85078   0.81225   0.47640   0.00000  Uiso   1.00
C423   C     0.82700   0.85019   0.57400   0.00000  Uiso   1.00
C424   C     0.98771   0.81799   0.35343   0.00000  Uiso   1.00
C425   C     0.99448   0.85871   0.31404   0.00000  Uiso   1.00
C426   C     0.06263   0.91545   0.33927   0.00000  Uiso   1.00
C427   C     0.16146   0.01310   0.35749   0.00000  Uiso   1.00
C428   C     0.02725   0.78197   0.45044   0.00000  Uiso   1.00
C429   C     0.99221   0.69814   0.38988   0.00000  Uiso   1.00
C430   C     0.01437   0.64108   0.39336   0.00000  Uiso   1.00
C431   C     0.97518   0.56798   0.33217   0.00000  Uiso   1.00
C432   C     0.96794   0.79494   0.46693   0.00000  Uiso   1.00
C433   C     0.96970   0.81929   0.53521   0.00000  Uiso   1.00
C434   C     0.91009   0.82768   0.53889   0.00000  Uiso   1.00
C435   C     0.04691   0.83340   0.41581   0.00000  Uiso   1.00
C436   C     0.11506   0.89009   0.44110   0.00000  Uiso   1.00
C437   C     0.12193   0.93089   0.40176   0.00000  Uiso   1.00
H438   H     0.87217   0.74161   0.28702   0.00000  Uiso   1.00
H439   H     0.84797   0.59780   0.21803   0.00000  Uiso   1.00
H440   H     0.80331   0.77598   0.35985   0.00000  Uiso   1.00
H441   H     0.94865   0.84678   0.26577   0.00000  Uiso   1.00
H442   H     0.84723   0.44514   0.16906   0.00000  Uiso   1.00
H443   H     0.75308   0.82088   0.46811   0.00000  Uiso   1.00
H444   H     0.05956   0.97016   0.26971   0.00000  Uiso   1.00
H445   H     0.07334   0.79397   0.49901   0.00000  Uiso   1.00
H446   H     0.06019   0.65302   0.44164   0.00000  Uiso   1.00
H447   H     0.01552   0.83121   0.58347   0.00000  Uiso   1.00
H448   H     0.16086   0.90200   0.48938   0.00000  Uiso   1.00
H449   H     0.01947   0.48996   0.35055   0.00000  Uiso   1.00
H450   H     0.92531   0.86570   0.64960   0.00000  Uiso   1.00
H451   H     0.23179   0.01498   0.45120   0.00000  Uiso   1.00
O452   O     0.92105   0.37388   0.21825   0.00000  Uiso   1.00
O453   O     0.79753   0.86685   0.61060   0.00000  Uiso   1.00
O454   O     0.19962   0.06270   0.35030   0.00000  Uiso   1.00
N455   N     0.88958   0.47504   0.21964   0.00000  Uiso   1.00
N456   N     0.80155   0.82631   0.49923   0.00000  Uiso   1.00
N457   N     0.08808   0.96590   0.31375   0.00000  Uiso   1.00
N458   N     0.98226   0.49915   0.31730   0.00000  Uiso   1.00
N459   N     0.89423   0.85043   0.59689   0.00000  Uiso   1.00
N460   N     0.18076   0.99001   0.41141   0.00000  Uiso   1.00
C461   C     0.93389   0.21015   0.94390   0.00000  Uiso   1.00
C462   C     0.85922   0.19736   0.93621   0.00000  Uiso   1.00
C463   C     0.79466   0.13783   0.87707   0.00000  Uiso   1.00
C464   C     0.73214   0.13621   0.88047   0.00000  Uiso   1.00
C465   C     0.61589   0.10786   0.85932   0.00000  Uiso   1.00
C466   C     0.96992   0.29283   0.95584   0.00000  Uiso   1.00
C467   C     0.99843   0.31357   0.91321   0.00000  Uiso   1.00
C468   C     0.02910   0.39232   0.93314   0.00000  Uiso   1.00
C469   C     0.08475   0.51220   0.94250   0.00000  Uiso   1.00
C470   C     0.97511   0.21084   0.01585   0.00000  Uiso   1.00
C471   C     0.00801   0.16266   0.02368   0.00000  Uiso   1.00
C472   C     0.04306   0.17239   0.09414   0.00000  Uiso   1.00
C473   C     0.10678   0.16497   0.19667   0.00000  Uiso   1.00
C474   C     0.93767   0.31312   0.05510   0.00000  Uiso   1.00
C475   C     0.86128   0.25329   0.99661   0.00000  Uiso   1.00
C476   C     0.79884   0.25176   0.00010   0.00000  Uiso   1.00
C477   C     0.73419   0.19224   0.94098   0.00000  Uiso   1.00
C478   C     0.97197   0.34876   0.01624   0.00000  Uiso   1.00
C479   C     0.00261   0.42750   0.03624   0.00000  Uiso   1.00
C480   C     0.03115   0.44836   0.99365   0.00000  Uiso   1.00
C481   C     0.97716   0.26677   0.07625   0.00000  Uiso   1.00
C482   C     0.01219   0.27659   0.14671   0.00000  Uiso   1.00
C483   C     0.04512   0.22843   0.15465   0.00000  Uiso   1.00
H484   H     0.93229   0.16661   0.89688   0.00000  Uiso   1.00
H485   H     0.79309   0.09456   0.83033   0.00000  Uiso   1.00
H486   H     0.99683   0.27027   0.86647   0.00000  Uiso   1.00
H487   H     0.00641   0.11938   0.97693   0.00000  Uiso   1.00
H488   H     0.63966   0.03936   0.78319   0.00000  Uiso   1.00
H489   H     0.06929   0.40987   0.85940   0.00000  Uiso   1.00
H490   H     0.08948   0.09169   0.09231   0.00000  Uiso   1.00
H491   H     0.93927   0.35667   0.10213   0.00000  Uiso   1.00
H492   H     0.80045   0.29505   0.04685   0.00000  Uiso   1.00
H493   H     0.00419   0.47077   0.08299   0.00000  Uiso   1.00
H494   H     0.01376   0.31988   0.19344   0.00000  Uiso   1.00
H495   H     0.64564   0.20209   0.95892   0.00000  Uiso   1.00
H496   H     0.07527   0.57260   0.03513   0.00000  Uiso   1.00
H497   H     0.09545   0.25442   0.26804   0.00000  Uiso   1.00
O498   O     0.55120   0.07678   0.83097   0.00000  Uiso   1.00
O499   O     0.11487   0.56286   0.93097   0.00000  Uiso   1.00
O500   O     0.14135   0.14542   0.23654   0.00000  Uiso   1.00
N501   N     0.66012   0.08611   0.83214   0.00000  Uiso   1.00
N502   N     0.06179   0.43251   0.90339   0.00000  Uiso   1.00
N503   N     0.08068   0.13505   0.12114   0.00000  Uiso   1.00
N504   N     0.66334   0.17367   0.92670   0.00000  Uiso   1.00
N505   N     0.06500   0.52007   0.99795   0.00000  Uiso   1.00
N506   N     0.08389   0.22261   0.21570   0.00000  Uiso   1.00
C507   C     0.21537   0.93091   0.99438   0.00000  Uiso   1.00
C508   C     0.14984   0.88245   0.91861   0.00000  Uiso   1.00
C509   C     0.08020   0.84045   0.90407   0.00000  Uiso   1.00
C510   C     0.02776   0.79987   0.83106   0.00000  Uiso   1.00
C511   C     0.92348   0.72436   0.72197   0.00000  Uiso   1.00
C512   C     0.27008   0.89920   0.99015   0.00000  Uiso   1.00
C513   C     0.30154   0.87131   0.03578   0.00000  Uiso   1.00
C514   C     0.35033   0.84484   0.02299   0.00000  Uiso   1.00
C515   C     0.43276   0.79540   0.02501   0.00000  Uiso   1.00
C516   C     0.24724   0.01287   0.00325   0.00000  Uiso   1.00
C517   C     0.25951   0.08056   0.05989   0.00000  Uiso   1.00
C518   C     0.28908   0.14979   0.05814   0.00000  Uiso   1.00
C519   C     0.33604   0.27684   0.08049   0.00000  Uiso   1.00
C520   C     0.24608   0.93352   0.89056   0.00000  Uiso   1.00
C521   C     0.16653   0.88386   0.86222   0.00000  Uiso   1.00
C522   C     0.11418   0.84333   0.78920   0.00000  Uiso   1.00
C523   C     0.04447   0.80129   0.77456   0.00000  Uiso   1.00
C524   C     0.28676   0.90061   0.93376   0.00000  Uiso   1.00
C525   C     0.33552   0.87419   0.92091   0.00000  Uiso   1.00
C526   C     0.36704   0.84625   0.96650   0.00000  Uiso   1.00
C527   C     0.26392   0.01429   0.94685   0.00000  Uiso   1.00
C528   C     0.29348   0.08343   0.94502   0.00000  Uiso   1.00
C529   C     0.30579   0.15121   0.00165   0.00000  Uiso   1.00
H530   H     0.20239   0.92981   0.03829   0.00000  Uiso   1.00
H531   H     0.06731   0.83937   0.94773   0.00000  Uiso   1.00
H532   H     0.28863   0.87023   0.07942   0.00000  Uiso   1.00
H533   H     0.24659   0.07944   0.10352   0.00000  Uiso   1.00
H534   H     0.92492   0.73969   0.82245   0.00000  Uiso   1.00
H535   H     0.39159   0.80479   0.10014   0.00000  Uiso   1.00
H536   H     0.30296   0.24596   0.15097   0.00000  Uiso   1.00
H537   H     0.25907   0.93462   0.84666   0.00000  Uiso   1.00
H538   H     0.12710   0.84444   0.74557   0.00000  Uiso   1.00
H539   H     0.34842   0.87529   0.87727   0.00000  Uiso   1.00
H540   H     0.30638   0.08450   0.90137   0.00000  Uiso   1.00
H541   H     0.97345   0.74380   0.65838   0.00000  Uiso   1.00
H542   H     0.44012   0.80890   0.93607   0.00000  Uiso   1.00
H543   H     0.35149   0.25007   0.98690   0.00000  Uiso   1.00
O544   O     0.86136   0.68232   0.67738   0.00000  Uiso   1.00
O545   O     0.47362   0.76773   0.04170   0.00000  Uiso   1.00
O546   O     0.35733   0.34653   0.10839   0.00000  Uiso   1.00
N547   N     0.95445   0.75305   0.79771   0.00000  Uiso   1.00
N548   N     0.39075   0.81390   0.05733   0.00000  Uiso   1.00
N549   N     0.30790   0.22636   0.10486   0.00000  Uiso   1.00
N550   N     0.98056   0.75526   0.70942   0.00000  Uiso   1.00
N551   N     0.41686   0.81611   0.96904   0.00000  Uiso   1.00
N552   N     0.33401   0.22857   0.01657   0.00000  Uiso   1.00
