data_job_01390
_audit_creation_date              2018-12-19
_audit_creation_method            'Materials Studio'
_symmetry_space_group_name_H-M    'P1'
_symmetry_Int_Tables_number       1
_symmetry_cell_setting            triclinic
loop_
_symmetry_equiv_pos_as_xyz
  x,y,z
_cell_length_a                    39.5147
_cell_length_b                    14.9599
_cell_length_c                    9.5998
_cell_angle_alpha                 90.0000
_cell_angle_beta                  87.1974
_cell_angle_gamma                 90.0000
loop_
_atom_site_label
_atom_site_type_symbol
_atom_site_fract_x
_atom_site_fract_y
_atom_site_fract_z
_atom_site_U_iso_or_equiv
_atom_site_adp_type
_atom_site_occupancy
C1     C     0.37337   0.73349   0.16831   0.00000  Uiso   1.00
C2     C     0.36446   0.82727   0.22044   0.00000  Uiso   1.00
C3     C     0.37598   0.90661   0.16007   0.00000  Uiso   1.00
C4     C     0.36492   0.98547   0.22351   0.00000  Uiso   1.00
C5     C     0.35442   0.13117   0.28632   0.00000  Uiso   1.00
C6     C     0.38843   0.68513   0.29066   0.00000  Uiso   1.00
C7     C     0.42010   0.64495   0.28931   0.00000  Uiso   1.00
C8     C     0.42922   0.60415   0.41186   0.00000  Uiso   1.00
C9     C     0.45592   0.52912   0.58365   0.00000  Uiso   1.00
C10    C     0.33972   0.68737   0.14461   0.00000  Uiso   1.00
C11    C     0.33044   0.64903   0.02048   0.00000  Uiso   1.00
C12    C     0.29855   0.61009   0.02007   0.00000  Uiso   1.00
C13    C     0.24962   0.53853   0.96510   0.00000  Uiso   1.00
C14    C     0.33325   0.73246   0.38832   0.00000  Uiso   1.00
C15    C     0.34267   0.82671   0.33994   0.00000  Uiso   1.00
C16    C     0.33159   0.90547   0.40349   0.00000  Uiso   1.00
C17    C     0.34309   0.98491   0.34322   0.00000  Uiso   1.00
C18    C     0.36664   0.68458   0.41016   0.00000  Uiso   1.00
C19    C     0.37571   0.64382   0.53273   0.00000  Uiso   1.00
C20    C     0.40739   0.60359   0.53158   0.00000  Uiso   1.00
C21    C     0.31793   0.68681   0.26411   0.00000  Uiso   1.00
C22    C     0.28605   0.64791   0.26390   0.00000  Uiso   1.00
C23    C     0.27672   0.60953   0.13979   0.00000  Uiso   1.00
H24    H     0.39034   0.73392   0.07527   0.00000  Uiso   1.00
H25    H     0.39285   0.90701   0.06759   0.00000  Uiso   1.00
H26    H     0.43696   0.64539   0.19681   0.00000  Uiso   1.00
H27    H     0.34731   0.64948   0.92802   0.00000  Uiso   1.00
H28    H     0.38603   0.09867   0.11181   0.00000  Uiso   1.00
H29    H     0.47904   0.54699   0.38426   0.00000  Uiso   1.00
H30    H     0.29000   0.55561   0.81746   0.00000  Uiso   1.00
H31    H     0.31628   0.73203   0.48136   0.00000  Uiso   1.00
H32    H     0.31472   0.90502   0.49597   0.00000  Uiso   1.00
H33    H     0.35884   0.64339   0.62518   0.00000  Uiso   1.00
H34    H     0.26919   0.64749   0.35639   0.00000  Uiso   1.00
H35    H     0.32262   0.09705   0.45950   0.00000  Uiso   1.00
H36    H     0.41563   0.54537   0.73194   0.00000  Uiso   1.00
H37    H     0.22659   0.55400   0.16515   0.00000  Uiso   1.00
O38    O     0.35465   0.21169   0.28796   0.00000  Uiso   1.00
O39    O     0.47667   0.48790   0.64539   0.00000  Uiso   1.00
O40    O     0.22865   0.49922   0.90176   0.00000  Uiso   1.00
N41    N     0.37132   0.07455   0.19162   0.00000  Uiso   1.00
N42    N     0.45828   0.55877   0.44635   0.00000  Uiso   1.00
N43    N     0.28154   0.56682   0.91645   0.00000  Uiso   1.00
N44    N     0.33720   0.07368   0.37870   0.00000  Uiso   1.00
N45    N     0.42416   0.55790   0.63343   0.00000  Uiso   1.00
N46    N     0.24742   0.56595   0.10353   0.00000  Uiso   1.00
C47    C     0.87337   0.23349   0.16831   0.00000  Uiso   1.00
C48    C     0.86446   0.32727   0.22044   0.00000  Uiso   1.00
C49    C     0.87598   0.40661   0.16007   0.00000  Uiso   1.00
C50    C     0.86492   0.48547   0.22351   0.00000  Uiso   1.00
C51    C     0.85442   0.63117   0.28632   0.00000  Uiso   1.00
C52    C     0.88843   0.18513   0.29066   0.00000  Uiso   1.00
C53    C     0.92010   0.14495   0.28931   0.00000  Uiso   1.00
C54    C     0.92922   0.10415   0.41186   0.00000  Uiso   1.00
C55    C     0.95592   0.02912   0.58365   0.00000  Uiso   1.00
C56    C     0.83972   0.18737   0.14461   0.00000  Uiso   1.00
C57    C     0.83044   0.14903   0.02048   0.00000  Uiso   1.00
C58    C     0.79855   0.11009   0.02007   0.00000  Uiso   1.00
C59    C     0.74962   0.03853   0.96510   0.00000  Uiso   1.00
C60    C     0.83325   0.23246   0.38832   0.00000  Uiso   1.00
C61    C     0.84267   0.32671   0.33994   0.00000  Uiso   1.00
C62    C     0.83159   0.40547   0.40349   0.00000  Uiso   1.00
C63    C     0.84309   0.48491   0.34322   0.00000  Uiso   1.00
C64    C     0.86664   0.18458   0.41016   0.00000  Uiso   1.00
C65    C     0.87571   0.14382   0.53273   0.00000  Uiso   1.00
C66    C     0.90739   0.10359   0.53158   0.00000  Uiso   1.00
C67    C     0.81793   0.18681   0.26411   0.00000  Uiso   1.00
C68    C     0.78605   0.14791   0.26390   0.00000  Uiso   1.00
C69    C     0.77672   0.10953   0.13979   0.00000  Uiso   1.00
H70    H     0.89034   0.23392   0.07527   0.00000  Uiso   1.00
H71    H     0.89285   0.40701   0.06759   0.00000  Uiso   1.00
H72    H     0.93696   0.14539   0.19681   0.00000  Uiso   1.00
H73    H     0.84731   0.14948   0.92802   0.00000  Uiso   1.00
H74    H     0.88603   0.59867   0.11181   0.00000  Uiso   1.00
H75    H     0.97904   0.04699   0.38426   0.00000  Uiso   1.00
H76    H     0.79000   0.05561   0.81746   0.00000  Uiso   1.00
H77    H     0.81628   0.23203   0.48136   0.00000  Uiso   1.00
H78    H     0.81472   0.40502   0.49597   0.00000  Uiso   1.00
H79    H     0.85884   0.14339   0.62518   0.00000  Uiso   1.00
H80    H     0.76919   0.14749   0.35639   0.00000  Uiso   1.00
H81    H     0.82262   0.59705   0.45950   0.00000  Uiso   1.00
H82    H     0.91563   0.04537   0.73194   0.00000  Uiso   1.00
H83    H     0.72659   0.05400   0.16515   0.00000  Uiso   1.00
O84    O     0.85465   0.71169   0.28796   0.00000  Uiso   1.00
O85    O     0.97667   0.98790   0.64539   0.00000  Uiso   1.00
O86    O     0.72865   0.99922   0.90176   0.00000  Uiso   1.00
N87    N     0.87132   0.57455   0.19162   0.00000  Uiso   1.00
N88    N     0.95828   0.05877   0.44635   0.00000  Uiso   1.00
N89    N     0.78154   0.06682   0.91645   0.00000  Uiso   1.00
N90    N     0.83720   0.57368   0.37870   0.00000  Uiso   1.00
N91    N     0.92416   0.05790   0.63343   0.00000  Uiso   1.00
N92    N     0.74742   0.06595   0.10353   0.00000  Uiso   1.00
C93    C     0.62663   0.73349   0.33169   0.00000  Uiso   1.00
C94    C     0.63554   0.82727   0.27956   0.00000  Uiso   1.00
C95    C     0.62402   0.90661   0.33993   0.00000  Uiso   1.00
C96    C     0.63508   0.98547   0.27649   0.00000  Uiso   1.00
C97    C     0.64558   0.13117   0.21368   0.00000  Uiso   1.00
C98    C     0.61157   0.68513   0.20934   0.00000  Uiso   1.00
C99    C     0.57990   0.64495   0.21069   0.00000  Uiso   1.00
C100   C     0.57078   0.60415   0.08814   0.00000  Uiso   1.00
C101   C     0.54408   0.52912   0.91635   0.00000  Uiso   1.00
C102   C     0.66028   0.68737   0.35539   0.00000  Uiso   1.00
C103   C     0.66956   0.64903   0.47952   0.00000  Uiso   1.00
C104   C     0.70145   0.61009   0.47993   0.00000  Uiso   1.00
C105   C     0.75038   0.53853   0.53490   0.00000  Uiso   1.00
C106   C     0.66675   0.73246   0.11168   0.00000  Uiso   1.00
C107   C     0.65733   0.82671   0.16006   0.00000  Uiso   1.00
C108   C     0.66841   0.90547   0.09651   0.00000  Uiso   1.00
C109   C     0.65691   0.98491   0.15678   0.00000  Uiso   1.00
C110   C     0.63336   0.68458   0.08984   0.00000  Uiso   1.00
C111   C     0.62429   0.64382   0.96727   0.00000  Uiso   1.00
C112   C     0.59261   0.60359   0.96842   0.00000  Uiso   1.00
C113   C     0.68207   0.68681   0.23589   0.00000  Uiso   1.00
C114   C     0.71395   0.64791   0.23610   0.00000  Uiso   1.00
C115   C     0.72328   0.60953   0.36021   0.00000  Uiso   1.00
H116   H     0.60966   0.73392   0.42473   0.00000  Uiso   1.00
H117   H     0.60715   0.90701   0.43241   0.00000  Uiso   1.00
H118   H     0.56304   0.64539   0.30319   0.00000  Uiso   1.00
H119   H     0.65269   0.64948   0.57198   0.00000  Uiso   1.00
H120   H     0.61397   0.09867   0.38819   0.00000  Uiso   1.00
H121   H     0.52096   0.54699   0.11574   0.00000  Uiso   1.00
H122   H     0.71000   0.55561   0.68254   0.00000  Uiso   1.00
H123   H     0.68372   0.73203   0.01864   0.00000  Uiso   1.00
H124   H     0.68528   0.90502   0.00403   0.00000  Uiso   1.00
H125   H     0.64116   0.64339   0.87482   0.00000  Uiso   1.00
H126   H     0.73081   0.64749   0.14361   0.00000  Uiso   1.00
H127   H     0.67738   0.09705   0.04050   0.00000  Uiso   1.00
H128   H     0.58437   0.54537   0.76806   0.00000  Uiso   1.00
H129   H     0.77341   0.55400   0.33485   0.00000  Uiso   1.00
O130   O     0.64535   0.21169   0.21204   0.00000  Uiso   1.00
O131   O     0.52333   0.48790   0.85461   0.00000  Uiso   1.00
O132   O     0.77135   0.49922   0.59824   0.00000  Uiso   1.00
N133   N     0.62868   0.07455   0.30838   0.00000  Uiso   1.00
N134   N     0.54172   0.55877   0.05365   0.00000  Uiso   1.00
N135   N     0.71846   0.56682   0.58355   0.00000  Uiso   1.00
N136   N     0.66280   0.07368   0.12130   0.00000  Uiso   1.00
N137   N     0.57584   0.55790   0.86657   0.00000  Uiso   1.00
N138   N     0.75258   0.56595   0.39647   0.00000  Uiso   1.00
C139   C     0.12663   0.23349   0.33169   0.00000  Uiso   1.00
C140   C     0.13554   0.32727   0.27956   0.00000  Uiso   1.00
C141   C     0.12402   0.40661   0.33993   0.00000  Uiso   1.00
C142   C     0.13508   0.48547   0.27649   0.00000  Uiso   1.00
C143   C     0.14558   0.63117   0.21368   0.00000  Uiso   1.00
C144   C     0.11157   0.18513   0.20934   0.00000  Uiso   1.00
C145   C     0.07990   0.14495   0.21069   0.00000  Uiso   1.00
C146   C     0.07078   0.10415   0.08814   0.00000  Uiso   1.00
C147   C     0.04408   0.02912   0.91635   0.00000  Uiso   1.00
C148   C     0.16028   0.18737   0.35539   0.00000  Uiso   1.00
C149   C     0.16956   0.14903   0.47952   0.00000  Uiso   1.00
C150   C     0.20145   0.11009   0.47993   0.00000  Uiso   1.00
C151   C     0.25038   0.03853   0.53490   0.00000  Uiso   1.00
C152   C     0.16675   0.23246   0.11168   0.00000  Uiso   1.00
C153   C     0.15733   0.32671   0.16006   0.00000  Uiso   1.00
C154   C     0.16841   0.40547   0.09651   0.00000  Uiso   1.00
C155   C     0.15691   0.48491   0.15678   0.00000  Uiso   1.00
C156   C     0.13336   0.18458   0.08984   0.00000  Uiso   1.00
C157   C     0.12429   0.14382   0.96727   0.00000  Uiso   1.00
C158   C     0.09261   0.10359   0.96842   0.00000  Uiso   1.00
C159   C     0.18207   0.18681   0.23589   0.00000  Uiso   1.00
C160   C     0.21395   0.14791   0.23610   0.00000  Uiso   1.00
C161   C     0.22328   0.10953   0.36021   0.00000  Uiso   1.00
H162   H     0.10966   0.23392   0.42473   0.00000  Uiso   1.00
H163   H     0.10715   0.40701   0.43241   0.00000  Uiso   1.00
H164   H     0.06304   0.14539   0.30319   0.00000  Uiso   1.00
H165   H     0.15269   0.14948   0.57198   0.00000  Uiso   1.00
H166   H     0.11397   0.59867   0.38819   0.00000  Uiso   1.00
H167   H     0.02096   0.04699   0.11574   0.00000  Uiso   1.00
H168   H     0.21000   0.05561   0.68254   0.00000  Uiso   1.00
H169   H     0.18372   0.23203   0.01864   0.00000  Uiso   1.00
H170   H     0.18528   0.40502   0.00403   0.00000  Uiso   1.00
H171   H     0.14116   0.14339   0.87482   0.00000  Uiso   1.00
H172   H     0.23081   0.14749   0.14361   0.00000  Uiso   1.00
H173   H     0.17738   0.59705   0.04050   0.00000  Uiso   1.00
H174   H     0.08437   0.04537   0.76806   0.00000  Uiso   1.00
H175   H     0.27341   0.05400   0.33485   0.00000  Uiso   1.00
O176   O     0.14535   0.71169   0.21204   0.00000  Uiso   1.00
O177   O     0.02333   0.98790   0.85461   0.00000  Uiso   1.00
O178   O     0.27135   0.99922   0.59824   0.00000  Uiso   1.00
N179   N     0.12868   0.57455   0.30838   0.00000  Uiso   1.00
N180   N     0.04172   0.05877   0.05365   0.00000  Uiso   1.00
N181   N     0.21846   0.06682   0.58355   0.00000  Uiso   1.00
N182   N     0.16280   0.57368   0.12130   0.00000  Uiso   1.00
N183   N     0.07584   0.05790   0.86657   0.00000  Uiso   1.00
N184   N     0.25258   0.06595   0.39647   0.00000  Uiso   1.00
C185   C     0.62663   0.26651   0.83169   0.00000  Uiso   1.00
C186   C     0.63554   0.17273   0.77956   0.00000  Uiso   1.00
C187   C     0.62402   0.09339   0.83993   0.00000  Uiso   1.00
C188   C     0.63508   0.01453   0.77649   0.00000  Uiso   1.00
C189   C     0.64558   0.86883   0.71368   0.00000  Uiso   1.00
C190   C     0.61157   0.31487   0.70934   0.00000  Uiso   1.00
C191   C     0.57990   0.35505   0.71069   0.00000  Uiso   1.00
C192   C     0.57078   0.39585   0.58814   0.00000  Uiso   1.00
C193   C     0.54408   0.47088   0.41635   0.00000  Uiso   1.00
C194   C     0.66028   0.31263   0.85539   0.00000  Uiso   1.00
C195   C     0.66956   0.35097   0.97952   0.00000  Uiso   1.00
C196   C     0.70145   0.38991   0.97993   0.00000  Uiso   1.00
C197   C     0.75038   0.46147   0.03490   0.00000  Uiso   1.00
C198   C     0.66675   0.26754   0.61168   0.00000  Uiso   1.00
C199   C     0.65733   0.17329   0.66006   0.00000  Uiso   1.00
C200   C     0.66841   0.09453   0.59651   0.00000  Uiso   1.00
C201   C     0.65691   0.01509   0.65678   0.00000  Uiso   1.00
C202   C     0.63336   0.31542   0.58984   0.00000  Uiso   1.00
C203   C     0.62429   0.35618   0.46727   0.00000  Uiso   1.00
C204   C     0.59261   0.39641   0.46842   0.00000  Uiso   1.00
C205   C     0.68207   0.31319   0.73589   0.00000  Uiso   1.00
C206   C     0.71395   0.35209   0.73610   0.00000  Uiso   1.00
C207   C     0.72328   0.39047   0.86021   0.00000  Uiso   1.00
H208   H     0.60966   0.26608   0.92473   0.00000  Uiso   1.00
H209   H     0.60715   0.09299   0.93241   0.00000  Uiso   1.00
H210   H     0.56304   0.35461   0.80319   0.00000  Uiso   1.00
H211   H     0.65269   0.35052   0.07198   0.00000  Uiso   1.00
H212   H     0.61397   0.90133   0.88819   0.00000  Uiso   1.00
H213   H     0.52096   0.45301   0.61574   0.00000  Uiso   1.00
H214   H     0.71000   0.44439   0.18254   0.00000  Uiso   1.00
H215   H     0.68372   0.26797   0.51864   0.00000  Uiso   1.00
H216   H     0.68528   0.09498   0.50403   0.00000  Uiso   1.00
H217   H     0.64116   0.35661   0.37482   0.00000  Uiso   1.00
H218   H     0.73081   0.35251   0.64361   0.00000  Uiso   1.00
H219   H     0.67738   0.90295   0.54050   0.00000  Uiso   1.00
H220   H     0.58437   0.45463   0.26806   0.00000  Uiso   1.00
H221   H     0.77341   0.44600   0.83485   0.00000  Uiso   1.00
O222   O     0.64535   0.78831   0.71204   0.00000  Uiso   1.00
O223   O     0.52333   0.51210   0.35461   0.00000  Uiso   1.00
O224   O     0.77135   0.50078   0.09824   0.00000  Uiso   1.00
N225   N     0.62868   0.92545   0.80838   0.00000  Uiso   1.00
N226   N     0.54172   0.44123   0.55365   0.00000  Uiso   1.00
N227   N     0.71846   0.43318   0.08355   0.00000  Uiso   1.00
N228   N     0.66280   0.92632   0.62130   0.00000  Uiso   1.00
N229   N     0.57584   0.44210   0.36657   0.00000  Uiso   1.00
N230   N     0.75258   0.43405   0.89647   0.00000  Uiso   1.00
C231   C     0.12663   0.76651   0.83169   0.00000  Uiso   1.00
C232   C     0.13554   0.67273   0.77956   0.00000  Uiso   1.00
C233   C     0.12402   0.59339   0.83993   0.00000  Uiso   1.00
C234   C     0.13508   0.51453   0.77649   0.00000  Uiso   1.00
C235   C     0.14558   0.36883   0.71368   0.00000  Uiso   1.00
C236   C     0.11157   0.81487   0.70934   0.00000  Uiso   1.00
C237   C     0.07990   0.85505   0.71069   0.00000  Uiso   1.00
C238   C     0.07078   0.89585   0.58814   0.00000  Uiso   1.00
C239   C     0.04408   0.97088   0.41635   0.00000  Uiso   1.00
C240   C     0.16028   0.81263   0.85539   0.00000  Uiso   1.00
C241   C     0.16956   0.85097   0.97952   0.00000  Uiso   1.00
C242   C     0.20145   0.88991   0.97993   0.00000  Uiso   1.00
C243   C     0.25038   0.96147   0.03490   0.00000  Uiso   1.00
C244   C     0.16675   0.76754   0.61168   0.00000  Uiso   1.00
C245   C     0.15733   0.67329   0.66006   0.00000  Uiso   1.00
C246   C     0.16841   0.59453   0.59651   0.00000  Uiso   1.00
C247   C     0.15691   0.51509   0.65678   0.00000  Uiso   1.00
C248   C     0.13336   0.81542   0.58984   0.00000  Uiso   1.00
C249   C     0.12429   0.85618   0.46727   0.00000  Uiso   1.00
C250   C     0.09261   0.89641   0.46842   0.00000  Uiso   1.00
C251   C     0.18207   0.81319   0.73589   0.00000  Uiso   1.00
C252   C     0.21395   0.85209   0.73610   0.00000  Uiso   1.00
C253   C     0.22328   0.89047   0.86021   0.00000  Uiso   1.00
H254   H     0.10966   0.76608   0.92473   0.00000  Uiso   1.00
H255   H     0.10715   0.59299   0.93241   0.00000  Uiso   1.00
H256   H     0.06304   0.85461   0.80319   0.00000  Uiso   1.00
H257   H     0.15269   0.85052   0.07198   0.00000  Uiso   1.00
H258   H     0.11397   0.40133   0.88819   0.00000  Uiso   1.00
H259   H     0.02096   0.95301   0.61574   0.00000  Uiso   1.00
H260   H     0.21000   0.94439   0.18254   0.00000  Uiso   1.00
H261   H     0.18372   0.76797   0.51864   0.00000  Uiso   1.00
H262   H     0.18528   0.59498   0.50403   0.00000  Uiso   1.00
H263   H     0.14116   0.85661   0.37482   0.00000  Uiso   1.00
H264   H     0.23081   0.85251   0.64361   0.00000  Uiso   1.00
H265   H     0.17738   0.40295   0.54050   0.00000  Uiso   1.00
H266   H     0.08437   0.95463   0.26806   0.00000  Uiso   1.00
H267   H     0.27341   0.94600   0.83485   0.00000  Uiso   1.00
O268   O     0.14535   0.28831   0.71204   0.00000  Uiso   1.00
O269   O     0.02333   0.01210   0.35461   0.00000  Uiso   1.00
O270   O     0.27135   0.00078   0.09824   0.00000  Uiso   1.00
N271   N     0.12868   0.42545   0.80838   0.00000  Uiso   1.00
N272   N     0.04172   0.94123   0.55365   0.00000  Uiso   1.00
N273   N     0.21846   0.93318   0.08355   0.00000  Uiso   1.00
N274   N     0.16280   0.42632   0.62130   0.00000  Uiso   1.00
N275   N     0.07584   0.94210   0.36657   0.00000  Uiso   1.00
N276   N     0.25258   0.93405   0.89647   0.00000  Uiso   1.00
C277   C     0.37337   0.26651   0.66831   0.00000  Uiso   1.00
C278   C     0.36446   0.17273   0.72044   0.00000  Uiso   1.00
C279   C     0.37598   0.09339   0.66007   0.00000  Uiso   1.00
C280   C     0.36492   0.01453   0.72351   0.00000  Uiso   1.00
C281   C     0.35442   0.86883   0.78632   0.00000  Uiso   1.00
C282   C     0.38843   0.31487   0.79066   0.00000  Uiso   1.00
C283   C     0.42010   0.35505   0.78931   0.00000  Uiso   1.00
C284   C     0.42922   0.39585   0.91186   0.00000  Uiso   1.00
C285   C     0.45592   0.47088   0.08365   0.00000  Uiso   1.00
C286   C     0.33972   0.31263   0.64461   0.00000  Uiso   1.00
C287   C     0.33044   0.35097   0.52048   0.00000  Uiso   1.00
C288   C     0.29855   0.38991   0.52007   0.00000  Uiso   1.00
C289   C     0.24962   0.46147   0.46510   0.00000  Uiso   1.00
C290   C     0.33325   0.26754   0.88832   0.00000  Uiso   1.00
C291   C     0.34267   0.17329   0.83994   0.00000  Uiso   1.00
C292   C     0.33159   0.09453   0.90349   0.00000  Uiso   1.00
C293   C     0.34309   0.01509   0.84322   0.00000  Uiso   1.00
C294   C     0.36664   0.31542   0.91016   0.00000  Uiso   1.00
C295   C     0.37571   0.35618   0.03273   0.00000  Uiso   1.00
C296   C     0.40739   0.39641   0.03158   0.00000  Uiso   1.00
C297   C     0.31793   0.31319   0.76411   0.00000  Uiso   1.00
C298   C     0.28605   0.35209   0.76390   0.00000  Uiso   1.00
C299   C     0.27672   0.39047   0.63979   0.00000  Uiso   1.00
H300   H     0.39034   0.26608   0.57527   0.00000  Uiso   1.00
H301   H     0.39285   0.09299   0.56759   0.00000  Uiso   1.00
H302   H     0.43696   0.35461   0.69681   0.00000  Uiso   1.00
H303   H     0.34731   0.35052   0.42802   0.00000  Uiso   1.00
H304   H     0.38603   0.90133   0.61181   0.00000  Uiso   1.00
H305   H     0.47904   0.45301   0.88426   0.00000  Uiso   1.00
H306   H     0.29000   0.44439   0.31746   0.00000  Uiso   1.00
H307   H     0.31628   0.26797   0.98136   0.00000  Uiso   1.00
H308   H     0.31472   0.09498   0.99597   0.00000  Uiso   1.00
H309   H     0.35884   0.35661   0.12518   0.00000  Uiso   1.00
H310   H     0.26919   0.35251   0.85639   0.00000  Uiso   1.00
H311   H     0.32262   0.90295   0.95950   0.00000  Uiso   1.00
H312   H     0.41563   0.45463   0.23194   0.00000  Uiso   1.00
H313   H     0.22659   0.44600   0.66515   0.00000  Uiso   1.00
O314   O     0.35465   0.78831   0.78796   0.00000  Uiso   1.00
O315   O     0.47667   0.51210   0.14539   0.00000  Uiso   1.00
O316   O     0.22865   0.50078   0.40176   0.00000  Uiso   1.00
N317   N     0.37132   0.92545   0.69162   0.00000  Uiso   1.00
N318   N     0.45828   0.44123   0.94635   0.00000  Uiso   1.00
N319   N     0.28154   0.43318   0.41645   0.00000  Uiso   1.00
N320   N     0.33720   0.92632   0.87870   0.00000  Uiso   1.00
N321   N     0.42416   0.44210   0.13343   0.00000  Uiso   1.00
N322   N     0.24742   0.43405   0.60353   0.00000  Uiso   1.00
C323   C     0.87337   0.76651   0.66831   0.00000  Uiso   1.00
C324   C     0.86446   0.67273   0.72044   0.00000  Uiso   1.00
C325   C     0.87598   0.59339   0.66007   0.00000  Uiso   1.00
C326   C     0.86492   0.51453   0.72351   0.00000  Uiso   1.00
C327   C     0.85442   0.36883   0.78632   0.00000  Uiso   1.00
C328   C     0.88843   0.81487   0.79066   0.00000  Uiso   1.00
C329   C     0.92010   0.85505   0.78931   0.00000  Uiso   1.00
C330   C     0.92922   0.89585   0.91186   0.00000  Uiso   1.00
C331   C     0.95592   0.97088   0.08365   0.00000  Uiso   1.00
C332   C     0.83972   0.81263   0.64461   0.00000  Uiso   1.00
C333   C     0.83044   0.85097   0.52048   0.00000  Uiso   1.00
C334   C     0.79855   0.88991   0.52007   0.00000  Uiso   1.00
C335   C     0.74962   0.96147   0.46510   0.00000  Uiso   1.00
C336   C     0.83325   0.76754   0.88832   0.00000  Uiso   1.00
C337   C     0.84267   0.67329   0.83994   0.00000  Uiso   1.00
C338   C     0.83159   0.59453   0.90349   0.00000  Uiso   1.00
C339   C     0.84309   0.51509   0.84322   0.00000  Uiso   1.00
C340   C     0.86664   0.81542   0.91016   0.00000  Uiso   1.00
C341   C     0.87571   0.85618   0.03273   0.00000  Uiso   1.00
C342   C     0.90739   0.89641   0.03158   0.00000  Uiso   1.00
C343   C     0.81793   0.81319   0.76411   0.00000  Uiso   1.00
C344   C     0.78605   0.85209   0.76390   0.00000  Uiso   1.00
C345   C     0.77672   0.89047   0.63979   0.00000  Uiso   1.00
H346   H     0.89034   0.76608   0.57527   0.00000  Uiso   1.00
H347   H     0.89285   0.59299   0.56759   0.00000  Uiso   1.00
H348   H     0.93696   0.85461   0.69681   0.00000  Uiso   1.00
H349   H     0.84731   0.85052   0.42802   0.00000  Uiso   1.00
H350   H     0.88603   0.40133   0.61181   0.00000  Uiso   1.00
H351   H     0.97904   0.95301   0.88426   0.00000  Uiso   1.00
H352   H     0.79000   0.94439   0.31746   0.00000  Uiso   1.00
H353   H     0.81628   0.76797   0.98136   0.00000  Uiso   1.00
H354   H     0.81472   0.59498   0.99597   0.00000  Uiso   1.00
H355   H     0.85884   0.85661   0.12518   0.00000  Uiso   1.00
H356   H     0.76919   0.85251   0.85639   0.00000  Uiso   1.00
H357   H     0.82262   0.40295   0.95950   0.00000  Uiso   1.00
H358   H     0.91563   0.95463   0.23194   0.00000  Uiso   1.00
H359   H     0.72659   0.94600   0.66515   0.00000  Uiso   1.00
O360   O     0.85465   0.28831   0.78796   0.00000  Uiso   1.00
O361   O     0.97667   0.01210   0.14539   0.00000  Uiso   1.00
O362   O     0.72865   0.00078   0.40176   0.00000  Uiso   1.00
N363   N     0.87132   0.42545   0.69162   0.00000  Uiso   1.00
N364   N     0.95828   0.94123   0.94635   0.00000  Uiso   1.00
N365   N     0.78154   0.93318   0.41645   0.00000  Uiso   1.00
N366   N     0.83720   0.42632   0.87870   0.00000  Uiso   1.00
N367   N     0.92416   0.94210   0.13343   0.00000  Uiso   1.00
N368   N     0.74742   0.93405   0.60353   0.00000  Uiso   1.00
