data_job_01213
_audit_creation_date              2018-12-19
_audit_creation_method            'Materials Studio'
_symmetry_space_group_name_H-M    'P1'
_symmetry_Int_Tables_number       1
_symmetry_cell_setting            triclinic
loop_
_symmetry_equiv_pos_as_xyz
  x,y,z
_cell_length_a                    11.3805
_cell_length_b                    20.3432
_cell_length_c                    26.7377
_cell_angle_alpha                 90.0000
_cell_angle_beta                  90.0000
_cell_angle_gamma                 90.0000
loop_
_atom_site_label
_atom_site_type_symbol
_atom_site_fract_x
_atom_site_fract_y
_atom_site_fract_z
_atom_site_U_iso_or_equiv
_atom_site_adp_type
_atom_site_occupancy
C1     C     0.99259   0.28299   0.42028   0.00000  Uiso   1.00
C2     C     0.09404   0.32706   0.43651   0.00000  Uiso   1.00
C3     C     0.14231   0.32975   0.48413   0.00000  Uiso   1.00
C4     C     0.23465   0.37331   0.49143   0.00000  Uiso   1.00
C5     C     0.38568   0.43578   0.52257   0.00000  Uiso   1.00
C6     C     0.89898   0.32875   0.39899   0.00000  Uiso   1.00
C7     C     0.78325   0.33284   0.41506   0.00000  Uiso   1.00
C8     C     0.71139   0.37782   0.39076   0.00000  Uiso   1.00
C9     C     0.55958   0.44286   0.36362   0.00000  Uiso   1.00
C10    C     0.03828   0.24289   0.37619   0.00000  Uiso   1.00
C11    C     0.03965   0.17480   0.37308   0.00000  Uiso   1.00
C12    C     0.08504   0.14749   0.32959   0.00000  Uiso   1.00
C13    C     0.14951   0.07923   0.26705   0.00000  Uiso   1.00
C14    C     0.07073   0.35557   0.34857   0.00000  Uiso   1.00
C15    C     0.13648   0.36649   0.39756   0.00000  Uiso   1.00
C16    C     0.22877   0.41005   0.40479   0.00000  Uiso   1.00
C17    C     0.27718   0.41280   0.45241   0.00000  Uiso   1.00
C18    C     0.94143   0.36817   0.36004   0.00000  Uiso   1.00
C19    C     0.86972   0.41314   0.33571   0.00000  Uiso   1.00
C20    C     0.75391   0.41731   0.35174   0.00000  Uiso   1.00
C21    C     0.08073   0.28231   0.33724   0.00000  Uiso   1.00
C22    C     0.12612   0.25510   0.29374   0.00000  Uiso   1.00
C23    C     0.12756   0.18698   0.29057   0.00000  Uiso   1.00
H24    H     0.95953   0.25230   0.45061   0.00000  Uiso   1.00
H25    H     0.10943   0.29924   0.51427   0.00000  Uiso   1.00
H26    H     0.75043   0.30232   0.44520   0.00000  Uiso   1.00
H27    H     0.00679   0.14431   0.40323   0.00000  Uiso   1.00
H28    H     0.29431   0.36868   0.56768   0.00000  Uiso   1.00
H29    H     0.53733   0.37518   0.42203   0.00000  Uiso   1.00
H30    H     0.07791   0.04197   0.33354   0.00000  Uiso   1.00
H31    H     0.10378   0.38626   0.31824   0.00000  Uiso   1.00
H32    H     0.26160   0.44055   0.37464   0.00000  Uiso   1.00
H33    H     0.90259   0.44364   0.30557   0.00000  Uiso   1.00
H34    H     0.15896   0.28562   0.26361   0.00000  Uiso   1.00
H35    H     0.41781   0.48338   0.45435   0.00000  Uiso   1.00
H36    H     0.66082   0.48987   0.30870   0.00000  Uiso   1.00
H37    H     0.20142   0.15666   0.22021   0.00000  Uiso   1.00
O38    O     0.45725   0.45935   0.55051   0.00000  Uiso   1.00
O39    O     0.46411   0.46785   0.35942   0.00000  Uiso   1.00
O40    O     0.17336   0.03069   0.24332   0.00000  Uiso   1.00
N41    N     0.30174   0.38822   0.53326   0.00000  Uiso   1.00
N42    N     0.59400   0.39430   0.39710   0.00000  Uiso   1.00
N43    N     0.09938   0.08277   0.31436   0.00000  Uiso   1.00
N44    N     0.36819   0.44994   0.47228   0.00000  Uiso   1.00
N45    N     0.66046   0.45601   0.33612   0.00000  Uiso   1.00
N46    N     0.16583   0.14449   0.25338   0.00000  Uiso   1.00
C47    C     0.50741   0.21701   0.92028   0.00000  Uiso   1.00
C48    C     0.40596   0.17294   0.93651   0.00000  Uiso   1.00
C49    C     0.35769   0.17025   0.98413   0.00000  Uiso   1.00
C50    C     0.26535   0.12669   0.99143   0.00000  Uiso   1.00
C51    C     0.11432   0.06422   0.02257   0.00000  Uiso   1.00
C52    C     0.60102   0.17125   0.89899   0.00000  Uiso   1.00
C53    C     0.71675   0.16716   0.91506   0.00000  Uiso   1.00
C54    C     0.78861   0.12218   0.89076   0.00000  Uiso   1.00
C55    C     0.94042   0.05714   0.86362   0.00000  Uiso   1.00
C56    C     0.46172   0.25711   0.87619   0.00000  Uiso   1.00
C57    C     0.46035   0.32520   0.87308   0.00000  Uiso   1.00
C58    C     0.41496   0.35251   0.82959   0.00000  Uiso   1.00
C59    C     0.35049   0.42077   0.76705   0.00000  Uiso   1.00
C60    C     0.42927   0.14443   0.84857   0.00000  Uiso   1.00
C61    C     0.36352   0.13351   0.89756   0.00000  Uiso   1.00
C62    C     0.27123   0.08995   0.90479   0.00000  Uiso   1.00
C63    C     0.22282   0.08720   0.95241   0.00000  Uiso   1.00
C64    C     0.55857   0.13183   0.86004   0.00000  Uiso   1.00
C65    C     0.63028   0.08686   0.83571   0.00000  Uiso   1.00
C66    C     0.74609   0.08269   0.85174   0.00000  Uiso   1.00
C67    C     0.41927   0.21769   0.83724   0.00000  Uiso   1.00
C68    C     0.37388   0.24490   0.79374   0.00000  Uiso   1.00
C69    C     0.37244   0.31302   0.79057   0.00000  Uiso   1.00
H70    H     0.54047   0.24770   0.95061   0.00000  Uiso   1.00
H71    H     0.39057   0.20076   0.01427   0.00000  Uiso   1.00
H72    H     0.74957   0.19768   0.94520   0.00000  Uiso   1.00
H73    H     0.49321   0.35569   0.90323   0.00000  Uiso   1.00
H74    H     0.20569   0.13132   0.06768   0.00000  Uiso   1.00
H75    H     0.96267   0.12482   0.92203   0.00000  Uiso   1.00
H76    H     0.42209   0.45803   0.83354   0.00000  Uiso   1.00
H77    H     0.39622   0.11374   0.81824   0.00000  Uiso   1.00
H78    H     0.23840   0.05945   0.87464   0.00000  Uiso   1.00
H79    H     0.59741   0.05636   0.80557   0.00000  Uiso   1.00
H80    H     0.34104   0.21438   0.76361   0.00000  Uiso   1.00
H81    H     0.08219   0.01662   0.95435   0.00000  Uiso   1.00
H82    H     0.83918   0.01013   0.80870   0.00000  Uiso   1.00
H83    H     0.29858   0.34334   0.72021   0.00000  Uiso   1.00
O84    O     0.04275   0.04065   0.05051   0.00000  Uiso   1.00
O85    O     0.03589   0.03215   0.85942   0.00000  Uiso   1.00
O86    O     0.32664   0.46931   0.74332   0.00000  Uiso   1.00
N87    N     0.19826   0.11178   0.03326   0.00000  Uiso   1.00
N88    N     0.90600   0.10570   0.89710   0.00000  Uiso   1.00
N89    N     0.40062   0.41723   0.81436   0.00000  Uiso   1.00
N90    N     0.13181   0.05006   0.97228   0.00000  Uiso   1.00
N91    N     0.83954   0.04399   0.83612   0.00000  Uiso   1.00
N92    N     0.33417   0.35551   0.75338   0.00000  Uiso   1.00
C93    C     0.00741   0.28299   0.07972   0.00000  Uiso   1.00
C94    C     0.90596   0.32706   0.06349   0.00000  Uiso   1.00
C95    C     0.85769   0.32975   0.01587   0.00000  Uiso   1.00
C96    C     0.76535   0.37331   0.00857   0.00000  Uiso   1.00
C97    C     0.61432   0.43578   0.97743   0.00000  Uiso   1.00
C98    C     0.10102   0.32875   0.10101   0.00000  Uiso   1.00
C99    C     0.21675   0.33284   0.08494   0.00000  Uiso   1.00
C100   C     0.28861   0.37782   0.10924   0.00000  Uiso   1.00
C101   C     0.44042   0.44286   0.13638   0.00000  Uiso   1.00
C102   C     0.96172   0.24289   0.12381   0.00000  Uiso   1.00
C103   C     0.96035   0.17480   0.12692   0.00000  Uiso   1.00
C104   C     0.91496   0.14749   0.17041   0.00000  Uiso   1.00
C105   C     0.85049   0.07923   0.23295   0.00000  Uiso   1.00
C106   C     0.92927   0.35557   0.15143   0.00000  Uiso   1.00
C107   C     0.86352   0.36649   0.10244   0.00000  Uiso   1.00
C108   C     0.77123   0.41005   0.09521   0.00000  Uiso   1.00
C109   C     0.72282   0.41280   0.04759   0.00000  Uiso   1.00
C110   C     0.05857   0.36817   0.13996   0.00000  Uiso   1.00
C111   C     0.13028   0.41314   0.16429   0.00000  Uiso   1.00
C112   C     0.24609   0.41731   0.14826   0.00000  Uiso   1.00
C113   C     0.91927   0.28231   0.16276   0.00000  Uiso   1.00
C114   C     0.87388   0.25510   0.20626   0.00000  Uiso   1.00
C115   C     0.87244   0.18698   0.20943   0.00000  Uiso   1.00
H116   H     0.04047   0.25230   0.04939   0.00000  Uiso   1.00
H117   H     0.89057   0.29924   0.98573   0.00000  Uiso   1.00
H118   H     0.24957   0.30232   0.05480   0.00000  Uiso   1.00
H119   H     0.99321   0.14431   0.09677   0.00000  Uiso   1.00
H120   H     0.70569   0.36868   0.93232   0.00000  Uiso   1.00
H121   H     0.46267   0.37518   0.07797   0.00000  Uiso   1.00
H122   H     0.92209   0.04197   0.16646   0.00000  Uiso   1.00
H123   H     0.89622   0.38626   0.18176   0.00000  Uiso   1.00
H124   H     0.73840   0.44055   0.12536   0.00000  Uiso   1.00
H125   H     0.09741   0.44364   0.19443   0.00000  Uiso   1.00
H126   H     0.84104   0.28562   0.23639   0.00000  Uiso   1.00
H127   H     0.58219   0.48338   0.04565   0.00000  Uiso   1.00
H128   H     0.33918   0.48987   0.19130   0.00000  Uiso   1.00
H129   H     0.79858   0.15666   0.27979   0.00000  Uiso   1.00
O130   O     0.54275   0.45935   0.94949   0.00000  Uiso   1.00
O131   O     0.53589   0.46785   0.14058   0.00000  Uiso   1.00
O132   O     0.82664   0.03069   0.25668   0.00000  Uiso   1.00
N133   N     0.69826   0.38822   0.96674   0.00000  Uiso   1.00
N134   N     0.40600   0.39430   0.10290   0.00000  Uiso   1.00
N135   N     0.90062   0.08277   0.18564   0.00000  Uiso   1.00
N136   N     0.63181   0.44994   0.02772   0.00000  Uiso   1.00
N137   N     0.33954   0.45601   0.16388   0.00000  Uiso   1.00
N138   N     0.83417   0.14449   0.24662   0.00000  Uiso   1.00
C139   C     0.49259   0.21701   0.57972   0.00000  Uiso   1.00
C140   C     0.59404   0.17294   0.56349   0.00000  Uiso   1.00
C141   C     0.64231   0.17025   0.51587   0.00000  Uiso   1.00
C142   C     0.73465   0.12669   0.50857   0.00000  Uiso   1.00
C143   C     0.88568   0.06422   0.47743   0.00000  Uiso   1.00
C144   C     0.39898   0.17125   0.60101   0.00000  Uiso   1.00
C145   C     0.28325   0.16716   0.58494   0.00000  Uiso   1.00
C146   C     0.21139   0.12218   0.60924   0.00000  Uiso   1.00
C147   C     0.05958   0.05714   0.63638   0.00000  Uiso   1.00
C148   C     0.53828   0.25711   0.62381   0.00000  Uiso   1.00
C149   C     0.53965   0.32520   0.62692   0.00000  Uiso   1.00
C150   C     0.58504   0.35251   0.67041   0.00000  Uiso   1.00
C151   C     0.64951   0.42077   0.73295   0.00000  Uiso   1.00
C152   C     0.57073   0.14443   0.65143   0.00000  Uiso   1.00
C153   C     0.63648   0.13351   0.60244   0.00000  Uiso   1.00
C154   C     0.72877   0.08995   0.59521   0.00000  Uiso   1.00
C155   C     0.77718   0.08720   0.54759   0.00000  Uiso   1.00
C156   C     0.44143   0.13183   0.63996   0.00000  Uiso   1.00
C157   C     0.36972   0.08686   0.66429   0.00000  Uiso   1.00
C158   C     0.25391   0.08269   0.64826   0.00000  Uiso   1.00
C159   C     0.58073   0.21769   0.66276   0.00000  Uiso   1.00
C160   C     0.62612   0.24490   0.70626   0.00000  Uiso   1.00
C161   C     0.62756   0.31302   0.70943   0.00000  Uiso   1.00
H162   H     0.45953   0.24770   0.54939   0.00000  Uiso   1.00
H163   H     0.60943   0.20076   0.48573   0.00000  Uiso   1.00
H164   H     0.25043   0.19768   0.55480   0.00000  Uiso   1.00
H165   H     0.50679   0.35569   0.59677   0.00000  Uiso   1.00
H166   H     0.79431   0.13132   0.43232   0.00000  Uiso   1.00
H167   H     0.03733   0.12482   0.57797   0.00000  Uiso   1.00
H168   H     0.57791   0.45803   0.66646   0.00000  Uiso   1.00
H169   H     0.60378   0.11374   0.68176   0.00000  Uiso   1.00
H170   H     0.76160   0.05945   0.62536   0.00000  Uiso   1.00
H171   H     0.40259   0.05636   0.69443   0.00000  Uiso   1.00
H172   H     0.65896   0.21438   0.73639   0.00000  Uiso   1.00
H173   H     0.91781   0.01662   0.54565   0.00000  Uiso   1.00
H174   H     0.16082   0.01013   0.69130   0.00000  Uiso   1.00
H175   H     0.70142   0.34334   0.77979   0.00000  Uiso   1.00
O176   O     0.95725   0.04065   0.44949   0.00000  Uiso   1.00
O177   O     0.96411   0.03215   0.64058   0.00000  Uiso   1.00
O178   O     0.67336   0.46931   0.75668   0.00000  Uiso   1.00
N179   N     0.80174   0.11178   0.46674   0.00000  Uiso   1.00
N180   N     0.09400   0.10570   0.60290   0.00000  Uiso   1.00
N181   N     0.59938   0.41723   0.68564   0.00000  Uiso   1.00
N182   N     0.86819   0.05006   0.52772   0.00000  Uiso   1.00
N183   N     0.16046   0.04399   0.66388   0.00000  Uiso   1.00
N184   N     0.66583   0.35551   0.74662   0.00000  Uiso   1.00
C185   C     0.00741   0.71701   0.57972   0.00000  Uiso   1.00
C186   C     0.90596   0.67294   0.56349   0.00000  Uiso   1.00
C187   C     0.85769   0.67025   0.51587   0.00000  Uiso   1.00
C188   C     0.76535   0.62669   0.50857   0.00000  Uiso   1.00
C189   C     0.61432   0.56422   0.47743   0.00000  Uiso   1.00
C190   C     0.10102   0.67125   0.60101   0.00000  Uiso   1.00
C191   C     0.21675   0.66716   0.58494   0.00000  Uiso   1.00
C192   C     0.28861   0.62218   0.60924   0.00000  Uiso   1.00
C193   C     0.44042   0.55714   0.63638   0.00000  Uiso   1.00
C194   C     0.96172   0.75711   0.62381   0.00000  Uiso   1.00
C195   C     0.96035   0.82520   0.62692   0.00000  Uiso   1.00
C196   C     0.91496   0.85251   0.67041   0.00000  Uiso   1.00
C197   C     0.85049   0.92077   0.73295   0.00000  Uiso   1.00
C198   C     0.92927   0.64443   0.65143   0.00000  Uiso   1.00
C199   C     0.86352   0.63351   0.60244   0.00000  Uiso   1.00
C200   C     0.77123   0.58995   0.59521   0.00000  Uiso   1.00
C201   C     0.72282   0.58720   0.54759   0.00000  Uiso   1.00
C202   C     0.05857   0.63183   0.63996   0.00000  Uiso   1.00
C203   C     0.13028   0.58686   0.66429   0.00000  Uiso   1.00
C204   C     0.24609   0.58269   0.64826   0.00000  Uiso   1.00
C205   C     0.91927   0.71769   0.66276   0.00000  Uiso   1.00
C206   C     0.87388   0.74490   0.70626   0.00000  Uiso   1.00
C207   C     0.87244   0.81302   0.70943   0.00000  Uiso   1.00
H208   H     0.04047   0.74770   0.54939   0.00000  Uiso   1.00
H209   H     0.89057   0.70076   0.48573   0.00000  Uiso   1.00
H210   H     0.24957   0.69768   0.55480   0.00000  Uiso   1.00
H211   H     0.99321   0.85569   0.59677   0.00000  Uiso   1.00
H212   H     0.70569   0.63132   0.43232   0.00000  Uiso   1.00
H213   H     0.46267   0.62482   0.57797   0.00000  Uiso   1.00
H214   H     0.92209   0.95803   0.66646   0.00000  Uiso   1.00
H215   H     0.89622   0.61374   0.68176   0.00000  Uiso   1.00
H216   H     0.73840   0.55945   0.62536   0.00000  Uiso   1.00
H217   H     0.09741   0.55636   0.69443   0.00000  Uiso   1.00
H218   H     0.84104   0.71438   0.73639   0.00000  Uiso   1.00
H219   H     0.58219   0.51662   0.54565   0.00000  Uiso   1.00
H220   H     0.33918   0.51013   0.69130   0.00000  Uiso   1.00
H221   H     0.79858   0.84334   0.77979   0.00000  Uiso   1.00
O222   O     0.54275   0.54065   0.44949   0.00000  Uiso   1.00
O223   O     0.53589   0.53215   0.64058   0.00000  Uiso   1.00
O224   O     0.82664   0.96931   0.75668   0.00000  Uiso   1.00
N225   N     0.69826   0.61178   0.46674   0.00000  Uiso   1.00
N226   N     0.40600   0.60570   0.60290   0.00000  Uiso   1.00
N227   N     0.90062   0.91723   0.68564   0.00000  Uiso   1.00
N228   N     0.63181   0.55006   0.52772   0.00000  Uiso   1.00
N229   N     0.33954   0.54399   0.66388   0.00000  Uiso   1.00
N230   N     0.83417   0.85551   0.74662   0.00000  Uiso   1.00
C231   C     0.49259   0.78299   0.07972   0.00000  Uiso   1.00
C232   C     0.59404   0.82706   0.06349   0.00000  Uiso   1.00
C233   C     0.64231   0.82975   0.01587   0.00000  Uiso   1.00
C234   C     0.73465   0.87331   0.00857   0.00000  Uiso   1.00
C235   C     0.88568   0.93578   0.97743   0.00000  Uiso   1.00
C236   C     0.39898   0.82875   0.10101   0.00000  Uiso   1.00
C237   C     0.28325   0.83284   0.08494   0.00000  Uiso   1.00
C238   C     0.21139   0.87782   0.10924   0.00000  Uiso   1.00
C239   C     0.05958   0.94286   0.13638   0.00000  Uiso   1.00
C240   C     0.53828   0.74289   0.12381   0.00000  Uiso   1.00
C241   C     0.53965   0.67480   0.12692   0.00000  Uiso   1.00
C242   C     0.58504   0.64749   0.17041   0.00000  Uiso   1.00
C243   C     0.64951   0.57923   0.23295   0.00000  Uiso   1.00
C244   C     0.57073   0.85557   0.15143   0.00000  Uiso   1.00
C245   C     0.63648   0.86649   0.10244   0.00000  Uiso   1.00
C246   C     0.72877   0.91005   0.09521   0.00000  Uiso   1.00
C247   C     0.77718   0.91280   0.04759   0.00000  Uiso   1.00
C248   C     0.44143   0.86817   0.13996   0.00000  Uiso   1.00
C249   C     0.36972   0.91314   0.16429   0.00000  Uiso   1.00
C250   C     0.25391   0.91731   0.14826   0.00000  Uiso   1.00
C251   C     0.58073   0.78231   0.16276   0.00000  Uiso   1.00
C252   C     0.62612   0.75510   0.20626   0.00000  Uiso   1.00
C253   C     0.62756   0.68698   0.20943   0.00000  Uiso   1.00
H254   H     0.45953   0.75230   0.04939   0.00000  Uiso   1.00
H255   H     0.60943   0.79924   0.98573   0.00000  Uiso   1.00
H256   H     0.25043   0.80232   0.05480   0.00000  Uiso   1.00
H257   H     0.50679   0.64431   0.09677   0.00000  Uiso   1.00
H258   H     0.79431   0.86868   0.93232   0.00000  Uiso   1.00
H259   H     0.03733   0.87518   0.07797   0.00000  Uiso   1.00
H260   H     0.57791   0.54197   0.16646   0.00000  Uiso   1.00
H261   H     0.60378   0.88626   0.18176   0.00000  Uiso   1.00
H262   H     0.76160   0.94055   0.12536   0.00000  Uiso   1.00
H263   H     0.40259   0.94364   0.19443   0.00000  Uiso   1.00
H264   H     0.65896   0.78562   0.23639   0.00000  Uiso   1.00
H265   H     0.91781   0.98338   0.04565   0.00000  Uiso   1.00
H266   H     0.16082   0.98987   0.19130   0.00000  Uiso   1.00
H267   H     0.70142   0.65666   0.27979   0.00000  Uiso   1.00
O268   O     0.95725   0.95935   0.94949   0.00000  Uiso   1.00
O269   O     0.96411   0.96785   0.14058   0.00000  Uiso   1.00
O270   O     0.67336   0.53069   0.25668   0.00000  Uiso   1.00
N271   N     0.80174   0.88822   0.96674   0.00000  Uiso   1.00
N272   N     0.09400   0.89430   0.10290   0.00000  Uiso   1.00
N273   N     0.59938   0.58277   0.18564   0.00000  Uiso   1.00
N274   N     0.86819   0.94994   0.02772   0.00000  Uiso   1.00
N275   N     0.16046   0.95601   0.16388   0.00000  Uiso   1.00
N276   N     0.66583   0.64449   0.24662   0.00000  Uiso   1.00
C277   C     0.99259   0.71701   0.92028   0.00000  Uiso   1.00
C278   C     0.09404   0.67294   0.93651   0.00000  Uiso   1.00
C279   C     0.14231   0.67025   0.98413   0.00000  Uiso   1.00
C280   C     0.23465   0.62669   0.99143   0.00000  Uiso   1.00
C281   C     0.38568   0.56422   0.02257   0.00000  Uiso   1.00
C282   C     0.89898   0.67125   0.89899   0.00000  Uiso   1.00
C283   C     0.78325   0.66716   0.91506   0.00000  Uiso   1.00
C284   C     0.71139   0.62218   0.89076   0.00000  Uiso   1.00
C285   C     0.55958   0.55714   0.86362   0.00000  Uiso   1.00
C286   C     0.03828   0.75711   0.87619   0.00000  Uiso   1.00
C287   C     0.03965   0.82520   0.87308   0.00000  Uiso   1.00
C288   C     0.08504   0.85251   0.82959   0.00000  Uiso   1.00
C289   C     0.14951   0.92077   0.76705   0.00000  Uiso   1.00
C290   C     0.07073   0.64443   0.84857   0.00000  Uiso   1.00
C291   C     0.13648   0.63351   0.89756   0.00000  Uiso   1.00
C292   C     0.22877   0.58995   0.90479   0.00000  Uiso   1.00
C293   C     0.27718   0.58720   0.95241   0.00000  Uiso   1.00
C294   C     0.94143   0.63183   0.86004   0.00000  Uiso   1.00
C295   C     0.86972   0.58686   0.83571   0.00000  Uiso   1.00
C296   C     0.75391   0.58269   0.85174   0.00000  Uiso   1.00
C297   C     0.08073   0.71769   0.83724   0.00000  Uiso   1.00
C298   C     0.12612   0.74490   0.79374   0.00000  Uiso   1.00
C299   C     0.12756   0.81302   0.79057   0.00000  Uiso   1.00
H300   H     0.95953   0.74770   0.95061   0.00000  Uiso   1.00
H301   H     0.10943   0.70076   0.01427   0.00000  Uiso   1.00
H302   H     0.75043   0.69768   0.94520   0.00000  Uiso   1.00
H303   H     0.00679   0.85569   0.90323   0.00000  Uiso   1.00
H304   H     0.29431   0.63132   0.06768   0.00000  Uiso   1.00
H305   H     0.53733   0.62482   0.92203   0.00000  Uiso   1.00
H306   H     0.07791   0.95803   0.83354   0.00000  Uiso   1.00
H307   H     0.10378   0.61374   0.81824   0.00000  Uiso   1.00
H308   H     0.26160   0.55945   0.87464   0.00000  Uiso   1.00
H309   H     0.90259   0.55636   0.80557   0.00000  Uiso   1.00
H310   H     0.15896   0.71438   0.76361   0.00000  Uiso   1.00
H311   H     0.41781   0.51662   0.95435   0.00000  Uiso   1.00
H312   H     0.66082   0.51013   0.80870   0.00000  Uiso   1.00
H313   H     0.20142   0.84334   0.72021   0.00000  Uiso   1.00
O314   O     0.45725   0.54065   0.05051   0.00000  Uiso   1.00
O315   O     0.46411   0.53215   0.85942   0.00000  Uiso   1.00
O316   O     0.17336   0.96931   0.74332   0.00000  Uiso   1.00
N317   N     0.30174   0.61178   0.03326   0.00000  Uiso   1.00
N318   N     0.59400   0.60570   0.89710   0.00000  Uiso   1.00
N319   N     0.09938   0.91723   0.81436   0.00000  Uiso   1.00
N320   N     0.36819   0.55006   0.97228   0.00000  Uiso   1.00
N321   N     0.66046   0.54399   0.83612   0.00000  Uiso   1.00
N322   N     0.16583   0.85551   0.75338   0.00000  Uiso   1.00
C323   C     0.50741   0.78299   0.42028   0.00000  Uiso   1.00
C324   C     0.40596   0.82706   0.43651   0.00000  Uiso   1.00
C325   C     0.35769   0.82975   0.48413   0.00000  Uiso   1.00
C326   C     0.26535   0.87331   0.49143   0.00000  Uiso   1.00
C327   C     0.11432   0.93578   0.52257   0.00000  Uiso   1.00
C328   C     0.60102   0.82875   0.39899   0.00000  Uiso   1.00
C329   C     0.71675   0.83284   0.41506   0.00000  Uiso   1.00
C330   C     0.78861   0.87782   0.39076   0.00000  Uiso   1.00
C331   C     0.94042   0.94286   0.36362   0.00000  Uiso   1.00
C332   C     0.46172   0.74289   0.37619   0.00000  Uiso   1.00
C333   C     0.46035   0.67480   0.37308   0.00000  Uiso   1.00
C334   C     0.41496   0.64749   0.32959   0.00000  Uiso   1.00
C335   C     0.35049   0.57923   0.26705   0.00000  Uiso   1.00
C336   C     0.42927   0.85557   0.34857   0.00000  Uiso   1.00
C337   C     0.36352   0.86649   0.39756   0.00000  Uiso   1.00
C338   C     0.27123   0.91005   0.40479   0.00000  Uiso   1.00
C339   C     0.22282   0.91280   0.45241   0.00000  Uiso   1.00
C340   C     0.55857   0.86817   0.36004   0.00000  Uiso   1.00
C341   C     0.63028   0.91314   0.33571   0.00000  Uiso   1.00
C342   C     0.74609   0.91731   0.35174   0.00000  Uiso   1.00
C343   C     0.41927   0.78231   0.33724   0.00000  Uiso   1.00
C344   C     0.37388   0.75510   0.29374   0.00000  Uiso   1.00
C345   C     0.37244   0.68698   0.29057   0.00000  Uiso   1.00
H346   H     0.54047   0.75230   0.45061   0.00000  Uiso   1.00
H347   H     0.39057   0.79924   0.51427   0.00000  Uiso   1.00
H348   H     0.74957   0.80232   0.44520   0.00000  Uiso   1.00
H349   H     0.49321   0.64431   0.40323   0.00000  Uiso   1.00
H350   H     0.20569   0.86868   0.56768   0.00000  Uiso   1.00
H351   H     0.96267   0.87518   0.42203   0.00000  Uiso   1.00
H352   H     0.42209   0.54197   0.33354   0.00000  Uiso   1.00
H353   H     0.39622   0.88626   0.31824   0.00000  Uiso   1.00
H354   H     0.23840   0.94055   0.37464   0.00000  Uiso   1.00
H355   H     0.59741   0.94364   0.30557   0.00000  Uiso   1.00
H356   H     0.34104   0.78562   0.26361   0.00000  Uiso   1.00
H357   H     0.08219   0.98338   0.45435   0.00000  Uiso   1.00
H358   H     0.83918   0.98987   0.30870   0.00000  Uiso   1.00
H359   H     0.29858   0.65666   0.22021   0.00000  Uiso   1.00
O360   O     0.04275   0.95935   0.55051   0.00000  Uiso   1.00
O361   O     0.03589   0.96785   0.35942   0.00000  Uiso   1.00
O362   O     0.32664   0.53069   0.24332   0.00000  Uiso   1.00
N363   N     0.19826   0.88822   0.53326   0.00000  Uiso   1.00
N364   N     0.90600   0.89430   0.39710   0.00000  Uiso   1.00
N365   N     0.40062   0.58277   0.31436   0.00000  Uiso   1.00
N366   N     0.13181   0.94994   0.47228   0.00000  Uiso   1.00
N367   N     0.83954   0.95601   0.33612   0.00000  Uiso   1.00
N368   N     0.33417   0.64449   0.25338   0.00000  Uiso   1.00
