data_job_02846
_audit_creation_date              2018-12-19
_audit_creation_method            'Materials Studio'
_symmetry_space_group_name_H-M    'P1'
_symmetry_Int_Tables_number       1
_symmetry_cell_setting            triclinic
loop_
_symmetry_equiv_pos_as_xyz
  x,y,z
_cell_length_a                    9.9618
_cell_length_b                    20.9475
_cell_length_c                    12.5437
_cell_angle_alpha                 90.0000
_cell_angle_beta                  105.3630
_cell_angle_gamma                 90.0000
loop_
_atom_site_label
_atom_site_type_symbol
_atom_site_fract_x
_atom_site_fract_y
_atom_site_fract_z
_atom_site_U_iso_or_equiv
_atom_site_adp_type
_atom_site_occupancy
C1     C     0.37945   0.88279   0.75007   0.00000  Uiso   1.00
C2     C     0.28676   0.84921   0.64935   0.00000  Uiso   1.00
C3     C     0.33143   0.82099   0.56469   0.00000  Uiso   1.00
C4     C     0.23041   0.79272   0.47988   0.00000  Uiso   1.00
C5     C     0.10786   0.74061   0.32347   0.00000  Uiso   1.00
C6     C     0.32030   0.94994   0.75004   0.00000  Uiso   1.00
C7     C     0.39319   0.00641   0.75005   0.00000  Uiso   1.00
C8     C     0.32041   0.06294   0.75002   0.00000  Uiso   1.00
C9     C     0.24997   0.16720   0.75001   0.00000  Uiso   1.00
C10    C     0.35390   0.84923   0.85078   0.00000  Uiso   1.00
C11    C     0.45503   0.82103   0.93551   0.00000  Uiso   1.00
C12    C     0.41054   0.79279   0.02031   0.00000  Uiso   1.00
C13    C     0.39227   0.74069   0.17671   0.00000  Uiso   1.00
C14    C     0.12061   0.88279   0.75003   0.00000  Uiso   1.00
C15    C     0.14617   0.84921   0.64933   0.00000  Uiso   1.00
C16    C     0.04506   0.82098   0.56464   0.00000  Uiso   1.00
C17    C     0.08957   0.79272   0.47986   0.00000  Uiso   1.00
C18    C     0.17972   0.94994   0.75002   0.00000  Uiso   1.00
C19    C     0.10682   0.00640   0.74999   0.00000  Uiso   1.00
C20    C     0.17956   0.06293   0.74999   0.00000  Uiso   1.00
C21    C     0.21331   0.84923   0.85076   0.00000  Uiso   1.00
C22    C     0.16866   0.82102   0.93545   0.00000  Uiso   1.00
C23    C     0.26970   0.79278   0.02028   0.00000  Uiso   1.00
H24    H     0.48890   0.88280   0.75009   0.00000  Uiso   1.00
H25    H     0.44024   0.82100   0.56473   0.00000  Uiso   1.00
H26    H     0.50198   0.00639   0.75007   0.00000  Uiso   1.00
H27    H     0.56382   0.82105   0.93550   0.00000  Uiso   1.00
H28    H     0.32427   0.75251   0.35919   0.00000  Uiso   1.00
H29    H     0.45449   0.14341   0.75004   0.00000  Uiso   1.00
H30    H     0.58488   0.75258   0.14104   0.00000  Uiso   1.00
H31    H     0.01116   0.88279   0.75001   0.00000  Uiso   1.00
H32    H     0.93627   0.82098   0.56464   0.00000  Uiso   1.00
H33    H     0.99802   0.00638   0.74998   0.00000  Uiso   1.00
H34    H     0.05986   0.82103   0.93540   0.00000  Uiso   1.00
H35    H     0.91524   0.75250   0.35911   0.00000  Uiso   1.00
H36    H     0.04546   0.14340   0.74997   0.00000  Uiso   1.00
H37    H     0.17584   0.75256   0.14096   0.00000  Uiso   1.00
O38    O     0.07911   0.71187   0.23720   0.00000  Uiso   1.00
O39    O     0.24996   0.22472   0.74999   0.00000  Uiso   1.00
O40    O     0.42102   0.71194   0.26297   0.00000  Uiso   1.00
N41    N     0.23829   0.76098   0.38462   0.00000  Uiso   1.00
N42    N     0.36003   0.12645   0.75002   0.00000  Uiso   1.00
N43    N     0.48194   0.76106   0.11559   0.00000  Uiso   1.00
N44    N     0.01819   0.76097   0.38458   0.00000  Uiso   1.00
N45    N     0.13993   0.12644   0.74998   0.00000  Uiso   1.00
N46    N     0.26184   0.76105   0.11555   0.00000  Uiso   1.00
C47    C     0.62055   0.38279   0.24993   0.00000  Uiso   1.00
C48    C     0.71324   0.34921   0.35065   0.00000  Uiso   1.00
C49    C     0.66857   0.32099   0.43531   0.00000  Uiso   1.00
C50    C     0.76959   0.29272   0.52012   0.00000  Uiso   1.00
C51    C     0.89214   0.24061   0.67653   0.00000  Uiso   1.00
C52    C     0.67970   0.44994   0.24996   0.00000  Uiso   1.00
C53    C     0.60681   0.50641   0.24995   0.00000  Uiso   1.00
C54    C     0.67959   0.56294   0.24998   0.00000  Uiso   1.00
C55    C     0.75003   0.66720   0.24999   0.00000  Uiso   1.00
C56    C     0.64610   0.34923   0.14922   0.00000  Uiso   1.00
C57    C     0.54497   0.32103   0.06449   0.00000  Uiso   1.00
C58    C     0.58946   0.29279   0.97969   0.00000  Uiso   1.00
C59    C     0.60773   0.24069   0.82329   0.00000  Uiso   1.00
C60    C     0.87939   0.38279   0.24997   0.00000  Uiso   1.00
C61    C     0.85383   0.34921   0.35067   0.00000  Uiso   1.00
C62    C     0.95494   0.32098   0.43536   0.00000  Uiso   1.00
C63    C     0.91043   0.29272   0.52014   0.00000  Uiso   1.00
C64    C     0.82028   0.44994   0.24998   0.00000  Uiso   1.00
C65    C     0.89318   0.50640   0.25001   0.00000  Uiso   1.00
C66    C     0.82044   0.56293   0.25001   0.00000  Uiso   1.00
C67    C     0.78669   0.34923   0.14924   0.00000  Uiso   1.00
C68    C     0.83134   0.32102   0.06455   0.00000  Uiso   1.00
C69    C     0.73030   0.29278   0.97972   0.00000  Uiso   1.00
H70    H     0.51110   0.38280   0.24991   0.00000  Uiso   1.00
H71    H     0.55976   0.32100   0.43527   0.00000  Uiso   1.00
H72    H     0.49802   0.50639   0.24993   0.00000  Uiso   1.00
H73    H     0.43618   0.32105   0.06450   0.00000  Uiso   1.00
H74    H     0.67573   0.25251   0.64081   0.00000  Uiso   1.00
H75    H     0.54551   0.64341   0.24996   0.00000  Uiso   1.00
H76    H     0.41512   0.25258   0.85896   0.00000  Uiso   1.00
H77    H     0.98884   0.38279   0.24999   0.00000  Uiso   1.00
H78    H     0.06373   0.32098   0.43536   0.00000  Uiso   1.00
H79    H     0.00198   0.50638   0.25002   0.00000  Uiso   1.00
H80    H     0.94014   0.32103   0.06460   0.00000  Uiso   1.00
H81    H     0.08476   0.25250   0.64089   0.00000  Uiso   1.00
H82    H     0.95454   0.64340   0.25003   0.00000  Uiso   1.00
H83    H     0.82416   0.25256   0.85904   0.00000  Uiso   1.00
O84    O     0.92089   0.21187   0.76280   0.00000  Uiso   1.00
O85    O     0.75004   0.72472   0.25001   0.00000  Uiso   1.00
O86    O     0.57898   0.21194   0.73703   0.00000  Uiso   1.00
N87    N     0.76171   0.26098   0.61538   0.00000  Uiso   1.00
N88    N     0.63997   0.62645   0.24998   0.00000  Uiso   1.00
N89    N     0.51806   0.26106   0.88441   0.00000  Uiso   1.00
N90    N     0.98181   0.26097   0.61542   0.00000  Uiso   1.00
N91    N     0.86007   0.62644   0.25002   0.00000  Uiso   1.00
N92    N     0.73816   0.26105   0.88445   0.00000  Uiso   1.00
