data_job_03031
_audit_creation_date              2018-12-19
_audit_creation_method            'Materials Studio'
_symmetry_space_group_name_H-M    'P1'
_symmetry_Int_Tables_number       1
_symmetry_cell_setting            triclinic
loop_
_symmetry_equiv_pos_as_xyz
  x,y,z
_cell_length_a                    27.2249
_cell_length_b                    11.9881
_cell_length_c                    19.8353
_cell_angle_alpha                 90.0000
_cell_angle_beta                  90.0000
_cell_angle_gamma                 90.0000
loop_
_atom_site_label
_atom_site_type_symbol
_atom_site_fract_x
_atom_site_fract_y
_atom_site_fract_z
_atom_site_U_iso_or_equiv
_atom_site_adp_type
_atom_site_occupancy
C1     C     0.63515   0.73815   0.41353   0.00000  Uiso   1.00
C2     C     0.58102   0.73684   0.39379   0.00000  Uiso   1.00
C3     C     0.54435   0.67604   0.42558   0.00000  Uiso   1.00
C4     C     0.49712   0.68612   0.39988   0.00000  Uiso   1.00
C5     C     0.41462   0.67363   0.37764   0.00000  Uiso   1.00
C6     C     0.66352   0.70387   0.35055   0.00000  Uiso   1.00
C7     C     0.69620   0.61535   0.34600   0.00000  Uiso   1.00
C8     C     0.71842   0.59768   0.28391   0.00000  Uiso   1.00
C9     C     0.76402   0.53405   0.19457   0.00000  Uiso   1.00
C10    C     0.64814   0.86009   0.42622   0.00000  Uiso   1.00
C11    C     0.66792   0.90292   0.48529   0.00000  Uiso   1.00
C12    C     0.67720   0.01678   0.48689   0.00000  Uiso   1.00
C13    C     0.69892   0.19570   0.51504   0.00000  Uiso   1.00
C14    C     0.61650   0.86417   0.31135   0.00000  Uiso   1.00
C15    C     0.57089   0.80529   0.33828   0.00000  Uiso   1.00
C16    C     0.52371   0.81546   0.31253   0.00000  Uiso   1.00
C17    C     0.48697   0.75469   0.34428   0.00000  Uiso   1.00
C18    C     0.65339   0.77231   0.29506   0.00000  Uiso   1.00
C19    C     0.67557   0.75477   0.23296   0.00000  Uiso   1.00
C20    C     0.70827   0.66625   0.22831   0.00000  Uiso   1.00
C21    C     0.63801   0.92854   0.37072   0.00000  Uiso   1.00
C22    C     0.64727   0.04234   0.37224   0.00000  Uiso   1.00
C23    C     0.66705   0.08535   0.43129   0.00000  Uiso   1.00
H24    H     0.64304   0.68486   0.45673   0.00000  Uiso   1.00
H25    H     0.55220   0.62307   0.46852   0.00000  Uiso   1.00
H26    H     0.70404   0.56240   0.38896   0.00000  Uiso   1.00
H27    H     0.67575   0.84993   0.52822   0.00000  Uiso   1.00
H28    H     0.44703   0.58473   0.45710   0.00000  Uiso   1.00
H29    H     0.76719   0.45682   0.28935   0.00000  Uiso   1.00
H30    H     0.70754   0.06313   0.58301   0.00000  Uiso   1.00
H31    H     0.60861   0.91746   0.26814   0.00000  Uiso   1.00
H32    H     0.51588   0.86844   0.26958   0.00000  Uiso   1.00
H33    H     0.66772   0.80776   0.19002   0.00000  Uiso   1.00
H34    H     0.63943   0.09529   0.32928   0.00000  Uiso   1.00
H35    H     0.41754   0.78387   0.29563   0.00000  Uiso   1.00
H36    H     0.73771   0.65596   0.12788   0.00000  Uiso   1.00
H37    H     0.67806   0.26227   0.42154   0.00000  Uiso   1.00
O38    O     0.37191   0.64783   0.38070   0.00000  Uiso   1.00
O39    O     0.79196   0.48003   0.16063   0.00000  Uiso   1.00
O40    O     0.71370   0.27549   0.54590   0.00000  Uiso   1.00
N41    N     0.45281   0.63834   0.41891   0.00000  Uiso   1.00
N42    N     0.75214   0.51874   0.26207   0.00000  Uiso   1.00
N43    N     0.69639   0.08558   0.53661   0.00000  Uiso   1.00
N44    N     0.43695   0.74550   0.33202   0.00000  Uiso   1.00
N45    N     0.73628   0.62590   0.17519   0.00000  Uiso   1.00
N46    N     0.68052   0.19274   0.44973   0.00000  Uiso   1.00
C47    C     0.13515   0.23815   0.91353   0.00000  Uiso   1.00
C48    C     0.08102   0.23684   0.89379   0.00000  Uiso   1.00
C49    C     0.04435   0.17604   0.92558   0.00000  Uiso   1.00
C50    C     0.99712   0.18612   0.89988   0.00000  Uiso   1.00
C51    C     0.91462   0.17363   0.87764   0.00000  Uiso   1.00
C52    C     0.16352   0.20387   0.85055   0.00000  Uiso   1.00
C53    C     0.19620   0.11535   0.84600   0.00000  Uiso   1.00
C54    C     0.21842   0.09768   0.78391   0.00000  Uiso   1.00
C55    C     0.26402   0.03405   0.69457   0.00000  Uiso   1.00
C56    C     0.14814   0.36009   0.92622   0.00000  Uiso   1.00
C57    C     0.16792   0.40292   0.98529   0.00000  Uiso   1.00
C58    C     0.17720   0.51678   0.98689   0.00000  Uiso   1.00
C59    C     0.19892   0.69570   0.01504   0.00000  Uiso   1.00
C60    C     0.11650   0.36417   0.81135   0.00000  Uiso   1.00
C61    C     0.07089   0.30529   0.83828   0.00000  Uiso   1.00
C62    C     0.02371   0.31546   0.81253   0.00000  Uiso   1.00
C63    C     0.98697   0.25469   0.84428   0.00000  Uiso   1.00
C64    C     0.15339   0.27231   0.79506   0.00000  Uiso   1.00
C65    C     0.17557   0.25477   0.73296   0.00000  Uiso   1.00
C66    C     0.20827   0.16625   0.72831   0.00000  Uiso   1.00
C67    C     0.13801   0.42854   0.87072   0.00000  Uiso   1.00
C68    C     0.14727   0.54234   0.87224   0.00000  Uiso   1.00
C69    C     0.16705   0.58535   0.93129   0.00000  Uiso   1.00
H70    H     0.14304   0.18486   0.95673   0.00000  Uiso   1.00
H71    H     0.05220   0.12307   0.96852   0.00000  Uiso   1.00
H72    H     0.20404   0.06240   0.88896   0.00000  Uiso   1.00
H73    H     0.17575   0.34993   0.02822   0.00000  Uiso   1.00
H74    H     0.94703   0.08473   0.95710   0.00000  Uiso   1.00
H75    H     0.26719   0.95682   0.78935   0.00000  Uiso   1.00
H76    H     0.20754   0.56313   0.08301   0.00000  Uiso   1.00
H77    H     0.10861   0.41746   0.76814   0.00000  Uiso   1.00
H78    H     0.01588   0.36844   0.76958   0.00000  Uiso   1.00
H79    H     0.16772   0.30776   0.69002   0.00000  Uiso   1.00
H80    H     0.13943   0.59529   0.82928   0.00000  Uiso   1.00
H81    H     0.91754   0.28387   0.79563   0.00000  Uiso   1.00
H82    H     0.23771   0.15596   0.62788   0.00000  Uiso   1.00
H83    H     0.17806   0.76227   0.92154   0.00000  Uiso   1.00
O84    O     0.87191   0.14783   0.88070   0.00000  Uiso   1.00
O85    O     0.29196   0.98003   0.66063   0.00000  Uiso   1.00
O86    O     0.21370   0.77549   0.04590   0.00000  Uiso   1.00
N87    N     0.95281   0.13834   0.91891   0.00000  Uiso   1.00
N88    N     0.25214   0.01874   0.76207   0.00000  Uiso   1.00
N89    N     0.19639   0.58558   0.03661   0.00000  Uiso   1.00
N90    N     0.93695   0.24550   0.83202   0.00000  Uiso   1.00
N91    N     0.23628   0.12590   0.67519   0.00000  Uiso   1.00
N92    N     0.18052   0.69274   0.94973   0.00000  Uiso   1.00
C93    C     0.36485   0.26185   0.41353   0.00000  Uiso   1.00
C94    C     0.41898   0.26316   0.39379   0.00000  Uiso   1.00
C95    C     0.45565   0.32396   0.42558   0.00000  Uiso   1.00
C96    C     0.50288   0.31388   0.39988   0.00000  Uiso   1.00
C97    C     0.58538   0.32637   0.37764   0.00000  Uiso   1.00
C98    C     0.33648   0.29613   0.35055   0.00000  Uiso   1.00
C99    C     0.30380   0.38465   0.34600   0.00000  Uiso   1.00
C100   C     0.28158   0.40232   0.28391   0.00000  Uiso   1.00
C101   C     0.23598   0.46595   0.19457   0.00000  Uiso   1.00
C102   C     0.35186   0.13991   0.42622   0.00000  Uiso   1.00
C103   C     0.33208   0.09708   0.48529   0.00000  Uiso   1.00
C104   C     0.32280   0.98322   0.48689   0.00000  Uiso   1.00
C105   C     0.30108   0.80430   0.51504   0.00000  Uiso   1.00
C106   C     0.38350   0.13583   0.31135   0.00000  Uiso   1.00
C107   C     0.42911   0.19471   0.33828   0.00000  Uiso   1.00
C108   C     0.47629   0.18454   0.31253   0.00000  Uiso   1.00
C109   C     0.51303   0.24531   0.34428   0.00000  Uiso   1.00
C110   C     0.34661   0.22769   0.29506   0.00000  Uiso   1.00
C111   C     0.32443   0.24523   0.23296   0.00000  Uiso   1.00
C112   C     0.29173   0.33375   0.22831   0.00000  Uiso   1.00
C113   C     0.36199   0.07146   0.37072   0.00000  Uiso   1.00
C114   C     0.35273   0.95766   0.37224   0.00000  Uiso   1.00
C115   C     0.33295   0.91465   0.43129   0.00000  Uiso   1.00
H116   H     0.35696   0.31514   0.45673   0.00000  Uiso   1.00
H117   H     0.44780   0.37693   0.46852   0.00000  Uiso   1.00
H118   H     0.29596   0.43760   0.38896   0.00000  Uiso   1.00
H119   H     0.32425   0.15007   0.52822   0.00000  Uiso   1.00
H120   H     0.55297   0.41527   0.45710   0.00000  Uiso   1.00
H121   H     0.23281   0.54318   0.28935   0.00000  Uiso   1.00
H122   H     0.29246   0.93687   0.58301   0.00000  Uiso   1.00
H123   H     0.39139   0.08254   0.26814   0.00000  Uiso   1.00
H124   H     0.48412   0.13156   0.26958   0.00000  Uiso   1.00
H125   H     0.33228   0.19224   0.19002   0.00000  Uiso   1.00
H126   H     0.36057   0.90471   0.32928   0.00000  Uiso   1.00
H127   H     0.58246   0.21613   0.29563   0.00000  Uiso   1.00
H128   H     0.26229   0.34404   0.12788   0.00000  Uiso   1.00
H129   H     0.32194   0.73773   0.42154   0.00000  Uiso   1.00
O130   O     0.62809   0.35217   0.38070   0.00000  Uiso   1.00
O131   O     0.20804   0.51997   0.16063   0.00000  Uiso   1.00
O132   O     0.28630   0.72451   0.54590   0.00000  Uiso   1.00
N133   N     0.54719   0.36166   0.41891   0.00000  Uiso   1.00
N134   N     0.24786   0.48126   0.26207   0.00000  Uiso   1.00
N135   N     0.30361   0.91442   0.53661   0.00000  Uiso   1.00
N136   N     0.56305   0.25450   0.33202   0.00000  Uiso   1.00
N137   N     0.26372   0.37410   0.17519   0.00000  Uiso   1.00
N138   N     0.31948   0.80726   0.44973   0.00000  Uiso   1.00
C139   C     0.86485   0.76185   0.91353   0.00000  Uiso   1.00
C140   C     0.91898   0.76316   0.89379   0.00000  Uiso   1.00
C141   C     0.95565   0.82396   0.92558   0.00000  Uiso   1.00
C142   C     0.00288   0.81388   0.89988   0.00000  Uiso   1.00
C143   C     0.08538   0.82637   0.87764   0.00000  Uiso   1.00
C144   C     0.83648   0.79613   0.85055   0.00000  Uiso   1.00
C145   C     0.80380   0.88465   0.84600   0.00000  Uiso   1.00
C146   C     0.78158   0.90232   0.78391   0.00000  Uiso   1.00
C147   C     0.73598   0.96595   0.69457   0.00000  Uiso   1.00
C148   C     0.85186   0.63991   0.92622   0.00000  Uiso   1.00
C149   C     0.83208   0.59708   0.98529   0.00000  Uiso   1.00
C150   C     0.82280   0.48322   0.98689   0.00000  Uiso   1.00
C151   C     0.80108   0.30430   0.01504   0.00000  Uiso   1.00
C152   C     0.88350   0.63583   0.81135   0.00000  Uiso   1.00
C153   C     0.92911   0.69471   0.83828   0.00000  Uiso   1.00
C154   C     0.97629   0.68454   0.81253   0.00000  Uiso   1.00
C155   C     0.01303   0.74531   0.84428   0.00000  Uiso   1.00
C156   C     0.84661   0.72769   0.79506   0.00000  Uiso   1.00
C157   C     0.82443   0.74523   0.73296   0.00000  Uiso   1.00
C158   C     0.79173   0.83375   0.72831   0.00000  Uiso   1.00
C159   C     0.86199   0.57146   0.87072   0.00000  Uiso   1.00
C160   C     0.85273   0.45766   0.87224   0.00000  Uiso   1.00
C161   C     0.83295   0.41465   0.93129   0.00000  Uiso   1.00
H162   H     0.85696   0.81514   0.95673   0.00000  Uiso   1.00
H163   H     0.94780   0.87693   0.96852   0.00000  Uiso   1.00
H164   H     0.79596   0.93760   0.88896   0.00000  Uiso   1.00
H165   H     0.82425   0.65007   0.02822   0.00000  Uiso   1.00
H166   H     0.05297   0.91527   0.95710   0.00000  Uiso   1.00
H167   H     0.73281   0.04318   0.78935   0.00000  Uiso   1.00
H168   H     0.79246   0.43687   0.08301   0.00000  Uiso   1.00
H169   H     0.89139   0.58254   0.76814   0.00000  Uiso   1.00
H170   H     0.98412   0.63156   0.76958   0.00000  Uiso   1.00
H171   H     0.83228   0.69224   0.69002   0.00000  Uiso   1.00
H172   H     0.86057   0.40471   0.82928   0.00000  Uiso   1.00
H173   H     0.08246   0.71613   0.79563   0.00000  Uiso   1.00
H174   H     0.76229   0.84404   0.62788   0.00000  Uiso   1.00
H175   H     0.82194   0.23773   0.92154   0.00000  Uiso   1.00
O176   O     0.12809   0.85217   0.88070   0.00000  Uiso   1.00
O177   O     0.70804   0.01997   0.66063   0.00000  Uiso   1.00
O178   O     0.78630   0.22451   0.04590   0.00000  Uiso   1.00
N179   N     0.04719   0.86166   0.91891   0.00000  Uiso   1.00
N180   N     0.74786   0.98126   0.76207   0.00000  Uiso   1.00
N181   N     0.80361   0.41442   0.03661   0.00000  Uiso   1.00
N182   N     0.06305   0.75450   0.83202   0.00000  Uiso   1.00
N183   N     0.76372   0.87410   0.67519   0.00000  Uiso   1.00
N184   N     0.81948   0.30726   0.94973   0.00000  Uiso   1.00
C185   C     0.13515   0.76185   0.41353   0.00000  Uiso   1.00
C186   C     0.08102   0.76316   0.39379   0.00000  Uiso   1.00
C187   C     0.04435   0.82396   0.42558   0.00000  Uiso   1.00
C188   C     0.99712   0.81388   0.39988   0.00000  Uiso   1.00
C189   C     0.91462   0.82637   0.37764   0.00000  Uiso   1.00
C190   C     0.16352   0.79613   0.35055   0.00000  Uiso   1.00
C191   C     0.19620   0.88465   0.34600   0.00000  Uiso   1.00
C192   C     0.21842   0.90232   0.28391   0.00000  Uiso   1.00
C193   C     0.26402   0.96595   0.19457   0.00000  Uiso   1.00
C194   C     0.14814   0.63991   0.42622   0.00000  Uiso   1.00
C195   C     0.16792   0.59708   0.48529   0.00000  Uiso   1.00
C196   C     0.17720   0.48322   0.48689   0.00000  Uiso   1.00
C197   C     0.19892   0.30430   0.51504   0.00000  Uiso   1.00
C198   C     0.11650   0.63583   0.31135   0.00000  Uiso   1.00
C199   C     0.07089   0.69471   0.33828   0.00000  Uiso   1.00
C200   C     0.02371   0.68454   0.31253   0.00000  Uiso   1.00
C201   C     0.98697   0.74531   0.34428   0.00000  Uiso   1.00
C202   C     0.15339   0.72769   0.29506   0.00000  Uiso   1.00
C203   C     0.17557   0.74523   0.23296   0.00000  Uiso   1.00
C204   C     0.20827   0.83375   0.22831   0.00000  Uiso   1.00
C205   C     0.13801   0.57146   0.37072   0.00000  Uiso   1.00
C206   C     0.14727   0.45766   0.37224   0.00000  Uiso   1.00
C207   C     0.16705   0.41465   0.43129   0.00000  Uiso   1.00
H208   H     0.14304   0.81514   0.45673   0.00000  Uiso   1.00
H209   H     0.05220   0.87693   0.46852   0.00000  Uiso   1.00
H210   H     0.20404   0.93760   0.38896   0.00000  Uiso   1.00
H211   H     0.17575   0.65007   0.52822   0.00000  Uiso   1.00
H212   H     0.94703   0.91527   0.45710   0.00000  Uiso   1.00
H213   H     0.26719   0.04318   0.28935   0.00000  Uiso   1.00
H214   H     0.20754   0.43687   0.58301   0.00000  Uiso   1.00
H215   H     0.10861   0.58254   0.26814   0.00000  Uiso   1.00
H216   H     0.01588   0.63156   0.26958   0.00000  Uiso   1.00
H217   H     0.16772   0.69224   0.19002   0.00000  Uiso   1.00
H218   H     0.13943   0.40471   0.32928   0.00000  Uiso   1.00
H219   H     0.91754   0.71613   0.29563   0.00000  Uiso   1.00
H220   H     0.23771   0.84404   0.12788   0.00000  Uiso   1.00
H221   H     0.17806   0.23773   0.42154   0.00000  Uiso   1.00
O222   O     0.87191   0.85217   0.38070   0.00000  Uiso   1.00
O223   O     0.29196   0.01997   0.16063   0.00000  Uiso   1.00
O224   O     0.21370   0.22451   0.54590   0.00000  Uiso   1.00
N225   N     0.95281   0.86166   0.41891   0.00000  Uiso   1.00
N226   N     0.25214   0.98126   0.26207   0.00000  Uiso   1.00
N227   N     0.19639   0.41442   0.53661   0.00000  Uiso   1.00
N228   N     0.93695   0.75450   0.33202   0.00000  Uiso   1.00
N229   N     0.23628   0.87410   0.17519   0.00000  Uiso   1.00
N230   N     0.18052   0.30726   0.44973   0.00000  Uiso   1.00
C231   C     0.63515   0.26185   0.91353   0.00000  Uiso   1.00
C232   C     0.58102   0.26316   0.89379   0.00000  Uiso   1.00
C233   C     0.54435   0.32396   0.92558   0.00000  Uiso   1.00
C234   C     0.49712   0.31388   0.89988   0.00000  Uiso   1.00
C235   C     0.41462   0.32637   0.87764   0.00000  Uiso   1.00
C236   C     0.66352   0.29613   0.85055   0.00000  Uiso   1.00
C237   C     0.69620   0.38465   0.84600   0.00000  Uiso   1.00
C238   C     0.71842   0.40232   0.78391   0.00000  Uiso   1.00
C239   C     0.76402   0.46595   0.69457   0.00000  Uiso   1.00
C240   C     0.64814   0.13991   0.92622   0.00000  Uiso   1.00
C241   C     0.66792   0.09708   0.98529   0.00000  Uiso   1.00
C242   C     0.67720   0.98322   0.98689   0.00000  Uiso   1.00
C243   C     0.69892   0.80430   0.01504   0.00000  Uiso   1.00
C244   C     0.61650   0.13583   0.81135   0.00000  Uiso   1.00
C245   C     0.57089   0.19471   0.83828   0.00000  Uiso   1.00
C246   C     0.52371   0.18454   0.81253   0.00000  Uiso   1.00
C247   C     0.48697   0.24531   0.84428   0.00000  Uiso   1.00
C248   C     0.65339   0.22769   0.79506   0.00000  Uiso   1.00
C249   C     0.67557   0.24523   0.73296   0.00000  Uiso   1.00
C250   C     0.70827   0.33375   0.72831   0.00000  Uiso   1.00
C251   C     0.63801   0.07146   0.87072   0.00000  Uiso   1.00
C252   C     0.64727   0.95766   0.87224   0.00000  Uiso   1.00
C253   C     0.66705   0.91465   0.93129   0.00000  Uiso   1.00
H254   H     0.64304   0.31514   0.95673   0.00000  Uiso   1.00
H255   H     0.55220   0.37693   0.96852   0.00000  Uiso   1.00
H256   H     0.70404   0.43760   0.88896   0.00000  Uiso   1.00
H257   H     0.67575   0.15007   0.02822   0.00000  Uiso   1.00
H258   H     0.44703   0.41527   0.95710   0.00000  Uiso   1.00
H259   H     0.76719   0.54318   0.78935   0.00000  Uiso   1.00
H260   H     0.70754   0.93687   0.08301   0.00000  Uiso   1.00
H261   H     0.60861   0.08254   0.76814   0.00000  Uiso   1.00
H262   H     0.51588   0.13156   0.76958   0.00000  Uiso   1.00
H263   H     0.66772   0.19224   0.69002   0.00000  Uiso   1.00
H264   H     0.63943   0.90471   0.82928   0.00000  Uiso   1.00
H265   H     0.41754   0.21613   0.79563   0.00000  Uiso   1.00
H266   H     0.73771   0.34404   0.62788   0.00000  Uiso   1.00
H267   H     0.67806   0.73773   0.92154   0.00000  Uiso   1.00
O268   O     0.37191   0.35217   0.88070   0.00000  Uiso   1.00
O269   O     0.79196   0.51997   0.66063   0.00000  Uiso   1.00
O270   O     0.71370   0.72451   0.04590   0.00000  Uiso   1.00
N271   N     0.45281   0.36166   0.91891   0.00000  Uiso   1.00
N272   N     0.75214   0.48126   0.76207   0.00000  Uiso   1.00
N273   N     0.69639   0.91442   0.03661   0.00000  Uiso   1.00
N274   N     0.43695   0.25450   0.83202   0.00000  Uiso   1.00
N275   N     0.73628   0.37410   0.67519   0.00000  Uiso   1.00
N276   N     0.68052   0.80726   0.94973   0.00000  Uiso   1.00
C277   C     0.86485   0.23815   0.41353   0.00000  Uiso   1.00
C278   C     0.91898   0.23684   0.39379   0.00000  Uiso   1.00
C279   C     0.95565   0.17604   0.42558   0.00000  Uiso   1.00
C280   C     0.00288   0.18612   0.39988   0.00000  Uiso   1.00
C281   C     0.08538   0.17363   0.37764   0.00000  Uiso   1.00
C282   C     0.83648   0.20387   0.35055   0.00000  Uiso   1.00
C283   C     0.80380   0.11535   0.34600   0.00000  Uiso   1.00
C284   C     0.78158   0.09768   0.28391   0.00000  Uiso   1.00
C285   C     0.73598   0.03405   0.19457   0.00000  Uiso   1.00
C286   C     0.85186   0.36009   0.42622   0.00000  Uiso   1.00
C287   C     0.83208   0.40292   0.48529   0.00000  Uiso   1.00
C288   C     0.82280   0.51678   0.48689   0.00000  Uiso   1.00
C289   C     0.80108   0.69570   0.51504   0.00000  Uiso   1.00
C290   C     0.88350   0.36417   0.31135   0.00000  Uiso   1.00
C291   C     0.92911   0.30529   0.33828   0.00000  Uiso   1.00
C292   C     0.97629   0.31546   0.31253   0.00000  Uiso   1.00
C293   C     0.01303   0.25469   0.34428   0.00000  Uiso   1.00
C294   C     0.84661   0.27231   0.29506   0.00000  Uiso   1.00
C295   C     0.82443   0.25477   0.23296   0.00000  Uiso   1.00
C296   C     0.79173   0.16625   0.22831   0.00000  Uiso   1.00
C297   C     0.86199   0.42854   0.37072   0.00000  Uiso   1.00
C298   C     0.85273   0.54234   0.37224   0.00000  Uiso   1.00
C299   C     0.83295   0.58535   0.43129   0.00000  Uiso   1.00
H300   H     0.85696   0.18486   0.45673   0.00000  Uiso   1.00
H301   H     0.94780   0.12307   0.46852   0.00000  Uiso   1.00
H302   H     0.79596   0.06240   0.38896   0.00000  Uiso   1.00
H303   H     0.82425   0.34993   0.52822   0.00000  Uiso   1.00
H304   H     0.05297   0.08473   0.45710   0.00000  Uiso   1.00
H305   H     0.73281   0.95682   0.28935   0.00000  Uiso   1.00
H306   H     0.79246   0.56313   0.58301   0.00000  Uiso   1.00
H307   H     0.89139   0.41746   0.26814   0.00000  Uiso   1.00
H308   H     0.98412   0.36844   0.26958   0.00000  Uiso   1.00
H309   H     0.83228   0.30776   0.19002   0.00000  Uiso   1.00
H310   H     0.86057   0.59529   0.32928   0.00000  Uiso   1.00
H311   H     0.08246   0.28387   0.29563   0.00000  Uiso   1.00
H312   H     0.76229   0.15596   0.12788   0.00000  Uiso   1.00
H313   H     0.82194   0.76227   0.42154   0.00000  Uiso   1.00
O314   O     0.12809   0.14783   0.38070   0.00000  Uiso   1.00
O315   O     0.70804   0.98003   0.16063   0.00000  Uiso   1.00
O316   O     0.78630   0.77549   0.54590   0.00000  Uiso   1.00
N317   N     0.04719   0.13834   0.41891   0.00000  Uiso   1.00
N318   N     0.74786   0.01874   0.26207   0.00000  Uiso   1.00
N319   N     0.80361   0.58558   0.53661   0.00000  Uiso   1.00
N320   N     0.06305   0.24550   0.33202   0.00000  Uiso   1.00
N321   N     0.76372   0.12590   0.17519   0.00000  Uiso   1.00
N322   N     0.81948   0.69274   0.44973   0.00000  Uiso   1.00
C323   C     0.36485   0.73815   0.91353   0.00000  Uiso   1.00
C324   C     0.41898   0.73684   0.89379   0.00000  Uiso   1.00
C325   C     0.45565   0.67604   0.92558   0.00000  Uiso   1.00
C326   C     0.50288   0.68612   0.89988   0.00000  Uiso   1.00
C327   C     0.58538   0.67363   0.87764   0.00000  Uiso   1.00
C328   C     0.33648   0.70387   0.85055   0.00000  Uiso   1.00
C329   C     0.30380   0.61535   0.84600   0.00000  Uiso   1.00
C330   C     0.28158   0.59768   0.78391   0.00000  Uiso   1.00
C331   C     0.23598   0.53405   0.69457   0.00000  Uiso   1.00
C332   C     0.35186   0.86009   0.92622   0.00000  Uiso   1.00
C333   C     0.33208   0.90292   0.98529   0.00000  Uiso   1.00
C334   C     0.32280   0.01678   0.98689   0.00000  Uiso   1.00
C335   C     0.30108   0.19570   0.01504   0.00000  Uiso   1.00
C336   C     0.38350   0.86417   0.81135   0.00000  Uiso   1.00
C337   C     0.42911   0.80529   0.83828   0.00000  Uiso   1.00
C338   C     0.47629   0.81546   0.81253   0.00000  Uiso   1.00
C339   C     0.51303   0.75469   0.84428   0.00000  Uiso   1.00
C340   C     0.34661   0.77231   0.79506   0.00000  Uiso   1.00
C341   C     0.32443   0.75477   0.73296   0.00000  Uiso   1.00
C342   C     0.29173   0.66625   0.72831   0.00000  Uiso   1.00
C343   C     0.36199   0.92854   0.87072   0.00000  Uiso   1.00
C344   C     0.35273   0.04234   0.87224   0.00000  Uiso   1.00
C345   C     0.33295   0.08535   0.93129   0.00000  Uiso   1.00
H346   H     0.35696   0.68486   0.95673   0.00000  Uiso   1.00
H347   H     0.44780   0.62307   0.96852   0.00000  Uiso   1.00
H348   H     0.29596   0.56240   0.88896   0.00000  Uiso   1.00
H349   H     0.32425   0.84993   0.02822   0.00000  Uiso   1.00
H350   H     0.55297   0.58473   0.95710   0.00000  Uiso   1.00
H351   H     0.23281   0.45682   0.78935   0.00000  Uiso   1.00
H352   H     0.29246   0.06313   0.08301   0.00000  Uiso   1.00
H353   H     0.39139   0.91746   0.76814   0.00000  Uiso   1.00
H354   H     0.48412   0.86844   0.76958   0.00000  Uiso   1.00
H355   H     0.33228   0.80776   0.69002   0.00000  Uiso   1.00
H356   H     0.36057   0.09529   0.82928   0.00000  Uiso   1.00
H357   H     0.58246   0.78387   0.79563   0.00000  Uiso   1.00
H358   H     0.26229   0.65596   0.62788   0.00000  Uiso   1.00
H359   H     0.32194   0.26227   0.92154   0.00000  Uiso   1.00
O360   O     0.62809   0.64783   0.88070   0.00000  Uiso   1.00
O361   O     0.20804   0.48003   0.66063   0.00000  Uiso   1.00
O362   O     0.28630   0.27549   0.04590   0.00000  Uiso   1.00
N363   N     0.54719   0.63834   0.91891   0.00000  Uiso   1.00
N364   N     0.24786   0.51874   0.76207   0.00000  Uiso   1.00
N365   N     0.30361   0.08558   0.03661   0.00000  Uiso   1.00
N366   N     0.56305   0.74550   0.83202   0.00000  Uiso   1.00
N367   N     0.26372   0.62590   0.67519   0.00000  Uiso   1.00
N368   N     0.31948   0.19274   0.94973   0.00000  Uiso   1.00
