data_job_06530
_audit_creation_date              2018-12-19
_audit_creation_method            'Materials Studio'
_symmetry_space_group_name_H-M    'P1'
_symmetry_Int_Tables_number       1
_symmetry_cell_setting            triclinic
loop_
_symmetry_equiv_pos_as_xyz
  x,y,z
_cell_length_a                    18.1292
_cell_length_b                    20.2892
_cell_length_c                    23.4543
_cell_angle_alpha                 67.3632
_cell_angle_beta                  74.3657
_cell_angle_gamma                 70.8907
loop_
_atom_site_label
_atom_site_type_symbol
_atom_site_fract_x
_atom_site_fract_y
_atom_site_fract_z
_atom_site_U_iso_or_equiv
_atom_site_adp_type
_atom_site_occupancy
C1     C     0.36598   0.62977   0.10013   0.00000  Uiso   1.00
C2     C     0.44223   0.62737   0.05254   0.00000  Uiso   1.00
C3     C     0.49106   0.56526   0.03800   0.00000  Uiso   1.00
C4     C     0.55813   0.57450   0.99316   0.00000  Uiso   1.00
C5     C     0.67388   0.56028   0.92373   0.00000  Uiso   1.00
C6     C     0.37642   0.66079   0.14643   0.00000  Uiso   1.00
C7     C     0.36992   0.62677   0.21082   0.00000  Uiso   1.00
C8     C     0.38158   0.66415   0.24502   0.00000  Uiso   1.00
C9     C     0.39511   0.70184   0.32134   0.00000  Uiso   1.00
C10    C     0.30140   0.68809   0.06460   0.00000  Uiso   1.00
C11    C     0.23180   0.67705   0.06021   0.00000  Uiso   1.00
C12    C     0.18029   0.73742   0.02552   0.00000  Uiso   1.00
C13    C     0.07733   0.81751   0.97480   0.00000  Uiso   1.00
C14    C     0.39825   0.75664   0.04637   0.00000  Uiso   1.00
C15    C     0.45976   0.69628   0.02334   0.00000  Uiso   1.00
C16    C     0.52676   0.70562   0.97851   0.00000  Uiso   1.00
C17    C     0.57569   0.64353   0.96390   0.00000  Uiso   1.00
C18    C     0.39395   0.72969   0.11723   0.00000  Uiso   1.00
C19    C     0.40562   0.76713   0.15134   0.00000  Uiso   1.00
C20    C     0.39913   0.73318   0.21576   0.00000  Uiso   1.00
C21    C     0.31893   0.75700   0.03540   0.00000  Uiso   1.00
C22    C     0.26751   0.81741   0.00072   0.00000  Uiso   1.00
C23    C     0.19784   0.80646   0.99627   0.00000  Uiso   1.00
H24    H     0.35233   0.57612   0.12287   0.00000  Uiso   1.00
H25    H     0.47748   0.51194   0.06061   0.00000  Uiso   1.00
H26    H     0.35634   0.57345   0.23340   0.00000  Uiso   1.00
H27    H     0.21826   0.62371   0.08281   0.00000  Uiso   1.00
H28    H     0.62398   0.47116   0.97872   0.00000  Uiso   1.00
H29    H     0.36853   0.60087   0.34307   0.00000  Uiso   1.00
H30    H     0.07734   0.70687   0.02551   0.00000  Uiso   1.00
H31    H     0.41189   0.81029   0.02364   0.00000  Uiso   1.00
H32    H     0.54031   0.75895   0.95592   0.00000  Uiso   1.00
H33    H     0.41918   0.82046   0.12872   0.00000  Uiso   1.00
H34    H     0.28109   0.87073   0.97813   0.00000  Uiso   1.00
H35    H     0.67497   0.67164   0.89375   0.00000  Uiso   1.00
H36    H     0.41952   0.80136   0.25811   0.00000  Uiso   1.00
H37    H     0.12834   0.90735   0.94055   0.00000  Uiso   1.00
O38    O     0.73289   0.53340   0.89350   0.00000  Uiso   1.00
O39    O     0.39774   0.70358   0.37151   0.00000  Uiso   1.00
O40    O     0.01571   0.84264   0.95488   0.00000  Uiso   1.00
N41    N     0.61835   0.52539   0.96801   0.00000  Uiso   1.00
N42    N     0.37953   0.64666   0.30865   0.00000  Uiso   1.00
N43    N     0.10728   0.74576   0.01178   0.00000  Uiso   1.00
N44    N     0.64579   0.63327   0.92229   0.00000  Uiso   1.00
N45    N     0.40697   0.75454   0.26293   0.00000  Uiso   1.00
N46    N     0.13472   0.85364   0.96606   0.00000  Uiso   1.00
C47    C     0.42123   0.12658   0.88216   0.00000  Uiso   1.00
C48    C     0.46543   0.05392   0.86993   0.00000  Uiso   1.00
C49    C     0.53016   0.00362   0.89644   0.00000  Uiso   1.00
C50    C     0.56221   0.94044   0.87924   0.00000  Uiso   1.00
C51    C     0.63567   0.82952   0.86665   0.00000  Uiso   1.00
C52    C     0.42351   0.18656   0.81823   0.00000  Uiso   1.00
C53    C     0.45298   0.24778   0.80128   0.00000  Uiso   1.00
C54    C     0.44973   0.29625   0.74057   0.00000  Uiso   1.00
C55    C     0.45804   0.39128   0.64773   0.00000  Uiso   1.00
C56    C     0.33489   0.12366   0.90507   0.00000  Uiso   1.00
C57    C     0.28984   0.13202   0.96111   0.00000  Uiso   1.00
C58    C     0.21197   0.12756   0.97350   0.00000  Uiso   1.00
C59    C     0.08271   0.12494   0.01548   0.00000  Uiso   1.00
C60    C     0.36304   0.10382   0.80448   0.00000  Uiso   1.00
C61    C     0.43382   0.04156   0.82774   0.00000  Uiso   1.00
C62    C     0.46578   0.97844   0.81050   0.00000  Uiso   1.00
C63    C     0.53054   0.92805   0.83698   0.00000  Uiso   1.00
C64    C     0.39190   0.17420   0.77604   0.00000  Uiso   1.00
C65    C     0.38860   0.22260   0.71534   0.00000  Uiso   1.00
C66    C     0.41806   0.28387   0.69830   0.00000  Uiso   1.00
C67    C     0.30328   0.11130   0.86288   0.00000  Uiso   1.00
C68    C     0.22547   0.10684   0.87517   0.00000  Uiso   1.00
C69    C     0.18031   0.11518   0.93123   0.00000  Uiso   1.00
H70    H     0.44584   0.13620   0.91500   0.00000  Uiso   1.00
H71    H     0.55461   0.01321   0.92908   0.00000  Uiso   1.00
H72    H     0.47743   0.25733   0.83394   0.00000  Uiso   1.00
H73    H     0.31432   0.14158   0.99375   0.00000  Uiso   1.00
H74    H     0.66127   0.87140   0.92607   0.00000  Uiso   1.00
H75    H     0.49851   0.38616   0.72547   0.00000  Uiso   1.00
H76    H     0.15457   0.14210   0.06246   0.00000  Uiso   1.00
H77    H     0.33843   0.09420   0.77163   0.00000  Uiso   1.00
H78    H     0.44131   0.96889   0.77785   0.00000  Uiso   1.00
H79    H     0.36413   0.21302   0.68271   0.00000  Uiso   1.00
H80    H     0.20103   0.09727   0.84251   0.00000  Uiso   1.00
H81    H     0.56932   0.83544   0.80332   0.00000  Uiso   1.00
H82    H     0.40656   0.35020   0.60272   0.00000  Uiso   1.00
H83    H     0.06262   0.10613   0.93971   0.00000  Uiso   1.00
O84    O     0.68492   0.77176   0.87136   0.00000  Uiso   1.00
O85    O     0.47138   0.44711   0.60818   0.00000  Uiso   1.00
O86    O     0.02014   0.12689   0.05030   0.00000  Uiso   1.00
N87    N     0.62550   0.88013   0.89634   0.00000  Uiso   1.00
N88    N     0.47335   0.36139   0.70879   0.00000  Uiso   1.00
N89    N     0.15178   0.13323   0.02383   0.00000  Uiso   1.00
N90    N     0.57602   0.86077   0.83029   0.00000  Uiso   1.00
N91    N     0.42386   0.34204   0.64274   0.00000  Uiso   1.00
N92    N     0.10230   0.11388   0.95778   0.00000  Uiso   1.00
C93    C     0.37707   0.81996   0.64863   0.00000  Uiso   1.00
C94    C     0.45711   0.83816   0.63142   0.00000  Uiso   1.00
C95    C     0.52082   0.81485   0.58917   0.00000  Uiso   1.00
C96    C     0.58889   0.83739   0.57990   0.00000  Uiso   1.00
C97    C     0.71257   0.85888   0.54835   0.00000  Uiso   1.00
C98    C     0.36384   0.78370   0.71957   0.00000  Uiso   1.00
C99    C     0.34912   0.71460   0.75144   0.00000  Uiso   1.00
C100   C     0.33866   0.69130   0.81637   0.00000  Uiso   1.00
C101   C     0.31747   0.62826   0.92168   0.00000  Uiso   1.00
C102   C     0.31545   0.89387   0.63511   0.00000  Uiso   1.00
C103   C     0.26003   0.91741   0.59597   0.00000  Uiso   1.00
C104   C     0.20881   0.98687   0.58980   0.00000  Uiso   1.00
C105   C     0.11249   0.09489   0.56396   0.00000  Uiso   1.00
C106   C     0.38466   0.90146   0.70729   0.00000  Uiso   1.00
C107   C     0.46123   0.88242   0.66328   0.00000  Uiso   1.00
C108   C     0.52922   0.90501   0.65407   0.00000  Uiso   1.00
C109   C     0.59302   0.88174   0.61181   0.00000  Uiso   1.00
C110   C     0.36796   0.82796   0.75143   0.00000  Uiso   1.00
C111   C     0.35752   0.80476   0.81634   0.00000  Uiso   1.00
C112   C     0.34279   0.73564   0.84829   0.00000  Uiso   1.00
C113   C     0.31957   0.93814   0.66697   0.00000  Uiso   1.00
C114   C     0.26843   0.00757   0.66086   0.00000  Uiso   1.00
C115   C     0.21294   0.03121   0.62172   0.00000  Uiso   1.00
H116   H     0.37386   0.78550   0.62383   0.00000  Uiso   1.00
H117   H     0.51761   0.78059   0.56452   0.00000  Uiso   1.00
H118   H     0.34593   0.68036   0.72677   0.00000  Uiso   1.00
H119   H     0.25685   0.88314   0.57132   0.00000  Uiso   1.00
H120   H     0.67882   0.79464   0.51284   0.00000  Uiso   1.00
H121   H     0.31679   0.58331   0.85494   0.00000  Uiso   1.00
H122   H     0.12895   0.01092   0.52715   0.00000  Uiso   1.00
H123   H     0.38786   0.93592   0.73210   0.00000  Uiso   1.00
H124   H     0.53239   0.93926   0.67873   0.00000  Uiso   1.00
H125   H     0.36071   0.83903   0.84098   0.00000  Uiso   1.00
H126   H     0.27163   0.04181   0.68553   0.00000  Uiso   1.00
H127   H     0.69082   0.92343   0.60554   0.00000  Uiso   1.00
H128   H     0.32878   0.71209   0.94764   0.00000  Uiso   1.00
H129   H     0.14095   0.13970   0.61984   0.00000  Uiso   1.00
O130   O     0.77965   0.85850   0.52215   0.00000  Uiso   1.00
O131   O     0.30466   0.58125   0.97097   0.00000  Uiso   1.00
O132   O     0.05823   0.14226   0.54090   0.00000  Uiso   1.00
N133   N     0.66180   0.82451   0.54197   0.00000  Uiso   1.00
N134   N     0.32334   0.62692   0.86182   0.00000  Uiso   1.00
N135   N     0.14771   0.02668   0.55537   0.00000  Uiso   1.00
N136   N     0.66826   0.89380   0.59185   0.00000  Uiso   1.00
N137   N     0.32979   0.69622   0.91169   0.00000  Uiso   1.00
N138   N     0.15417   0.09598   0.60525   0.00000  Uiso   1.00
C139   C     0.87570   0.22774   0.27881   0.00000  Uiso   1.00
C140   C     0.95792   0.24203   0.25610   0.00000  Uiso   1.00
C141   C     0.02886   0.18871   0.25344   0.00000  Uiso   1.00
C142   C     0.09773   0.21298   0.23122   0.00000  Uiso   1.00
C143   C     0.22571   0.22377   0.19878   0.00000  Uiso   1.00
C144   C     0.82924   0.27487   0.22515   0.00000  Uiso   1.00
C145   C     0.79198   0.24916   0.19648   0.00000  Uiso   1.00
C146   C     0.75252   0.30109   0.14822   0.00000  Uiso   1.00
C147   C     0.68067   0.36287   0.06778   0.00000  Uiso   1.00
C148   C     0.83732   0.26085   0.33139   0.00000  Uiso   1.00
C149   C     0.80684   0.22337   0.39204   0.00000  Uiso   1.00
C150   C     0.77417   0.26349   0.43323   0.00000  Uiso   1.00
C151   C     0.71488   0.30351   0.51773   0.00000  Uiso   1.00
C152   C     0.87187   0.36566   0.24410   0.00000  Uiso   1.00
C153   C     0.95584   0.31694   0.23724   0.00000  Uiso   1.00
C154   C     0.02462   0.34130   0.21502   0.00000  Uiso   1.00
C155   C     0.09565   0.28803   0.21233   0.00000  Uiso   1.00
C156   C     0.82716   0.34978   0.20630   0.00000  Uiso   1.00
C157   C     0.78775   0.40176   0.15807   0.00000  Uiso   1.00
C158   C     0.75044   0.37613   0.12933   0.00000  Uiso   1.00
C159   C     0.83525   0.33576   0.31254   0.00000  Uiso   1.00
C160   C     0.80261   0.37596   0.35363   0.00000  Uiso   1.00
C161   C     0.77209   0.33854   0.41433   0.00000  Uiso   1.00
H162   H     0.87732   0.16942   0.29349   0.00000  Uiso   1.00
H163   H     0.03044   0.13074   0.26803   0.00000  Uiso   1.00
H164   H     0.79359   0.19119   0.21109   0.00000  Uiso   1.00
H165   H     0.80846   0.16540   0.40662   0.00000  Uiso   1.00
H166   H     0.19929   0.12090   0.23146   0.00000  Uiso   1.00
H167   H     0.69986   0.24835   0.11141   0.00000  Uiso   1.00
H168   H     0.73120   0.19397   0.52373   0.00000  Uiso   1.00
H169   H     0.87025   0.42399   0.22942   0.00000  Uiso   1.00
H170   H     0.02300   0.39928   0.20043   0.00000  Uiso   1.00
H171   H     0.78615   0.45972   0.14349   0.00000  Uiso   1.00
H172   H     0.80101   0.43393   0.33902   0.00000  Uiso   1.00
H173   H     0.19325   0.33885   0.17659   0.00000  Uiso   1.00
H174   H     0.69381   0.46631   0.05655   0.00000  Uiso   1.00
H175   H     0.72516   0.41192   0.46886   0.00000  Uiso   1.00
O176   O     0.29687   0.20902   0.18610   0.00000  Uiso   1.00
O177   O     0.64162   0.37625   0.02861   0.00000  Uiso   1.00
O178   O     0.68275   0.30489   0.56956   0.00000  Uiso   1.00
N179   N     0.17690   0.17558   0.22253   0.00000  Uiso   1.00
N180   N     0.70998   0.29474   0.11029   0.00000  Uiso   1.00
N181   N     0.73926   0.24390   0.49577   0.00000  Uiso   1.00
N182   N     0.17365   0.29286   0.19301   0.00000  Uiso   1.00
N183   N     0.70673   0.41202   0.08077   0.00000  Uiso   1.00
N184   N     0.73601   0.36118   0.46625   0.00000  Uiso   1.00
C185   C     0.87452   0.70945   0.05904   0.00000  Uiso   1.00
C186   C     0.95331   0.65586   0.04563   0.00000  Uiso   1.00
C187   C     0.99506   0.65539   0.98668   0.00000  Uiso   1.00
C188   C     0.06599   0.60193   0.98433   0.00000  Uiso   1.00
C189   C     0.18406   0.52652   0.95519   0.00000  Uiso   1.00
C190   C     0.88802   0.74605   0.09995   0.00000  Uiso   1.00
C191   C     0.87488   0.82140   0.08667   0.00000  Uiso   1.00
C192   C     0.89083   0.84385   0.13005   0.00000  Uiso   1.00
C193   C     0.90750   0.90844   0.18526   0.00000  Uiso   1.00
C194   C     0.81768   0.66196   0.10051   0.00000  Uiso   1.00
C195   C     0.74537   0.66663   0.08772   0.00000  Uiso   1.00
C196   C     0.70209   0.61829   0.13158   0.00000  Uiso   1.00
C197   C     0.60953   0.55234   0.18767   0.00000  Uiso   1.00
C198   C     0.92622   0.61534   0.15968   0.00000  Uiso   1.00
C199   C     0.98138   0.60475   0.10030   0.00000  Uiso   1.00
C200   C     0.05226   0.55126   0.09803   0.00000  Uiso   1.00
C201   C     0.09412   0.55071   0.03909   0.00000  Uiso   1.00
C202   C     0.91610   0.69493   0.15461   0.00000  Uiso   1.00
C203   C     0.93207   0.71727   0.19802   0.00000  Uiso   1.00
C204   C     0.91896   0.79263   0.18482   0.00000  Uiso   1.00
C205   C     0.84575   0.61084   0.15518   0.00000  Uiso   1.00
C206   C     0.80257   0.56249   0.19907   0.00000  Uiso   1.00
C207   C     0.73022   0.56708   0.18635   0.00000  Uiso   1.00
H208   H     0.85266   0.74926   0.01648   0.00000  Uiso   1.00
H209   H     0.97332   0.69497   0.94439   0.00000  Uiso   1.00
H210   H     0.85314   0.86095   0.04437   0.00000  Uiso   1.00
H211   H     0.72366   0.70619   0.04542   0.00000  Uiso   1.00
H212   H     0.11948   0.61225   0.88857   0.00000  Uiso   1.00
H213   H     0.86606   0.96223   0.09939   0.00000  Uiso   1.00
H214   H     0.59302   0.63590   0.10160   0.00000  Uiso   1.00
H215   H     0.94808   0.57554   0.20224   0.00000  Uiso   1.00
H216   H     0.07398   0.51171   0.14034   0.00000  Uiso   1.00
H217   H     0.95380   0.67769   0.24032   0.00000  Uiso   1.00
H218   H     0.82432   0.52294   0.24137   0.00000  Uiso   1.00
H219   H     0.20118   0.46352   0.04761   0.00000  Uiso   1.00
H220   H     0.94775   0.81349   0.25843   0.00000  Uiso   1.00
H221   H     0.67472   0.48717   0.26064   0.00000  Uiso   1.00
O222   O     0.24144   0.49905   0.92402   0.00000  Uiso   1.00
O223   O     0.90894   0.95820   0.20061   0.00000  Uiso   1.00
O224   O     0.55073   0.53007   0.20351   0.00000  Uiso   1.00
N225   N     0.12143   0.58600   0.93449   0.00000  Uiso   1.00
N226   N     0.88450   0.91320   0.13159   0.00000  Uiso   1.00
N227   N     0.62922   0.60813   0.13367   0.00000  Uiso   1.00
N228   N     0.16539   0.50596   0.02007   0.00000  Uiso   1.00
N229   N     0.92846   0.83317   0.21717   0.00000  Uiso   1.00
N230   N     0.67319   0.52810   0.21925   0.00000  Uiso   1.00
C231   C     0.87852   0.46035   0.62746   0.00000  Uiso   1.00
C232   C     0.92156   0.44581   0.56630   0.00000  Uiso   1.00
C233   C     0.97979   0.47873   0.52431   0.00000  Uiso   1.00
C234   C     0.01191   0.45801   0.47106   0.00000  Uiso   1.00
C235   C     0.08261   0.44328   0.37775   0.00000  Uiso   1.00
C236   C     0.89159   0.38546   0.67883   0.00000  Uiso   1.00
C237   C     0.92462   0.36766   0.73146   0.00000  Uiso   1.00
C238   C     0.93150   0.29614   0.77294   0.00000  Uiso   1.00
C239   C     0.95563   0.18774   0.85437   0.00000  Uiso   1.00
C240   C     0.79052   0.48443   0.62362   0.00000  Uiso   1.00
C241   C     0.73855   0.54984   0.62984   0.00000  Uiso   1.00
C242   C     0.66033   0.56164   0.62485   0.00000  Uiso   1.00
C243   C     0.52752   0.60690   0.62054   0.00000  Uiso   1.00
C244   C     0.83199   0.36500   0.60757   0.00000  Uiso   1.00
C245   C     0.89628   0.39401   0.55550   0.00000  Uiso   1.00
C246   C     0.92831   0.37324   0.50229   0.00000  Uiso   1.00
C247   C     0.98659   0.40613   0.46023   0.00000  Uiso   1.00
C248   C     0.86632   0.33367   0.66803   0.00000  Uiso   1.00
C249   C     0.87315   0.26217   0.70945   0.00000  Uiso   1.00
C250   C     0.90618   0.24426   0.76212   0.00000  Uiso   1.00
C251   C     0.76524   0.43264   0.61281   0.00000  Uiso   1.00
C252   C     0.68708   0.44434   0.60782   0.00000  Uiso   1.00
C253   C     0.63501   0.50975   0.61402   0.00000  Uiso   1.00
H254   H     0.89819   0.50067   0.63588   0.00000  Uiso   1.00
H255   H     0.99934   0.51881   0.53269   0.00000  Uiso   1.00
H256   H     0.94417   0.40775   0.73981   0.00000  Uiso   1.00
H257   H     0.75813   0.58990   0.63820   0.00000  Uiso   1.00
H258   H     0.10036   0.51606   0.41353   0.00000  Uiso   1.00
H259   H     0.98401   0.28190   0.85027   0.00000  Uiso   1.00
H260   H     0.59171   0.66600   0.63600   0.00000  Uiso   1.00
H261   H     0.81231   0.32467   0.59915   0.00000  Uiso   1.00
H262   H     0.90874   0.33316   0.49394   0.00000  Uiso   1.00
H263   H     0.85358   0.22210   0.70107   0.00000  Uiso   1.00
H264   H     0.66754   0.40425   0.59946   0.00000  Uiso   1.00
H265   H     0.02683   0.36537   0.38209   0.00000  Uiso   1.00
H266   H     0.91048   0.13122   0.81883   0.00000  Uiso   1.00
H267   H     0.51818   0.51532   0.60456   0.00000  Uiso   1.00
O268   O     0.12860   0.44945   0.32927   0.00000  Uiso   1.00
O269   O     0.97594   0.14226   0.90226   0.00000  Uiso   1.00
O270   O     0.46126   0.64618   0.62114   0.00000  Uiso   1.00
N271   N     0.06981   0.47944   0.42056   0.00000  Uiso   1.00
N272   N     0.96104   0.26052   0.82888   0.00000  Uiso   1.00
N273   N     0.59427   0.61961   0.62858   0.00000  Uiso   1.00
N274   N     0.03024   0.39836   0.40364   0.00000  Uiso   1.00
N275   N     0.92147   0.17944   0.81196   0.00000  Uiso   1.00
N276   N     0.55470   0.53853   0.61166   0.00000  Uiso   1.00
C277   C     0.63591   0.34829   0.87729   0.00000  Uiso   1.00
C278   C     0.56521   0.34114   0.93008   0.00000  Uiso   1.00
C279   C     0.49855   0.39751   0.93689   0.00000  Uiso   1.00
C280   C     0.44037   0.37979   0.98837   0.00000  Uiso   1.00
C281   C     0.32930   0.37955   0.06378   0.00000  Uiso   1.00
C282   C     0.64456   0.29094   0.84728   0.00000  Uiso   1.00
C283   C     0.64462   0.30512   0.78447   0.00000  Uiso   1.00
C284   C     0.65325   0.24513   0.76625   0.00000  Uiso   1.00
C285   C     0.66543   0.16696   0.71310   0.00000  Uiso   1.00
C286   C     0.70840   0.32252   0.90886   0.00000  Uiso   1.00
C287   C     0.76216   0.36324   0.89781   0.00000  Uiso   1.00
C288   C     0.82456   0.32984   0.93143   0.00000  Uiso   1.00
C289   C     0.93587   0.30070   0.97388   0.00000  Uiso   1.00
C290   C     0.65113   0.21656   0.95662   0.00000  Uiso   1.00
C291   C     0.57347   0.26958   0.97317   0.00000  Uiso   1.00
C292   C     0.51538   0.25177   0.02466   0.00000  Uiso   1.00
C293   C     0.44865   0.30811   0.03154   0.00000  Uiso   1.00
C294   C     0.65282   0.21939   0.89037   0.00000  Uiso   1.00
C295   C     0.66145   0.15937   0.87224   0.00000  Uiso   1.00
C296   C     0.66153   0.17345   0.80942   0.00000  Uiso   1.00
C297   C     0.71667   0.25097   0.95195   0.00000  Uiso   1.00
C298   C     0.77899   0.21749   0.98558   0.00000  Uiso   1.00
C299   C     0.83283   0.25816   0.97459   0.00000  Uiso   1.00
H300   H     0.62948   0.40399   0.84373   0.00000  Uiso   1.00
H301   H     0.49217   0.45288   0.90353   0.00000  Uiso   1.00
H302   H     0.63823   0.36049   0.75113   0.00000  Uiso   1.00
H303   H     0.75575   0.41861   0.86446   0.00000  Uiso   1.00
H304   H     0.34357   0.47551   0.98881   0.00000  Uiso   1.00
H305   H     0.65157   0.28071   0.66747   0.00000  Uiso   1.00
H306   H     0.89939   0.40326   0.90644   0.00000  Uiso   1.00
H307   H     0.65756   0.16085   0.99016   0.00000  Uiso   1.00
H308   H     0.52179   0.19639   0.05800   0.00000  Uiso   1.00
H309   H     0.66785   0.10400   0.90560   0.00000  Uiso   1.00
H310   H     0.78537   0.16212   0.01893   0.00000  Uiso   1.00
H311   H     0.36761   0.26734   0.11418   0.00000  Uiso   1.00
H312   H     0.67561   0.07253   0.79284   0.00000  Uiso   1.00
H313   H     0.92342   0.19508   0.03181   0.00000  Uiso   1.00
O314   O     0.26576   0.39919   0.09346   0.00000  Uiso   1.00
O315   O     0.66986   0.14361   0.67188   0.00000  Uiso   1.00
O316   O     0.99498   0.30440   0.98540   0.00000  Uiso   1.00
N317   N     0.36787   0.42165   0.00901   0.00000  Uiso   1.00
N318   N     0.65582   0.23952   0.70858   0.00000  Uiso   1.00
N319   N     0.88751   0.35409   0.93199   0.00000  Uiso   1.00
N320   N     0.38080   0.30963   0.07647   0.00000  Uiso   1.00
N321   N     0.66875   0.12750   0.77605   0.00000  Uiso   1.00
N322   N     0.90045   0.24207   0.99945   0.00000  Uiso   1.00
C323   C     0.62463   0.88556   0.08931   0.00000  Uiso   1.00
C324   C     0.54861   0.94288   0.10137   0.00000  Uiso   1.00
C325   C     0.47488   0.94869   0.09038   0.00000  Uiso   1.00
C326   C     0.41271   0.00488   0.10450   0.00000  Uiso   1.00
C327   C     0.29294   0.08645   0.11956   0.00000  Uiso   1.00
C328   C     0.65520   0.84618   0.15156   0.00000  Uiso   1.00
C329   C     0.67111   0.77069   0.18277   0.00000  Uiso   1.00
C330   C     0.69868   0.74547   0.23914   0.00000  Uiso   1.00
C331   C     0.74445   0.67692   0.33211   0.00000  Uiso   1.00
C332   C     0.68427   0.92892   0.04559   0.00000  Uiso   1.00
C333   C     0.72464   0.92300   0.98770   0.00000  Uiso   1.00
C334   C     0.77671   0.96743   0.95486   0.00000  Uiso   1.00
C335   C     0.86762   0.02735   0.88329   0.00000  Uiso   1.00
C336   C     0.64533   0.97499   0.13393   0.00000  Uiso   1.00
C337   C     0.55985   0.99145   0.12561   0.00000  Uiso   1.00
C338   C     0.49778   0.04764   0.13974   0.00000  Uiso   1.00
C339   C     0.42397   0.05354   0.12878   0.00000  Uiso   1.00
C340   C     0.66644   0.89475   0.17580   0.00000  Uiso   1.00
C341   C     0.69400   0.86964   0.23213   0.00000  Uiso   1.00
C342   C     0.70994   0.79413   0.26342   0.00000  Uiso   1.00
C343   C     0.69552   0.97750   0.06982   0.00000  Uiso   1.00
C344   C     0.74754   0.02195   0.03707   0.00000  Uiso   1.00
C345   C     0.78797   0.01610   0.97914   0.00000  Uiso   1.00
H346   H     0.61588   0.84774   0.07045   0.00000  Uiso   1.00
H347   H     0.46620   0.91109   0.07163   0.00000  Uiso   1.00
H348   H     0.66241   0.73311   0.16400   0.00000  Uiso   1.00
H349   H     0.71593   0.88540   0.96896   0.00000  Uiso   1.00
H350   H     0.30521   0.00272   0.08364   0.00000  Uiso   1.00
H351   H     0.71894   0.62745   0.27840   0.00000  Uiso   1.00
H352   H     0.83180   0.94858   0.86713   0.00000  Uiso   1.00
H353   H     0.65408   0.01281   0.15280   0.00000  Uiso   1.00
H354   H     0.50650   0.08522   0.15850   0.00000  Uiso   1.00
H355   H     0.70270   0.90724   0.25087   0.00000  Uiso   1.00
H356   H     0.75622   0.05953   0.05584   0.00000  Uiso   1.00
H357   H     0.33791   0.14405   0.15416   0.00000  Uiso   1.00
H358   H     0.75164   0.76878   0.34892   0.00000  Uiso   1.00
H359   H     0.86450   0.08991   0.93764   0.00000  Uiso   1.00
O360   O     0.22377   0.11802   0.12118   0.00000  Uiso   1.00
O361   O     0.76659   0.62568   0.37669   0.00000  Uiso   1.00
O362   O     0.91466   0.04699   0.83711   0.00000  Uiso   1.00
N363   N     0.33316   0.02606   0.09944   0.00000  Uiso   1.00
N364   N     0.71996   0.67520   0.28154   0.00000  Uiso   1.00
N365   N     0.82550   0.97541   0.89704   0.00000  Uiso   1.00
N366   N     0.35076   0.10211   0.13739   0.00000  Uiso   1.00
N367   N     0.73756   0.75125   0.31948   0.00000  Uiso   1.00
N368   N     0.84309   0.05146   0.93498   0.00000  Uiso   1.00
C369   C     0.60651   0.10802   0.44224   0.00000  Uiso   1.00
C370   C     0.54418   0.08574   0.42599   0.00000  Uiso   1.00
C371   C     0.48879   0.04957   0.46873   0.00000  Uiso   1.00
C372   C     0.43686   0.03409   0.44448   0.00000  Uiso   1.00
C373   C     0.33953   0.99649   0.42910   0.00000  Uiso   1.00
C374   C     0.59358   0.19101   0.40925   0.00000  Uiso   1.00
C375   C     0.57973   0.24334   0.43792   0.00000  Uiso   1.00
C376   C     0.56941   0.31649   0.39957   0.00000  Uiso   1.00
C377   C     0.54883   0.44231   0.35818   0.00000  Uiso   1.00
C378   C     0.68608   0.07257   0.40988   0.00000  Uiso   1.00
C379   C     0.75002   0.02532   0.43906   0.00000  Uiso   1.00
C380   C     0.81758   0.99876   0.40124   0.00000  Uiso   1.00
C381   C     0.94063   0.94068   0.36082   0.00000  Uiso   1.00
C382   C     0.61281   0.14488   0.32317   0.00000  Uiso   1.00
C383   C     0.54761   0.10577   0.36132   0.00000  Uiso   1.00
C384   C     0.49576   0.09034   0.33700   0.00000  Uiso   1.00
C385   C     0.44029   0.05415   0.37970   0.00000  Uiso   1.00
C386   C     0.59700   0.21103   0.34458   0.00000  Uiso   1.00
C387   C     0.58670   0.28412   0.30618   0.00000  Uiso   1.00
C388   C     0.57283   0.33654   0.33478   0.00000  Uiso   1.00
C389   C     0.68951   0.09259   0.34520   0.00000  Uiso   1.00
C390   C     0.75699   0.06610   0.30733   0.00000  Uiso   1.00
C391   C     0.82101   0.01881   0.33645   0.00000  Uiso   1.00
H392   H     0.60385   0.09244   0.49259   0.00000  Uiso   1.00
H393   H     0.48615   0.03409   0.51878   0.00000  Uiso   1.00
H394   H     0.57710   0.22783   0.48796   0.00000  Uiso   1.00
H395   H     0.74735   0.00984   0.48911   0.00000  Uiso   1.00
H396   H     0.35715   0.97825   0.51930   0.00000  Uiso   1.00
H397   H     0.54894   0.38677   0.45432   0.00000  Uiso   1.00
H398   H     0.90796   0.92709   0.45674   0.00000  Uiso   1.00
H399   H     0.61548   0.16046   0.27282   0.00000  Uiso   1.00
H400   H     0.49842   0.10584   0.28695   0.00000  Uiso   1.00
H401   H     0.58936   0.29959   0.25614   0.00000  Uiso   1.00
H402   H     0.75961   0.08160   0.25728   0.00000  Uiso   1.00
H403   H     0.36710   0.03649   0.33113   0.00000  Uiso   1.00
H404   H     0.55889   0.44501   0.26616   0.00000  Uiso   1.00
H405   H     0.91791   0.98533   0.26857   0.00000  Uiso   1.00
O406   O     0.28490   0.97023   0.43847   0.00000  Uiso   1.00
O407   O     0.53652   0.50619   0.35323   0.00000  Uiso   1.00
O408   O     0.00755   0.90311   0.35640   0.00000  Uiso   1.00
N409   N     0.37557   0.99944   0.47307   0.00000  Uiso   1.00
N410   N     0.55486   0.38138   0.41232   0.00000  Uiso   1.00
N411   N     0.89053   0.95164   0.41458   0.00000  Uiso   1.00
N412   N     0.38093   0.03077   0.37182   0.00000  Uiso   1.00
N413   N     0.56022   0.41272   0.31107   0.00000  Uiso   1.00
N414   N     0.89588   0.98298   0.31333   0.00000  Uiso   1.00
C415   C     0.94609   0.98171   0.62804   0.00000  Uiso   1.00
C416   C     0.89975   0.92278   0.65475   0.00000  Uiso   1.00
C417   C     0.81796   0.93557   0.66936   0.00000  Uiso   1.00
C418   C     0.78697   0.87427   0.69333   0.00000  Uiso   1.00
C419   C     0.70755   0.79364   0.73346   0.00000  Uiso   1.00
C420   C     0.00288   0.96104   0.67329   0.00000  Uiso   1.00
C421   C     0.00781   0.00601   0.70347   0.00000  Uiso   1.00
C422   C     0.06365   0.97691   0.74303   0.00000  Uiso   1.00
C423   C     0.14438   0.95570   0.81190   0.00000  Uiso   1.00
C424   C     0.99760   0.97111   0.56747   0.00000  Uiso   1.00
C425   C     0.99811   0.02456   0.50868   0.00000  Uiso   1.00
C426   C     0.04952   0.00395   0.45915   0.00000  Uiso   1.00
C427   C     0.12205   0.99838   0.36373   0.00000  Uiso   1.00
C428   C     0.03650   0.85008   0.64464   0.00000  Uiso   1.00
C429   C     0.94886   0.85128   0.66377   0.00000  Uiso   1.00
C430   C     0.91799   0.78995   0.68772   0.00000  Uiso   1.00
C431   C     0.83617   0.80265   0.70235   0.00000  Uiso   1.00
C432   C     0.05199   0.88955   0.68230   0.00000  Uiso   1.00
C433   C     0.10784   0.86038   0.72183   0.00000  Uiso   1.00
C434   C     0.11284   0.90529   0.75206   0.00000  Uiso   1.00
C435   C     0.04671   0.89962   0.57648   0.00000  Uiso   1.00
C436   C     0.09813   0.87893   0.52704   0.00000  Uiso   1.00
C437   C     0.09872   0.93233   0.46819   0.00000  Uiso   1.00
H438   H     0.90786   0.03737   0.62103   0.00000  Uiso   1.00
H439   H     0.77998   0.99091   0.66238   0.00000  Uiso   1.00
H440   H     0.96981   0.06133   0.69648   0.00000  Uiso   1.00
H441   H     0.96010   0.07988   0.50172   0.00000  Uiso   1.00
H442   H     0.65985   0.90787   0.71222   0.00000  Uiso   1.00
H443   H     0.06013   0.05637   0.78410   0.00000  Uiso   1.00
H444   H     0.03967   0.09548   0.37342   0.00000  Uiso   1.00
H445   H     0.07473   0.79442   0.65166   0.00000  Uiso   1.00
H446   H     0.95600   0.73463   0.69469   0.00000  Uiso   1.00
H447   H     0.14583   0.80505   0.72879   0.00000  Uiso   1.00
H448   H     0.13612   0.82360   0.53403   0.00000  Uiso   1.00
H449   H     0.80272   0.69986   0.73845   0.00000  Uiso   1.00
H450   H     0.20300   0.84836   0.81033   0.00000  Uiso   1.00
H451   H     0.18254   0.88747   0.39965   0.00000  Uiso   1.00
O452   O     0.65017   0.76891   0.75311   0.00000  Uiso   1.00
O453   O     0.17533   0.96375   0.84740   0.00000  Uiso   1.00
O454   O     0.14848   0.01505   0.30860   0.00000  Uiso   1.00
N455   N     0.70977   0.86712   0.71248   0.00000  Uiso   1.00
N456   N     0.08400   0.00596   0.77969   0.00000  Uiso   1.00
N457   N     0.06489   0.04253   0.39574   0.00000  Uiso   1.00
N458   N     0.78665   0.75519   0.72659   0.00000  Uiso   1.00
N459   N     0.16087   0.89403   0.79380   0.00000  Uiso   1.00
N460   N     0.14176   0.93060   0.40985   0.00000  Uiso   1.00
C461   C     0.15780   0.39478   0.84168   0.00000  Uiso   1.00
C462   C     0.08442   0.45495   0.85295   0.00000  Uiso   1.00
C463   C     0.03514   0.45306   0.90995   0.00000  Uiso   1.00
C464   C     0.97102   0.51354   0.91053   0.00000  Uiso   1.00
C465   C     0.85923   0.59780   0.93631   0.00000  Uiso   1.00
C466   C     0.14502   0.37322   0.79022   0.00000  Uiso   1.00
C467   C     0.14671   0.30262   0.79447   0.00000  Uiso   1.00
C468   C     0.13362   0.29431   0.74223   0.00000  Uiso   1.00
C469   C     0.11597   0.25167   0.67060   0.00000  Uiso   1.00
C470   C     0.22597   0.43209   0.81312   0.00000  Uiso   1.00
C471   C     0.29574   0.41097   0.83661   0.00000  Uiso   1.00
C472   C     0.35082   0.45221   0.80365   0.00000  Uiso   1.00
C473   C     0.45886   0.50097   0.76758   0.00000  Uiso   1.00
C474   C     0.13156   0.50557   0.74135   0.00000  Uiso   1.00
C475   C     0.07017   0.51512   0.79845   0.00000  Uiso   1.00
C476   C     0.00611   0.57563   0.79895   0.00000  Uiso   1.00
C477   C     0.95675   0.57383   0.85593   0.00000  Uiso   1.00
C478   C     0.13077   0.43340   0.73572   0.00000  Uiso   1.00
C479   C     0.11768   0.42519   0.68346   0.00000  Uiso   1.00
C480   C     0.11934   0.35459   0.68763   0.00000  Uiso   1.00
C481   C     0.21172   0.49227   0.75862   0.00000  Uiso   1.00
C482   C     0.26671   0.53354   0.72561   0.00000  Uiso   1.00
C483   C     0.33654   0.51249   0.74905   0.00000  Uiso   1.00
H484   H     0.16889   0.34793   0.88411   0.00000  Uiso   1.00
H485   H     0.04618   0.40648   0.95211   0.00000  Uiso   1.00
H486   H     0.15775   0.25606   0.83664   0.00000  Uiso   1.00
H487   H     0.30675   0.36440   0.87878   0.00000  Uiso   1.00
H488   H     0.90384   0.49791   0.00347   0.00000  Uiso   1.00
H489   H     0.13910   0.18074   0.75999   0.00000  Uiso   1.00
H490   H     0.45330   0.40919   0.84886   0.00000  Uiso   1.00
H491   H     0.12047   0.55242   0.69892   0.00000  Uiso   1.00
H492   H     0.99510   0.62219   0.75677   0.00000  Uiso   1.00
H493   H     0.10666   0.47177   0.64130   0.00000  Uiso   1.00
H494   H     0.25566   0.58010   0.68344   0.00000  Uiso   1.00
H495   H     0.86237   0.67298   0.84492   0.00000  Uiso   1.00
H496   H     0.09764   0.35582   0.60144   0.00000  Uiso   1.00
H497   H     0.41183   0.58427   0.69031   0.00000  Uiso   1.00
O498   O     0.80149   0.62764   0.96558   0.00000  Uiso   1.00
O499   O     0.11016   0.21153   0.64615   0.00000  Uiso   1.00
O500   O     0.52238   0.51125   0.76274   0.00000  Uiso   1.00
N501   N     0.91129   0.52954   0.95822   0.00000  Uiso   1.00
N502   N     0.13124   0.23301   0.73059   0.00000  Uiso   1.00
N503   N     0.42500   0.44658   0.81366   0.00000  Uiso   1.00
N504   N     0.88898   0.62375   0.87290   0.00000  Uiso   1.00
N505   N     0.10892   0.32722   0.64527   0.00000  Uiso   1.00
N506   N     0.40268   0.54079   0.72834   0.00000  Uiso   1.00
C507   C     0.12957   0.64518   0.32984   0.00000  Uiso   1.00
C508   C     0.05098   0.66974   0.36962   0.00000  Uiso   1.00
C509   C     0.98031   0.65446   0.37324   0.00000  Uiso   1.00
C510   C     0.91500   0.68188   0.41232   0.00000  Uiso   1.00
C511   C     0.79216   0.71377   0.46887   0.00000  Uiso   1.00
C512   C     0.15545   0.71541   0.28810   0.00000  Uiso   1.00
C513   C     0.17263   0.73853   0.22317   0.00000  Uiso   1.00
C514   C     0.19527   0.80440   0.19362   0.00000  Uiso   1.00
C515   C     0.23468   0.90718   0.12360   0.00000  Uiso   1.00
C516   C     0.18891   0.60239   0.37494   0.00000  Uiso   1.00
C517   C     0.23425   0.53048   0.38302   0.00000  Uiso   1.00
C518   C     0.28509   0.50119   0.42658   0.00000  Uiso   1.00
C519   C     0.37646   0.42848   0.49139   0.00000  Uiso   1.00
C520   C     0.13926   0.72104   0.39280   0.00000  Uiso   1.00
C521   C     0.05624   0.71094   0.40382   0.00000  Uiso   1.00
C522   C     0.99103   0.73839   0.44291   0.00000  Uiso   1.00
C523   C     0.92027   0.72315   0.44659   0.00000  Uiso   1.00
C524   C     0.16071   0.75662   0.32230   0.00000  Uiso   1.00
C525   C     0.18335   0.82246   0.29284   0.00000  Uiso   1.00
C526   C     0.20055   0.84568   0.22788   0.00000  Uiso   1.00
C527   C     0.19418   0.64359   0.40914   0.00000  Uiso   1.00
C528   C     0.24497   0.61441   0.45269   0.00000  Uiso   1.00
C529   C     0.29036   0.54247   0.46084   0.00000  Uiso   1.00
H530   H     0.12547   0.61311   0.30321   0.00000  Uiso   1.00
H531   H     0.97626   0.62257   0.34676   0.00000  Uiso   1.00
H532   H     0.16855   0.70663   0.19672   0.00000  Uiso   1.00
H533   H     0.23016   0.49861   0.35654   0.00000  Uiso   1.00
H534   H     0.81314   0.65127   0.41012   0.00000  Uiso   1.00
H535   H     0.21863   0.82849   0.09374   0.00000  Uiso   1.00
H536   H     0.34855   0.38984   0.43076   0.00000  Uiso   1.00
H537   H     0.14336   0.75312   0.41943   0.00000  Uiso   1.00
H538   H     0.99512   0.77028   0.46937   0.00000  Uiso   1.00
H539   H     0.18742   0.85433   0.31932   0.00000  Uiso   1.00
H540   H     0.24902   0.64631   0.47915   0.00000  Uiso   1.00
H541   H     0.82845   0.77115   0.50963   0.00000  Uiso   1.00
H542   H     0.23395   0.94837   0.19324   0.00000  Uiso   1.00
H543   H     0.36386   0.50972   0.53027   0.00000  Uiso   1.00
O544   O     0.72295   0.71999   0.49061   0.00000  Uiso   1.00
O545   O     0.25496   0.95249   0.07553   0.00000  Uiso   1.00
O546   O     0.42540   0.37698   0.51770   0.00000  Uiso   1.00
N547   N     0.83709   0.67712   0.42669   0.00000  Uiso   1.00
N548   N     0.21619   0.84282   0.13089   0.00000  Uiso   1.00
N549   N     0.33766   0.43272   0.44597   0.00000  Uiso   1.00
N550   N     0.84533   0.74162   0.48024   0.00000  Uiso   1.00
N551   N     0.22443   0.90732   0.18444   0.00000  Uiso   1.00
N552   N     0.34590   0.49722   0.49952   0.00000  Uiso   1.00
