data_job_01852
_audit_creation_date              2018-12-19
_audit_creation_method            'Materials Studio'
_symmetry_space_group_name_H-M    'P1'
_symmetry_Int_Tables_number       1
_symmetry_cell_setting            triclinic
loop_
_symmetry_equiv_pos_as_xyz
  x,y,z
_cell_length_a                    18.9750
_cell_length_b                    14.8363
_cell_length_c                    21.2400
_cell_angle_alpha                 90.0000
_cell_angle_beta                  90.0000
_cell_angle_gamma                 90.0000
loop_
_atom_site_label
_atom_site_type_symbol
_atom_site_fract_x
_atom_site_fract_y
_atom_site_fract_z
_atom_site_U_iso_or_equiv
_atom_site_adp_type
_atom_site_occupancy
C1     C     0.59133   0.79536   0.94322   0.00000  Uiso   1.00
C2     C     0.54240   0.85451   0.90402   0.00000  Uiso   1.00
C3     C     0.55072   0.94617   0.89332   0.00000  Uiso   1.00
C4     C     0.50025   0.98810   0.85615   0.00000  Uiso   1.00
C5     C     0.43288   0.08726   0.79918   0.00000  Uiso   1.00
C6     C     0.54515   0.75185   0.99350   0.00000  Uiso   1.00
C7     C     0.55579   0.75718   0.05804   0.00000  Uiso   1.00
C8     C     0.50764   0.71268   0.09620   0.00000  Uiso   1.00
C9     C     0.44457   0.65240   0.17817   0.00000  Uiso   1.00
C10    C     0.61487   0.71908   0.89995   0.00000  Uiso   1.00
C11    C     0.68413   0.69684   0.88584   0.00000  Uiso   1.00
C12    C     0.69468   0.62473   0.84524   0.00000  Uiso   1.00
C13    C     0.73986   0.51357   0.78195   0.00000  Uiso   1.00
C14    C     0.48689   0.70684   0.89624   0.00000  Uiso   1.00
C15    C     0.48567   0.80643   0.87850   0.00000  Uiso   1.00
C16    C     0.43517   0.84823   0.84133   0.00000  Uiso   1.00
C17    C     0.44342   0.93994   0.83058   0.00000  Uiso   1.00
C18    C     0.48843   0.70377   0.96799   0.00000  Uiso   1.00
C19    C     0.44025   0.65924   0.00606   0.00000  Uiso   1.00
C20    C     0.45081   0.66451   0.07064   0.00000  Uiso   1.00
C21    C     0.55814   0.67099   0.87443   0.00000  Uiso   1.00
C22    C     0.56858   0.59891   0.83385   0.00000  Uiso   1.00
C23    C     0.63785   0.57656   0.81968   0.00000  Uiso   1.00
H24    H     0.63549   0.83279   0.96309   0.00000  Uiso   1.00
H25    H     0.59462   0.98335   0.91308   0.00000  Uiso   1.00
H26    H     0.59970   0.79438   0.07778   0.00000  Uiso   1.00
H27    H     0.72802   0.73406   0.90560   0.00000  Uiso   1.00
H28    H     0.52428   0.12908   0.84639   0.00000  Uiso   1.00
H29    H     0.53500   0.73061   0.19367   0.00000  Uiso   1.00
H30    H     0.80558   0.60339   0.83059   0.00000  Uiso   1.00
H31    H     0.44273   0.66941   0.87637   0.00000  Uiso   1.00
H32    H     0.39128   0.81101   0.82159   0.00000  Uiso   1.00
H33    H     0.39636   0.62204   0.98630   0.00000  Uiso   1.00
H34    H     0.52468   0.56171   0.81411   0.00000  Uiso   1.00
H35    H     0.35924   0.98920   0.77214   0.00000  Uiso   1.00
H36    H     0.36996   0.59072   0.11942   0.00000  Uiso   1.00
H37    H     0.64054   0.46351   0.75634   0.00000  Uiso   1.00
O38    O     0.41138   0.15524   0.77482   0.00000  Uiso   1.00
O39    O     0.42545   0.63244   0.23043   0.00000  Uiso   1.00
O40    O     0.78045   0.46555   0.75408   0.00000  Uiso   1.00
N41    N     0.49251   0.07673   0.83643   0.00000  Uiso   1.00
N42    N     0.50252   0.70418   0.16111   0.00000  Uiso   1.00
N43    N     0.75550   0.58524   0.82168   0.00000  Uiso   1.00
N44    N     0.40370   0.00146   0.79647   0.00000  Uiso   1.00
N45    N     0.41371   0.62892   0.12116   0.00000  Uiso   1.00
N46    N     0.66669   0.50997   0.78172   0.00000  Uiso   1.00
C47    C     0.90867   0.70464   0.44322   0.00000  Uiso   1.00
C48    C     0.95760   0.64549   0.40402   0.00000  Uiso   1.00
C49    C     0.94928   0.55383   0.39332   0.00000  Uiso   1.00
C50    C     0.99975   0.51190   0.35615   0.00000  Uiso   1.00
C51    C     0.06712   0.41274   0.29918   0.00000  Uiso   1.00
C52    C     0.95485   0.74815   0.49350   0.00000  Uiso   1.00
C53    C     0.94421   0.74282   0.55804   0.00000  Uiso   1.00
C54    C     0.99236   0.78732   0.59620   0.00000  Uiso   1.00
C55    C     0.05543   0.84760   0.67817   0.00000  Uiso   1.00
C56    C     0.88513   0.78092   0.39995   0.00000  Uiso   1.00
C57    C     0.81587   0.80316   0.38584   0.00000  Uiso   1.00
C58    C     0.80532   0.87527   0.34524   0.00000  Uiso   1.00
C59    C     0.76014   0.98643   0.28195   0.00000  Uiso   1.00
C60    C     0.01311   0.79316   0.39624   0.00000  Uiso   1.00
C61    C     0.01433   0.69357   0.37850   0.00000  Uiso   1.00
C62    C     0.06483   0.65177   0.34133   0.00000  Uiso   1.00
C63    C     0.05658   0.56006   0.33058   0.00000  Uiso   1.00
C64    C     0.01157   0.79623   0.46799   0.00000  Uiso   1.00
C65    C     0.05975   0.84076   0.50606   0.00000  Uiso   1.00
C66    C     0.04919   0.83549   0.57064   0.00000  Uiso   1.00
C67    C     0.94186   0.82901   0.37443   0.00000  Uiso   1.00
C68    C     0.93142   0.90109   0.33385   0.00000  Uiso   1.00
C69    C     0.86215   0.92344   0.31968   0.00000  Uiso   1.00
H70    H     0.86451   0.66721   0.46309   0.00000  Uiso   1.00
H71    H     0.90538   0.51665   0.41308   0.00000  Uiso   1.00
H72    H     0.90030   0.70562   0.57778   0.00000  Uiso   1.00
H73    H     0.77198   0.76594   0.40560   0.00000  Uiso   1.00
H74    H     0.97572   0.37092   0.34639   0.00000  Uiso   1.00
H75    H     0.96500   0.76939   0.69367   0.00000  Uiso   1.00
H76    H     0.69442   0.89661   0.33059   0.00000  Uiso   1.00
H77    H     0.05727   0.83059   0.37637   0.00000  Uiso   1.00
H78    H     0.10872   0.68899   0.32159   0.00000  Uiso   1.00
H79    H     0.10364   0.87796   0.48630   0.00000  Uiso   1.00
H80    H     0.97532   0.93829   0.31411   0.00000  Uiso   1.00
H81    H     0.14076   0.51080   0.27214   0.00000  Uiso   1.00
H82    H     0.13004   0.90928   0.61942   0.00000  Uiso   1.00
H83    H     0.85946   0.03649   0.25634   0.00000  Uiso   1.00
O84    O     0.08862   0.34476   0.27482   0.00000  Uiso   1.00
O85    O     0.07455   0.86756   0.73043   0.00000  Uiso   1.00
O86    O     0.71955   0.03445   0.25408   0.00000  Uiso   1.00
N87    N     0.00749   0.42327   0.33643   0.00000  Uiso   1.00
N88    N     0.99748   0.79582   0.66111   0.00000  Uiso   1.00
N89    N     0.74450   0.91476   0.32168   0.00000  Uiso   1.00
N90    N     0.09630   0.49854   0.29647   0.00000  Uiso   1.00
N91    N     0.08629   0.87108   0.62116   0.00000  Uiso   1.00
N92    N     0.83331   0.99003   0.28172   0.00000  Uiso   1.00
C93    C     0.40867   0.79536   0.55678   0.00000  Uiso   1.00
C94    C     0.45760   0.85451   0.59598   0.00000  Uiso   1.00
C95    C     0.44928   0.94617   0.60668   0.00000  Uiso   1.00
C96    C     0.49975   0.98810   0.64385   0.00000  Uiso   1.00
C97    C     0.56712   0.08726   0.70082   0.00000  Uiso   1.00
C98    C     0.45485   0.75185   0.50650   0.00000  Uiso   1.00
C99    C     0.44421   0.75718   0.44196   0.00000  Uiso   1.00
C100   C     0.49236   0.71268   0.40380   0.00000  Uiso   1.00
C101   C     0.55543   0.65240   0.32183   0.00000  Uiso   1.00
C102   C     0.38513   0.71908   0.60005   0.00000  Uiso   1.00
C103   C     0.31587   0.69684   0.61416   0.00000  Uiso   1.00
C104   C     0.30532   0.62473   0.65476   0.00000  Uiso   1.00
C105   C     0.26014   0.51357   0.71805   0.00000  Uiso   1.00
C106   C     0.51311   0.70684   0.60376   0.00000  Uiso   1.00
C107   C     0.51433   0.80643   0.62150   0.00000  Uiso   1.00
C108   C     0.56483   0.84823   0.65867   0.00000  Uiso   1.00
C109   C     0.55658   0.93994   0.66942   0.00000  Uiso   1.00
C110   C     0.51157   0.70377   0.53201   0.00000  Uiso   1.00
C111   C     0.55975   0.65924   0.49394   0.00000  Uiso   1.00
C112   C     0.54919   0.66451   0.42936   0.00000  Uiso   1.00
C113   C     0.44186   0.67099   0.62557   0.00000  Uiso   1.00
C114   C     0.43142   0.59891   0.66615   0.00000  Uiso   1.00
C115   C     0.36215   0.57656   0.68032   0.00000  Uiso   1.00
H116   H     0.36451   0.83279   0.53691   0.00000  Uiso   1.00
H117   H     0.40538   0.98335   0.58692   0.00000  Uiso   1.00
H118   H     0.40030   0.79438   0.42222   0.00000  Uiso   1.00
H119   H     0.27198   0.73406   0.59440   0.00000  Uiso   1.00
H120   H     0.47572   0.12908   0.65361   0.00000  Uiso   1.00
H121   H     0.46500   0.73061   0.30633   0.00000  Uiso   1.00
H122   H     0.19442   0.60339   0.66941   0.00000  Uiso   1.00
H123   H     0.55727   0.66941   0.62363   0.00000  Uiso   1.00
H124   H     0.60872   0.81101   0.67841   0.00000  Uiso   1.00
H125   H     0.60364   0.62204   0.51370   0.00000  Uiso   1.00
H126   H     0.47532   0.56171   0.68589   0.00000  Uiso   1.00
H127   H     0.64076   0.98920   0.72786   0.00000  Uiso   1.00
H128   H     0.63004   0.59072   0.38058   0.00000  Uiso   1.00
H129   H     0.35946   0.46351   0.74366   0.00000  Uiso   1.00
O130   O     0.58862   0.15524   0.72518   0.00000  Uiso   1.00
O131   O     0.57455   0.63244   0.26957   0.00000  Uiso   1.00
O132   O     0.21955   0.46555   0.74592   0.00000  Uiso   1.00
N133   N     0.50749   0.07673   0.66357   0.00000  Uiso   1.00
N134   N     0.49748   0.70418   0.33889   0.00000  Uiso   1.00
N135   N     0.24450   0.58524   0.67832   0.00000  Uiso   1.00
N136   N     0.59630   0.00146   0.70353   0.00000  Uiso   1.00
N137   N     0.58629   0.62892   0.37884   0.00000  Uiso   1.00
N138   N     0.33331   0.50997   0.71828   0.00000  Uiso   1.00
C139   C     0.09133   0.70464   0.05678   0.00000  Uiso   1.00
C140   C     0.04240   0.64549   0.09598   0.00000  Uiso   1.00
C141   C     0.05072   0.55383   0.10668   0.00000  Uiso   1.00
C142   C     0.00025   0.51190   0.14385   0.00000  Uiso   1.00
C143   C     0.93288   0.41274   0.20082   0.00000  Uiso   1.00
C144   C     0.04515   0.74815   0.00650   0.00000  Uiso   1.00
C145   C     0.05579   0.74282   0.94196   0.00000  Uiso   1.00
C146   C     0.00764   0.78732   0.90380   0.00000  Uiso   1.00
C147   C     0.94457   0.84760   0.82183   0.00000  Uiso   1.00
C148   C     0.11487   0.78092   0.10005   0.00000  Uiso   1.00
C149   C     0.18413   0.80316   0.11416   0.00000  Uiso   1.00
C150   C     0.19468   0.87527   0.15476   0.00000  Uiso   1.00
C151   C     0.23986   0.98643   0.21805   0.00000  Uiso   1.00
C152   C     0.98689   0.79316   0.10376   0.00000  Uiso   1.00
C153   C     0.98567   0.69357   0.12150   0.00000  Uiso   1.00
C154   C     0.93517   0.65177   0.15867   0.00000  Uiso   1.00
C155   C     0.94342   0.56006   0.16942   0.00000  Uiso   1.00
C156   C     0.98843   0.79623   0.03201   0.00000  Uiso   1.00
C157   C     0.94025   0.84076   0.99394   0.00000  Uiso   1.00
C158   C     0.95081   0.83549   0.92936   0.00000  Uiso   1.00
C159   C     0.05814   0.82901   0.12557   0.00000  Uiso   1.00
C160   C     0.06858   0.90109   0.16615   0.00000  Uiso   1.00
C161   C     0.13785   0.92344   0.18032   0.00000  Uiso   1.00
H162   H     0.13549   0.66721   0.03691   0.00000  Uiso   1.00
H163   H     0.09462   0.51665   0.08692   0.00000  Uiso   1.00
H164   H     0.09970   0.70562   0.92222   0.00000  Uiso   1.00
H165   H     0.22802   0.76594   0.09440   0.00000  Uiso   1.00
H166   H     0.02428   0.37092   0.15361   0.00000  Uiso   1.00
H167   H     0.03500   0.76939   0.80633   0.00000  Uiso   1.00
H168   H     0.30558   0.89661   0.16941   0.00000  Uiso   1.00
H169   H     0.94273   0.83059   0.12363   0.00000  Uiso   1.00
H170   H     0.89128   0.68899   0.17841   0.00000  Uiso   1.00
H171   H     0.89636   0.87796   0.01370   0.00000  Uiso   1.00
H172   H     0.02468   0.93829   0.18589   0.00000  Uiso   1.00
H173   H     0.85924   0.51080   0.22786   0.00000  Uiso   1.00
H174   H     0.86996   0.90928   0.88058   0.00000  Uiso   1.00
H175   H     0.14054   0.03649   0.24366   0.00000  Uiso   1.00
O176   O     0.91138   0.34476   0.22518   0.00000  Uiso   1.00
O177   O     0.92545   0.86756   0.76957   0.00000  Uiso   1.00
O178   O     0.28045   0.03445   0.24592   0.00000  Uiso   1.00
N179   N     0.99251   0.42327   0.16357   0.00000  Uiso   1.00
N180   N     0.00252   0.79582   0.83889   0.00000  Uiso   1.00
N181   N     0.25550   0.91476   0.17832   0.00000  Uiso   1.00
N182   N     0.90370   0.49854   0.20353   0.00000  Uiso   1.00
N183   N     0.91371   0.87108   0.87884   0.00000  Uiso   1.00
N184   N     0.16669   0.99003   0.21828   0.00000  Uiso   1.00
C185   C     0.40867   0.20464   0.05678   0.00000  Uiso   1.00
C186   C     0.45760   0.14549   0.09598   0.00000  Uiso   1.00
C187   C     0.44928   0.05383   0.10668   0.00000  Uiso   1.00
C188   C     0.49975   0.01190   0.14385   0.00000  Uiso   1.00
C189   C     0.56712   0.91274   0.20082   0.00000  Uiso   1.00
C190   C     0.45485   0.24815   0.00650   0.00000  Uiso   1.00
C191   C     0.44421   0.24282   0.94196   0.00000  Uiso   1.00
C192   C     0.49236   0.28732   0.90380   0.00000  Uiso   1.00
C193   C     0.55543   0.34760   0.82183   0.00000  Uiso   1.00
C194   C     0.38513   0.28092   0.10005   0.00000  Uiso   1.00
C195   C     0.31587   0.30316   0.11416   0.00000  Uiso   1.00
C196   C     0.30532   0.37527   0.15476   0.00000  Uiso   1.00
C197   C     0.26014   0.48643   0.21805   0.00000  Uiso   1.00
C198   C     0.51311   0.29316   0.10376   0.00000  Uiso   1.00
C199   C     0.51433   0.19357   0.12150   0.00000  Uiso   1.00
C200   C     0.56483   0.15177   0.15867   0.00000  Uiso   1.00
C201   C     0.55658   0.06006   0.16942   0.00000  Uiso   1.00
C202   C     0.51157   0.29623   0.03201   0.00000  Uiso   1.00
C203   C     0.55975   0.34076   0.99394   0.00000  Uiso   1.00
C204   C     0.54919   0.33549   0.92936   0.00000  Uiso   1.00
C205   C     0.44186   0.32901   0.12557   0.00000  Uiso   1.00
C206   C     0.43142   0.40109   0.16615   0.00000  Uiso   1.00
C207   C     0.36215   0.42344   0.18032   0.00000  Uiso   1.00
H208   H     0.36451   0.16721   0.03691   0.00000  Uiso   1.00
H209   H     0.40538   0.01665   0.08692   0.00000  Uiso   1.00
H210   H     0.40030   0.20562   0.92222   0.00000  Uiso   1.00
H211   H     0.27198   0.26594   0.09440   0.00000  Uiso   1.00
H212   H     0.47572   0.87092   0.15361   0.00000  Uiso   1.00
H213   H     0.46500   0.26939   0.80633   0.00000  Uiso   1.00
H214   H     0.19442   0.39661   0.16941   0.00000  Uiso   1.00
H215   H     0.55727   0.33059   0.12363   0.00000  Uiso   1.00
H216   H     0.60872   0.18899   0.17841   0.00000  Uiso   1.00
H217   H     0.60364   0.37796   0.01370   0.00000  Uiso   1.00
H218   H     0.47532   0.43829   0.18589   0.00000  Uiso   1.00
H219   H     0.64076   0.01080   0.22786   0.00000  Uiso   1.00
H220   H     0.63004   0.40928   0.88058   0.00000  Uiso   1.00
H221   H     0.35946   0.53649   0.24366   0.00000  Uiso   1.00
O222   O     0.58862   0.84476   0.22518   0.00000  Uiso   1.00
O223   O     0.57455   0.36756   0.76957   0.00000  Uiso   1.00
O224   O     0.21955   0.53445   0.24592   0.00000  Uiso   1.00
N225   N     0.50749   0.92327   0.16357   0.00000  Uiso   1.00
N226   N     0.49748   0.29582   0.83889   0.00000  Uiso   1.00
N227   N     0.24450   0.41476   0.17832   0.00000  Uiso   1.00
N228   N     0.59630   0.99854   0.20353   0.00000  Uiso   1.00
N229   N     0.58629   0.37108   0.87884   0.00000  Uiso   1.00
N230   N     0.33331   0.49003   0.21828   0.00000  Uiso   1.00
C231   C     0.09133   0.29536   0.55678   0.00000  Uiso   1.00
C232   C     0.04240   0.35451   0.59598   0.00000  Uiso   1.00
C233   C     0.05072   0.44617   0.60668   0.00000  Uiso   1.00
C234   C     0.00025   0.48810   0.64385   0.00000  Uiso   1.00
C235   C     0.93288   0.58726   0.70082   0.00000  Uiso   1.00
C236   C     0.04515   0.25185   0.50650   0.00000  Uiso   1.00
C237   C     0.05579   0.25718   0.44196   0.00000  Uiso   1.00
C238   C     0.00764   0.21268   0.40380   0.00000  Uiso   1.00
C239   C     0.94457   0.15240   0.32183   0.00000  Uiso   1.00
C240   C     0.11487   0.21908   0.60005   0.00000  Uiso   1.00
C241   C     0.18413   0.19684   0.61416   0.00000  Uiso   1.00
C242   C     0.19468   0.12473   0.65476   0.00000  Uiso   1.00
C243   C     0.23986   0.01357   0.71805   0.00000  Uiso   1.00
C244   C     0.98689   0.20684   0.60376   0.00000  Uiso   1.00
C245   C     0.98567   0.30643   0.62150   0.00000  Uiso   1.00
C246   C     0.93517   0.34823   0.65867   0.00000  Uiso   1.00
C247   C     0.94342   0.43994   0.66942   0.00000  Uiso   1.00
C248   C     0.98843   0.20377   0.53201   0.00000  Uiso   1.00
C249   C     0.94025   0.15924   0.49394   0.00000  Uiso   1.00
C250   C     0.95081   0.16451   0.42936   0.00000  Uiso   1.00
C251   C     0.05814   0.17099   0.62557   0.00000  Uiso   1.00
C252   C     0.06858   0.09891   0.66615   0.00000  Uiso   1.00
C253   C     0.13785   0.07656   0.68032   0.00000  Uiso   1.00
H254   H     0.13549   0.33279   0.53691   0.00000  Uiso   1.00
H255   H     0.09462   0.48335   0.58692   0.00000  Uiso   1.00
H256   H     0.09970   0.29438   0.42222   0.00000  Uiso   1.00
H257   H     0.22802   0.23406   0.59440   0.00000  Uiso   1.00
H258   H     0.02428   0.62908   0.65361   0.00000  Uiso   1.00
H259   H     0.03500   0.23061   0.30633   0.00000  Uiso   1.00
H260   H     0.30558   0.10339   0.66941   0.00000  Uiso   1.00
H261   H     0.94273   0.16941   0.62363   0.00000  Uiso   1.00
H262   H     0.89128   0.31101   0.67841   0.00000  Uiso   1.00
H263   H     0.89636   0.12204   0.51370   0.00000  Uiso   1.00
H264   H     0.02468   0.06171   0.68589   0.00000  Uiso   1.00
H265   H     0.85924   0.48920   0.72786   0.00000  Uiso   1.00
H266   H     0.86996   0.09072   0.38058   0.00000  Uiso   1.00
H267   H     0.14054   0.96351   0.74366   0.00000  Uiso   1.00
O268   O     0.91138   0.65524   0.72518   0.00000  Uiso   1.00
O269   O     0.92545   0.13244   0.26957   0.00000  Uiso   1.00
O270   O     0.28045   0.96555   0.74592   0.00000  Uiso   1.00
N271   N     0.99251   0.57673   0.66357   0.00000  Uiso   1.00
N272   N     0.00252   0.20418   0.33889   0.00000  Uiso   1.00
N273   N     0.25550   0.08524   0.67832   0.00000  Uiso   1.00
N274   N     0.90370   0.50146   0.70353   0.00000  Uiso   1.00
N275   N     0.91371   0.12892   0.37884   0.00000  Uiso   1.00
N276   N     0.16669   0.00997   0.71828   0.00000  Uiso   1.00
C277   C     0.59133   0.20464   0.44322   0.00000  Uiso   1.00
C278   C     0.54240   0.14549   0.40402   0.00000  Uiso   1.00
C279   C     0.55072   0.05383   0.39332   0.00000  Uiso   1.00
C280   C     0.50025   0.01190   0.35615   0.00000  Uiso   1.00
C281   C     0.43288   0.91274   0.29918   0.00000  Uiso   1.00
C282   C     0.54515   0.24815   0.49350   0.00000  Uiso   1.00
C283   C     0.55579   0.24282   0.55804   0.00000  Uiso   1.00
C284   C     0.50764   0.28732   0.59620   0.00000  Uiso   1.00
C285   C     0.44457   0.34760   0.67817   0.00000  Uiso   1.00
C286   C     0.61487   0.28092   0.39995   0.00000  Uiso   1.00
C287   C     0.68413   0.30316   0.38584   0.00000  Uiso   1.00
C288   C     0.69468   0.37527   0.34524   0.00000  Uiso   1.00
C289   C     0.73986   0.48643   0.28195   0.00000  Uiso   1.00
C290   C     0.48689   0.29316   0.39624   0.00000  Uiso   1.00
C291   C     0.48567   0.19357   0.37850   0.00000  Uiso   1.00
C292   C     0.43517   0.15177   0.34133   0.00000  Uiso   1.00
C293   C     0.44342   0.06006   0.33058   0.00000  Uiso   1.00
C294   C     0.48843   0.29623   0.46799   0.00000  Uiso   1.00
C295   C     0.44025   0.34076   0.50606   0.00000  Uiso   1.00
C296   C     0.45081   0.33549   0.57064   0.00000  Uiso   1.00
C297   C     0.55814   0.32901   0.37443   0.00000  Uiso   1.00
C298   C     0.56858   0.40109   0.33385   0.00000  Uiso   1.00
C299   C     0.63785   0.42344   0.31968   0.00000  Uiso   1.00
H300   H     0.63549   0.16721   0.46309   0.00000  Uiso   1.00
H301   H     0.59462   0.01665   0.41308   0.00000  Uiso   1.00
H302   H     0.59970   0.20562   0.57778   0.00000  Uiso   1.00
H303   H     0.72802   0.26594   0.40560   0.00000  Uiso   1.00
H304   H     0.52428   0.87092   0.34639   0.00000  Uiso   1.00
H305   H     0.53500   0.26939   0.69367   0.00000  Uiso   1.00
H306   H     0.80558   0.39661   0.33059   0.00000  Uiso   1.00
H307   H     0.44273   0.33059   0.37637   0.00000  Uiso   1.00
H308   H     0.39128   0.18899   0.32159   0.00000  Uiso   1.00
H309   H     0.39636   0.37796   0.48630   0.00000  Uiso   1.00
H310   H     0.52468   0.43829   0.31411   0.00000  Uiso   1.00
H311   H     0.35924   0.01080   0.27214   0.00000  Uiso   1.00
H312   H     0.36996   0.40928   0.61942   0.00000  Uiso   1.00
H313   H     0.64054   0.53649   0.25634   0.00000  Uiso   1.00
O314   O     0.41138   0.84476   0.27482   0.00000  Uiso   1.00
O315   O     0.42545   0.36756   0.73043   0.00000  Uiso   1.00
O316   O     0.78045   0.53445   0.25408   0.00000  Uiso   1.00
N317   N     0.49251   0.92327   0.33643   0.00000  Uiso   1.00
N318   N     0.50252   0.29582   0.66111   0.00000  Uiso   1.00
N319   N     0.75550   0.41476   0.32168   0.00000  Uiso   1.00
N320   N     0.40370   0.99854   0.29647   0.00000  Uiso   1.00
N321   N     0.41371   0.37108   0.62116   0.00000  Uiso   1.00
N322   N     0.66669   0.49003   0.28172   0.00000  Uiso   1.00
C323   C     0.90867   0.29536   0.94322   0.00000  Uiso   1.00
C324   C     0.95760   0.35451   0.90402   0.00000  Uiso   1.00
C325   C     0.94928   0.44617   0.89332   0.00000  Uiso   1.00
C326   C     0.99975   0.48810   0.85615   0.00000  Uiso   1.00
C327   C     0.06712   0.58726   0.79918   0.00000  Uiso   1.00
C328   C     0.95485   0.25185   0.99350   0.00000  Uiso   1.00
C329   C     0.94421   0.25718   0.05804   0.00000  Uiso   1.00
C330   C     0.99236   0.21268   0.09620   0.00000  Uiso   1.00
C331   C     0.05543   0.15240   0.17817   0.00000  Uiso   1.00
C332   C     0.88513   0.21908   0.89995   0.00000  Uiso   1.00
C333   C     0.81587   0.19684   0.88584   0.00000  Uiso   1.00
C334   C     0.80532   0.12473   0.84524   0.00000  Uiso   1.00
C335   C     0.76014   0.01357   0.78195   0.00000  Uiso   1.00
C336   C     0.01311   0.20684   0.89624   0.00000  Uiso   1.00
C337   C     0.01433   0.30643   0.87850   0.00000  Uiso   1.00
C338   C     0.06483   0.34823   0.84133   0.00000  Uiso   1.00
C339   C     0.05658   0.43994   0.83058   0.00000  Uiso   1.00
C340   C     0.01157   0.20377   0.96799   0.00000  Uiso   1.00
C341   C     0.05975   0.15924   0.00606   0.00000  Uiso   1.00
C342   C     0.04919   0.16451   0.07064   0.00000  Uiso   1.00
C343   C     0.94186   0.17099   0.87443   0.00000  Uiso   1.00
C344   C     0.93142   0.09891   0.83385   0.00000  Uiso   1.00
C345   C     0.86215   0.07656   0.81968   0.00000  Uiso   1.00
H346   H     0.86451   0.33279   0.96309   0.00000  Uiso   1.00
H347   H     0.90538   0.48335   0.91308   0.00000  Uiso   1.00
H348   H     0.90030   0.29438   0.07778   0.00000  Uiso   1.00
H349   H     0.77198   0.23406   0.90560   0.00000  Uiso   1.00
H350   H     0.97572   0.62908   0.84639   0.00000  Uiso   1.00
H351   H     0.96500   0.23061   0.19367   0.00000  Uiso   1.00
H352   H     0.69442   0.10339   0.83059   0.00000  Uiso   1.00
H353   H     0.05727   0.16941   0.87637   0.00000  Uiso   1.00
H354   H     0.10872   0.31101   0.82159   0.00000  Uiso   1.00
H355   H     0.10364   0.12204   0.98630   0.00000  Uiso   1.00
H356   H     0.97532   0.06171   0.81411   0.00000  Uiso   1.00
H357   H     0.14076   0.48920   0.77214   0.00000  Uiso   1.00
H358   H     0.13004   0.09072   0.11942   0.00000  Uiso   1.00
H359   H     0.85946   0.96351   0.75634   0.00000  Uiso   1.00
O360   O     0.08862   0.65524   0.77482   0.00000  Uiso   1.00
O361   O     0.07455   0.13244   0.23043   0.00000  Uiso   1.00
O362   O     0.71955   0.96555   0.75408   0.00000  Uiso   1.00
N363   N     0.00749   0.57673   0.83643   0.00000  Uiso   1.00
N364   N     0.99748   0.20418   0.16111   0.00000  Uiso   1.00
N365   N     0.74450   0.08524   0.82168   0.00000  Uiso   1.00
N366   N     0.09630   0.50146   0.79647   0.00000  Uiso   1.00
N367   N     0.08629   0.12892   0.12116   0.00000  Uiso   1.00
N368   N     0.83331   0.00997   0.78172   0.00000  Uiso   1.00
