data_job_04458
_audit_creation_date              2018-12-19
_audit_creation_method            'Materials Studio'
_symmetry_space_group_name_H-M    'P1'
_symmetry_Int_Tables_number       1
_symmetry_cell_setting            triclinic
loop_
_symmetry_equiv_pos_as_xyz
  x,y,z
_cell_length_a                    14.1949
_cell_length_b                    22.4972
_cell_length_c                    24.4382
_cell_angle_alpha                 90.0000
_cell_angle_beta                  143.0223
_cell_angle_gamma                 90.0000
loop_
_atom_site_label
_atom_site_type_symbol
_atom_site_fract_x
_atom_site_fract_y
_atom_site_fract_z
_atom_site_U_iso_or_equiv
_atom_site_adp_type
_atom_site_occupancy
C1     C     0.35049   0.84860   0.63766   0.00000  Uiso   1.00
C2     C     0.36157   0.79453   0.60536   0.00000  Uiso   1.00
C3     C     0.36782   0.73571   0.62521   0.00000  Uiso   1.00
C4     C     0.37775   0.69269   0.58923   0.00000  Uiso   1.00
C5     C     0.39448   0.60641   0.54732   0.00000  Uiso   1.00
C6     C     0.48959   0.88807   0.68764   0.00000  Uiso   1.00
C7     C     0.60345   0.90790   0.77666   0.00000  Uiso   1.00
C8     C     0.72114   0.94363   0.80993   0.00000  Uiso   1.00
C9     C     0.93656   0.00260   0.89574   0.00000  Uiso   1.00
C10    C     0.20481   0.88254   0.55199   0.00000  Uiso   1.00
C11    C     0.07924   0.89774   0.52696   0.00000  Uiso   1.00
C12    C     0.95717   0.92883   0.44603   0.00000  Uiso   1.00
C13    C     0.73043   0.97921   0.32122   0.00000  Uiso   1.00
C14    C     0.35701   0.87682   0.53845   0.00000  Uiso   1.00
C15    C     0.36511   0.80986   0.55148   0.00000  Uiso   1.00
C16    C     0.37503   0.76692   0.51545   0.00000  Uiso   1.00
C17    C     0.38128   0.70804   0.53525   0.00000  Uiso   1.00
C18    C     0.49313   0.90340   0.63376   0.00000  Uiso   1.00
C19    C     0.61066   0.93911   0.66690   0.00000  Uiso   1.00
C20    C     0.72469   0.95898   0.75595   0.00000  Uiso   1.00
C21    C     0.20834   0.89787   0.49810   0.00000  Uiso   1.00
C22    C     0.08645   0.92895   0.41720   0.00000  Uiso   1.00
C23    C     0.96072   0.94418   0.39205   0.00000  Uiso   1.00
H24    H     0.34774   0.83667   0.67961   0.00000  Uiso   1.00
H25    H     0.36509   0.72386   0.66692   0.00000  Uiso   1.00
H26    H     0.60067   0.89603   0.81834   0.00000  Uiso   1.00
H27    H     0.07654   0.88587   0.56868   0.00000  Uiso   1.00
H28    H     0.38594   0.60556   0.62912   0.00000  Uiso   1.00
H29    H     0.88266   0.96859   0.94838   0.00000  Uiso   1.00
H30    H     0.77742   0.94717   0.42192   0.00000  Uiso   1.00
H31    H     0.35977   0.88875   0.49650   0.00000  Uiso   1.00
H32    H     0.37777   0.77880   0.47376   0.00000  Uiso   1.00
H33    H     0.61336   0.95097   0.62518   0.00000  Uiso   1.00
H34    H     0.08923   0.94080   0.37552   0.00000  Uiso   1.00
H35    H     0.39624   0.65014   0.47235   0.00000  Uiso   1.00
H36    H     0.89296   0.01318   0.79161   0.00000  Uiso   1.00
H37    H     0.78772   0.99175   0.26515   0.00000  Uiso   1.00
O38    O     0.40276   0.55458   0.53911   0.00000  Uiso   1.00
O39    O     0.05442   0.03088   0.95796   0.00000  Uiso   1.00
O40    O     0.60438   0.00276   0.26725   0.00000  Uiso   1.00
N41    N     0.38586   0.63114   0.59533   0.00000  Uiso   1.00
N42    N     0.85028   0.97055   0.89383   0.00000  Uiso   1.00
N43    N     0.81699   0.95053   0.40164   0.00000  Uiso   1.00
N44    N     0.39140   0.65513   0.51097   0.00000  Uiso   1.00
N45    N     0.85582   0.99454   0.80947   0.00000  Uiso   1.00
N46    N     0.82253   0.97452   0.31728   0.00000  Uiso   1.00
C47    C     0.04487   0.29047   0.39331   0.00000  Uiso   1.00
C48    C     0.04896   0.23683   0.35708   0.00000  Uiso   1.00
C49    C     0.06396   0.17796   0.38015   0.00000  Uiso   1.00
C50    C     0.06526   0.13538   0.33963   0.00000  Uiso   1.00
C51    C     0.07370   0.04970   0.29275   0.00000  Uiso   1.00
C52    C     0.17644   0.33144   0.43544   0.00000  Uiso   1.00
C53    C     0.29861   0.35212   0.52440   0.00000  Uiso   1.00
C54    C     0.40722   0.38920   0.54983   0.00000  Uiso   1.00
C55    C     0.61351   0.45043   0.62459   0.00000  Uiso   1.00
C56    C     0.89253   0.32307   0.30998   0.00000  Uiso   1.00
C57    C     0.77600   0.33673   0.29345   0.00000  Uiso   1.00
C58    C     0.64559   0.36677   0.21326   0.00000  Uiso   1.00
C59    C     0.41107   0.41501   0.09322   0.00000  Uiso   1.00
C60    C     0.02051   0.31956   0.28032   0.00000  Uiso   1.00
C61    C     0.03573   0.25264   0.29571   0.00000  Uiso   1.00
C62    C     0.03700   0.21014   0.25514   0.00000  Uiso   1.00
C63    C     0.05200   0.15121   0.27814   0.00000  Uiso   1.00
C64    C     0.16321   0.34725   0.37407   0.00000  Uiso   1.00
C65    C     0.27166   0.38431   0.39938   0.00000  Uiso   1.00
C66    C     0.39397   0.40503   0.48835   0.00000  Uiso   1.00
C67    C     0.87930   0.33888   0.24860   0.00000  Uiso   1.00
C68    C     0.74905   0.36891   0.16843   0.00000  Uiso   1.00
C69    C     0.63234   0.38260   0.15178   0.00000  Uiso   1.00
H70    H     0.05518   0.27817   0.44110   0.00000  Uiso   1.00
H71    H     0.07421   0.16575   0.42766   0.00000  Uiso   1.00
H72    H     0.30881   0.33989   0.57187   0.00000  Uiso   1.00
H73    H     0.78628   0.32449   0.34096   0.00000  Uiso   1.00
H74    H     0.08953   0.04807   0.38572   0.00000  Uiso   1.00
H75    H     0.58417   0.41527   0.68980   0.00000  Uiso   1.00
H76    H     0.48232   0.38281   0.20287   0.00000  Uiso   1.00
H77    H     0.01021   0.33187   0.23253   0.00000  Uiso   1.00
H78    H     0.02677   0.22239   0.20765   0.00000  Uiso   1.00
H79    H     0.26138   0.39653   0.35187   0.00000  Uiso   1.00
H80    H     0.73885   0.38113   0.12095   0.00000  Uiso   1.00
H81    H     0.05103   0.09404   0.20715   0.00000  Uiso   1.00
H82    H     0.54568   0.46125   0.51123   0.00000  Uiso   1.00
H83    H     0.44382   0.42878   0.02430   0.00000  Uiso   1.00
O84    O     0.08204   0.99807   0.28386   0.00000  Uiso   1.00
O85    O     0.73097   0.47983   0.68279   0.00000  Uiso   1.00
O86    O     0.28537   0.43724   0.04395   0.00000  Uiso   1.00
N87    N     0.07816   0.07392   0.34710   0.00000  Uiso   1.00
N88    N     0.54064   0.41722   0.63140   0.00000  Uiso   1.00
N89    N     0.51052   0.38689   0.17617   0.00000  Uiso   1.00
N90    N     0.05745   0.09865   0.25101   0.00000  Uiso   1.00
N91    N     0.51993   0.44195   0.53531   0.00000  Uiso   1.00
N92    N     0.48980   0.41162   0.08008   0.00000  Uiso   1.00
C93    C     0.64951   0.34860   0.86234   0.00000  Uiso   1.00
C94    C     0.63843   0.29453   0.89464   0.00000  Uiso   1.00
C95    C     0.63218   0.23571   0.87479   0.00000  Uiso   1.00
C96    C     0.62225   0.19269   0.91077   0.00000  Uiso   1.00
C97    C     0.60552   0.10641   0.95268   0.00000  Uiso   1.00
C98    C     0.51041   0.38807   0.81236   0.00000  Uiso   1.00
C99    C     0.39655   0.40790   0.72334   0.00000  Uiso   1.00
C100   C     0.27886   0.44363   0.69007   0.00000  Uiso   1.00
C101   C     0.06344   0.50260   0.60426   0.00000  Uiso   1.00
C102   C     0.79519   0.38254   0.94801   0.00000  Uiso   1.00
C103   C     0.92076   0.39774   0.97304   0.00000  Uiso   1.00
C104   C     0.04283   0.42883   0.05397   0.00000  Uiso   1.00
C105   C     0.26957   0.47921   0.17878   0.00000  Uiso   1.00
C106   C     0.64299   0.37682   0.96155   0.00000  Uiso   1.00
C107   C     0.63489   0.30986   0.94852   0.00000  Uiso   1.00
C108   C     0.62497   0.26692   0.98455   0.00000  Uiso   1.00
C109   C     0.61872   0.20804   0.96475   0.00000  Uiso   1.00
C110   C     0.50687   0.40340   0.86624   0.00000  Uiso   1.00
C111   C     0.38934   0.43911   0.83310   0.00000  Uiso   1.00
C112   C     0.27531   0.45898   0.74405   0.00000  Uiso   1.00
C113   C     0.79166   0.39787   0.00190   0.00000  Uiso   1.00
C114   C     0.91355   0.42895   0.08280   0.00000  Uiso   1.00
C115   C     0.03928   0.44418   0.10795   0.00000  Uiso   1.00
H116   H     0.65226   0.33667   0.82039   0.00000  Uiso   1.00
H117   H     0.63491   0.22386   0.83308   0.00000  Uiso   1.00
H118   H     0.39933   0.39603   0.68166   0.00000  Uiso   1.00
H119   H     0.92346   0.38587   0.93132   0.00000  Uiso   1.00
H120   H     0.61406   0.10556   0.87088   0.00000  Uiso   1.00
H121   H     0.11734   0.46859   0.55162   0.00000  Uiso   1.00
H122   H     0.22258   0.44717   0.07808   0.00000  Uiso   1.00
H123   H     0.64023   0.38875   0.00350   0.00000  Uiso   1.00
H124   H     0.62223   0.27880   0.02624   0.00000  Uiso   1.00
H125   H     0.38664   0.45097   0.87482   0.00000  Uiso   1.00
H126   H     0.91077   0.44080   0.12448   0.00000  Uiso   1.00
H127   H     0.60376   0.15014   0.02765   0.00000  Uiso   1.00
H128   H     0.10704   0.51318   0.70839   0.00000  Uiso   1.00
H129   H     0.21228   0.49175   0.23485   0.00000  Uiso   1.00
O130   O     0.59724   0.05458   0.96089   0.00000  Uiso   1.00
O131   O     0.94558   0.53088   0.54204   0.00000  Uiso   1.00
O132   O     0.39562   0.50276   0.23275   0.00000  Uiso   1.00
N133   N     0.61414   0.13114   0.90467   0.00000  Uiso   1.00
N134   N     0.14972   0.47055   0.60617   0.00000  Uiso   1.00
N135   N     0.18301   0.45053   0.09836   0.00000  Uiso   1.00
N136   N     0.60860   0.15513   0.98903   0.00000  Uiso   1.00
N137   N     0.14418   0.49454   0.69053   0.00000  Uiso   1.00
N138   N     0.17747   0.47452   0.18272   0.00000  Uiso   1.00
C139   C     0.95513   0.79047   0.10669   0.00000  Uiso   1.00
C140   C     0.95104   0.73683   0.14292   0.00000  Uiso   1.00
C141   C     0.93604   0.67796   0.11985   0.00000  Uiso   1.00
C142   C     0.93474   0.63538   0.16037   0.00000  Uiso   1.00
C143   C     0.92630   0.54970   0.20725   0.00000  Uiso   1.00
C144   C     0.82356   0.83144   0.06456   0.00000  Uiso   1.00
C145   C     0.70139   0.85212   0.97560   0.00000  Uiso   1.00
C146   C     0.59278   0.88920   0.95017   0.00000  Uiso   1.00
C147   C     0.38649   0.95043   0.87541   0.00000  Uiso   1.00
C148   C     0.10747   0.82307   0.19002   0.00000  Uiso   1.00
C149   C     0.22400   0.83673   0.20655   0.00000  Uiso   1.00
C150   C     0.35441   0.86677   0.28674   0.00000  Uiso   1.00
C151   C     0.58893   0.91501   0.40678   0.00000  Uiso   1.00
C152   C     0.97949   0.81956   0.21968   0.00000  Uiso   1.00
C153   C     0.96427   0.75264   0.20429   0.00000  Uiso   1.00
C154   C     0.96300   0.71014   0.24486   0.00000  Uiso   1.00
C155   C     0.94800   0.65121   0.22186   0.00000  Uiso   1.00
C156   C     0.83679   0.84725   0.12593   0.00000  Uiso   1.00
C157   C     0.72834   0.88431   0.10062   0.00000  Uiso   1.00
C158   C     0.60603   0.90503   0.01165   0.00000  Uiso   1.00
C159   C     0.12070   0.83888   0.25140   0.00000  Uiso   1.00
C160   C     0.25095   0.86891   0.33157   0.00000  Uiso   1.00
C161   C     0.36766   0.88260   0.34822   0.00000  Uiso   1.00
H162   H     0.94482   0.77817   0.05890   0.00000  Uiso   1.00
H163   H     0.92579   0.66575   0.07234   0.00000  Uiso   1.00
H164   H     0.69119   0.83989   0.92813   0.00000  Uiso   1.00
H165   H     0.21372   0.82449   0.15904   0.00000  Uiso   1.00
H166   H     0.91047   0.54807   0.11428   0.00000  Uiso   1.00
H167   H     0.41583   0.91527   0.81020   0.00000  Uiso   1.00
H168   H     0.51768   0.88281   0.29713   0.00000  Uiso   1.00
H169   H     0.98979   0.83187   0.26747   0.00000  Uiso   1.00
H170   H     0.97323   0.72239   0.29235   0.00000  Uiso   1.00
H171   H     0.73862   0.89653   0.14813   0.00000  Uiso   1.00
H172   H     0.26115   0.88113   0.37905   0.00000  Uiso   1.00
H173   H     0.94897   0.59404   0.29285   0.00000  Uiso   1.00
H174   H     0.45432   0.96125   0.98877   0.00000  Uiso   1.00
H175   H     0.55618   0.92878   0.47570   0.00000  Uiso   1.00
O176   O     0.91796   0.49807   0.21614   0.00000  Uiso   1.00
O177   O     0.26903   0.97983   0.81721   0.00000  Uiso   1.00
O178   O     0.71463   0.93724   0.45605   0.00000  Uiso   1.00
N179   N     0.92184   0.57392   0.15290   0.00000  Uiso   1.00
N180   N     0.45936   0.91722   0.86860   0.00000  Uiso   1.00
N181   N     0.48948   0.88689   0.32383   0.00000  Uiso   1.00
N182   N     0.94255   0.59865   0.24899   0.00000  Uiso   1.00
N183   N     0.48007   0.94195   0.96469   0.00000  Uiso   1.00
N184   N     0.51020   0.91162   0.41992   0.00000  Uiso   1.00
C185   C     0.64951   0.15140   0.36234   0.00000  Uiso   1.00
C186   C     0.63843   0.20547   0.39464   0.00000  Uiso   1.00
C187   C     0.63218   0.26429   0.37479   0.00000  Uiso   1.00
C188   C     0.62225   0.30731   0.41077   0.00000  Uiso   1.00
C189   C     0.60552   0.39359   0.45268   0.00000  Uiso   1.00
C190   C     0.51041   0.11193   0.31236   0.00000  Uiso   1.00
C191   C     0.39655   0.09210   0.22334   0.00000  Uiso   1.00
C192   C     0.27886   0.05637   0.19007   0.00000  Uiso   1.00
C193   C     0.06344   0.99740   0.10426   0.00000  Uiso   1.00
C194   C     0.79519   0.11746   0.44801   0.00000  Uiso   1.00
C195   C     0.92076   0.10226   0.47304   0.00000  Uiso   1.00
C196   C     0.04283   0.07117   0.55397   0.00000  Uiso   1.00
C197   C     0.26957   0.02079   0.67878   0.00000  Uiso   1.00
C198   C     0.64299   0.12318   0.46155   0.00000  Uiso   1.00
C199   C     0.63489   0.19014   0.44852   0.00000  Uiso   1.00
C200   C     0.62497   0.23308   0.48455   0.00000  Uiso   1.00
C201   C     0.61872   0.29196   0.46475   0.00000  Uiso   1.00
C202   C     0.50687   0.09660   0.36624   0.00000  Uiso   1.00
C203   C     0.38934   0.06089   0.33310   0.00000  Uiso   1.00
C204   C     0.27531   0.04102   0.24405   0.00000  Uiso   1.00
C205   C     0.79166   0.10213   0.50190   0.00000  Uiso   1.00
C206   C     0.91355   0.07105   0.58280   0.00000  Uiso   1.00
C207   C     0.03928   0.05582   0.60795   0.00000  Uiso   1.00
H208   H     0.65226   0.16333   0.32039   0.00000  Uiso   1.00
H209   H     0.63491   0.27614   0.33308   0.00000  Uiso   1.00
H210   H     0.39933   0.10397   0.18166   0.00000  Uiso   1.00
H211   H     0.92346   0.11413   0.43132   0.00000  Uiso   1.00
H212   H     0.61406   0.39444   0.37088   0.00000  Uiso   1.00
H213   H     0.11734   0.03141   0.05162   0.00000  Uiso   1.00
H214   H     0.22258   0.05283   0.57808   0.00000  Uiso   1.00
H215   H     0.64023   0.11125   0.50350   0.00000  Uiso   1.00
H216   H     0.62223   0.22120   0.52624   0.00000  Uiso   1.00
H217   H     0.38664   0.04903   0.37482   0.00000  Uiso   1.00
H218   H     0.91077   0.05920   0.62448   0.00000  Uiso   1.00
H219   H     0.60376   0.34986   0.52765   0.00000  Uiso   1.00
H220   H     0.10704   0.98682   0.20839   0.00000  Uiso   1.00
H221   H     0.21228   0.00825   0.73485   0.00000  Uiso   1.00
O222   O     0.59724   0.44542   0.46089   0.00000  Uiso   1.00
O223   O     0.94558   0.96912   0.04204   0.00000  Uiso   1.00
O224   O     0.39562   0.99724   0.73275   0.00000  Uiso   1.00
N225   N     0.61414   0.36886   0.40467   0.00000  Uiso   1.00
N226   N     0.14972   0.02945   0.10617   0.00000  Uiso   1.00
N227   N     0.18301   0.04947   0.59836   0.00000  Uiso   1.00
N228   N     0.60860   0.34487   0.48903   0.00000  Uiso   1.00
N229   N     0.14418   0.00546   0.19053   0.00000  Uiso   1.00
N230   N     0.17747   0.02548   0.68272   0.00000  Uiso   1.00
C231   C     0.95513   0.70953   0.60669   0.00000  Uiso   1.00
C232   C     0.95104   0.76317   0.64292   0.00000  Uiso   1.00
C233   C     0.93604   0.82204   0.61985   0.00000  Uiso   1.00
C234   C     0.93474   0.86462   0.66037   0.00000  Uiso   1.00
C235   C     0.92630   0.95030   0.70725   0.00000  Uiso   1.00
C236   C     0.82356   0.66856   0.56456   0.00000  Uiso   1.00
C237   C     0.70139   0.64788   0.47560   0.00000  Uiso   1.00
C238   C     0.59278   0.61080   0.45017   0.00000  Uiso   1.00
C239   C     0.38649   0.54957   0.37541   0.00000  Uiso   1.00
C240   C     0.10747   0.67693   0.69002   0.00000  Uiso   1.00
C241   C     0.22400   0.66327   0.70655   0.00000  Uiso   1.00
C242   C     0.35441   0.63323   0.78674   0.00000  Uiso   1.00
C243   C     0.58893   0.58499   0.90678   0.00000  Uiso   1.00
C244   C     0.97949   0.68044   0.71968   0.00000  Uiso   1.00
C245   C     0.96427   0.74736   0.70429   0.00000  Uiso   1.00
C246   C     0.96300   0.78986   0.74486   0.00000  Uiso   1.00
C247   C     0.94800   0.84879   0.72186   0.00000  Uiso   1.00
C248   C     0.83679   0.65275   0.62593   0.00000  Uiso   1.00
C249   C     0.72834   0.61569   0.60062   0.00000  Uiso   1.00
C250   C     0.60603   0.59497   0.51165   0.00000  Uiso   1.00
C251   C     0.12070   0.66112   0.75140   0.00000  Uiso   1.00
C252   C     0.25095   0.63109   0.83157   0.00000  Uiso   1.00
C253   C     0.36766   0.61740   0.84822   0.00000  Uiso   1.00
H254   H     0.94482   0.72183   0.55890   0.00000  Uiso   1.00
H255   H     0.92579   0.83425   0.57234   0.00000  Uiso   1.00
H256   H     0.69119   0.66011   0.42813   0.00000  Uiso   1.00
H257   H     0.21372   0.67551   0.65904   0.00000  Uiso   1.00
H258   H     0.91047   0.95193   0.61428   0.00000  Uiso   1.00
H259   H     0.41583   0.58473   0.31020   0.00000  Uiso   1.00
H260   H     0.51768   0.61719   0.79713   0.00000  Uiso   1.00
H261   H     0.98979   0.66813   0.76747   0.00000  Uiso   1.00
H262   H     0.97323   0.77761   0.79235   0.00000  Uiso   1.00
H263   H     0.73862   0.60347   0.64813   0.00000  Uiso   1.00
H264   H     0.26115   0.61887   0.87905   0.00000  Uiso   1.00
H265   H     0.94897   0.90596   0.79285   0.00000  Uiso   1.00
H266   H     0.45432   0.53875   0.48877   0.00000  Uiso   1.00
H267   H     0.55618   0.57122   0.97570   0.00000  Uiso   1.00
O268   O     0.91796   0.00193   0.71614   0.00000  Uiso   1.00
O269   O     0.26903   0.52017   0.31721   0.00000  Uiso   1.00
O270   O     0.71463   0.56276   0.95605   0.00000  Uiso   1.00
N271   N     0.92184   0.92608   0.65290   0.00000  Uiso   1.00
N272   N     0.45936   0.58278   0.36860   0.00000  Uiso   1.00
N273   N     0.48948   0.61311   0.82383   0.00000  Uiso   1.00
N274   N     0.94255   0.90135   0.74899   0.00000  Uiso   1.00
N275   N     0.48007   0.55805   0.46469   0.00000  Uiso   1.00
N276   N     0.51020   0.58838   0.91992   0.00000  Uiso   1.00
C277   C     0.35049   0.65140   0.13766   0.00000  Uiso   1.00
C278   C     0.36157   0.70547   0.10536   0.00000  Uiso   1.00
C279   C     0.36782   0.76429   0.12521   0.00000  Uiso   1.00
C280   C     0.37775   0.80731   0.08923   0.00000  Uiso   1.00
C281   C     0.39448   0.89359   0.04732   0.00000  Uiso   1.00
C282   C     0.48959   0.61193   0.18764   0.00000  Uiso   1.00
C283   C     0.60345   0.59210   0.27666   0.00000  Uiso   1.00
C284   C     0.72114   0.55637   0.30993   0.00000  Uiso   1.00
C285   C     0.93656   0.49740   0.39574   0.00000  Uiso   1.00
C286   C     0.20481   0.61746   0.05199   0.00000  Uiso   1.00
C287   C     0.07924   0.60226   0.02696   0.00000  Uiso   1.00
C288   C     0.95717   0.57117   0.94603   0.00000  Uiso   1.00
C289   C     0.73043   0.52079   0.82122   0.00000  Uiso   1.00
C290   C     0.35701   0.62318   0.03845   0.00000  Uiso   1.00
C291   C     0.36511   0.69014   0.05148   0.00000  Uiso   1.00
C292   C     0.37503   0.73308   0.01545   0.00000  Uiso   1.00
C293   C     0.38128   0.79196   0.03525   0.00000  Uiso   1.00
C294   C     0.49313   0.59660   0.13376   0.00000  Uiso   1.00
C295   C     0.61066   0.56089   0.16690   0.00000  Uiso   1.00
C296   C     0.72469   0.54102   0.25595   0.00000  Uiso   1.00
C297   C     0.20834   0.60213   0.99810   0.00000  Uiso   1.00
C298   C     0.08645   0.57105   0.91720   0.00000  Uiso   1.00
C299   C     0.96072   0.55582   0.89205   0.00000  Uiso   1.00
H300   H     0.34774   0.66333   0.17961   0.00000  Uiso   1.00
H301   H     0.36509   0.77614   0.16692   0.00000  Uiso   1.00
H302   H     0.60067   0.60397   0.31834   0.00000  Uiso   1.00
H303   H     0.07654   0.61413   0.06868   0.00000  Uiso   1.00
H304   H     0.38594   0.89444   0.12912   0.00000  Uiso   1.00
H305   H     0.88266   0.53141   0.44838   0.00000  Uiso   1.00
H306   H     0.77742   0.55283   0.92192   0.00000  Uiso   1.00
H307   H     0.35977   0.61125   0.99650   0.00000  Uiso   1.00
H308   H     0.37777   0.72120   0.97376   0.00000  Uiso   1.00
H309   H     0.61336   0.54903   0.12518   0.00000  Uiso   1.00
H310   H     0.08923   0.55920   0.87552   0.00000  Uiso   1.00
H311   H     0.39624   0.84986   0.97235   0.00000  Uiso   1.00
H312   H     0.89296   0.48682   0.29161   0.00000  Uiso   1.00
H313   H     0.78772   0.50825   0.76515   0.00000  Uiso   1.00
O314   O     0.40276   0.94542   0.03911   0.00000  Uiso   1.00
O315   O     0.05442   0.46912   0.45796   0.00000  Uiso   1.00
O316   O     0.60438   0.49724   0.76725   0.00000  Uiso   1.00
N317   N     0.38586   0.86886   0.09533   0.00000  Uiso   1.00
N318   N     0.85028   0.52945   0.39383   0.00000  Uiso   1.00
N319   N     0.81699   0.54947   0.90164   0.00000  Uiso   1.00
N320   N     0.39140   0.84487   0.01097   0.00000  Uiso   1.00
N321   N     0.85582   0.50546   0.30947   0.00000  Uiso   1.00
N322   N     0.82253   0.52548   0.81728   0.00000  Uiso   1.00
C323   C     0.04487   0.20953   0.89331   0.00000  Uiso   1.00
C324   C     0.04896   0.26317   0.85708   0.00000  Uiso   1.00
C325   C     0.06396   0.32204   0.88015   0.00000  Uiso   1.00
C326   C     0.06526   0.36462   0.83963   0.00000  Uiso   1.00
C327   C     0.07370   0.45030   0.79275   0.00000  Uiso   1.00
C328   C     0.17644   0.16856   0.93544   0.00000  Uiso   1.00
C329   C     0.29861   0.14788   0.02440   0.00000  Uiso   1.00
C330   C     0.40722   0.11080   0.04983   0.00000  Uiso   1.00
C331   C     0.61351   0.04957   0.12459   0.00000  Uiso   1.00
C332   C     0.89253   0.17693   0.80998   0.00000  Uiso   1.00
C333   C     0.77600   0.16327   0.79345   0.00000  Uiso   1.00
C334   C     0.64559   0.13323   0.71326   0.00000  Uiso   1.00
C335   C     0.41107   0.08499   0.59322   0.00000  Uiso   1.00
C336   C     0.02051   0.18044   0.78032   0.00000  Uiso   1.00
C337   C     0.03573   0.24736   0.79571   0.00000  Uiso   1.00
C338   C     0.03700   0.28986   0.75514   0.00000  Uiso   1.00
C339   C     0.05200   0.34879   0.77814   0.00000  Uiso   1.00
C340   C     0.16321   0.15275   0.87407   0.00000  Uiso   1.00
C341   C     0.27166   0.11569   0.89938   0.00000  Uiso   1.00
C342   C     0.39397   0.09497   0.98835   0.00000  Uiso   1.00
C343   C     0.87930   0.16112   0.74860   0.00000  Uiso   1.00
C344   C     0.74905   0.13109   0.66843   0.00000  Uiso   1.00
C345   C     0.63234   0.11740   0.65178   0.00000  Uiso   1.00
H346   H     0.05518   0.22183   0.94110   0.00000  Uiso   1.00
H347   H     0.07421   0.33425   0.92766   0.00000  Uiso   1.00
H348   H     0.30881   0.16011   0.07187   0.00000  Uiso   1.00
H349   H     0.78628   0.17551   0.84096   0.00000  Uiso   1.00
H350   H     0.08953   0.45193   0.88572   0.00000  Uiso   1.00
H351   H     0.58417   0.08473   0.18980   0.00000  Uiso   1.00
H352   H     0.48232   0.11719   0.70287   0.00000  Uiso   1.00
H353   H     0.01021   0.16813   0.73253   0.00000  Uiso   1.00
H354   H     0.02677   0.27761   0.70765   0.00000  Uiso   1.00
H355   H     0.26138   0.10347   0.85187   0.00000  Uiso   1.00
H356   H     0.73885   0.11887   0.62095   0.00000  Uiso   1.00
H357   H     0.05103   0.40596   0.70715   0.00000  Uiso   1.00
H358   H     0.54568   0.03875   0.01123   0.00000  Uiso   1.00
H359   H     0.44382   0.07122   0.52430   0.00000  Uiso   1.00
O360   O     0.08204   0.50193   0.78386   0.00000  Uiso   1.00
O361   O     0.73097   0.02017   0.18279   0.00000  Uiso   1.00
O362   O     0.28537   0.06276   0.54395   0.00000  Uiso   1.00
N363   N     0.07816   0.42608   0.84710   0.00000  Uiso   1.00
N364   N     0.54064   0.08278   0.13140   0.00000  Uiso   1.00
N365   N     0.51052   0.11311   0.67617   0.00000  Uiso   1.00
N366   N     0.05745   0.40135   0.75101   0.00000  Uiso   1.00
N367   N     0.51993   0.05805   0.03531   0.00000  Uiso   1.00
N368   N     0.48980   0.08838   0.58008   0.00000  Uiso   1.00
