data_job_03602
_audit_creation_date              2018-12-19
_audit_creation_method            'Materials Studio'
_symmetry_space_group_name_H-M    'P1'
_symmetry_Int_Tables_number       1
_symmetry_cell_setting            triclinic
loop_
_symmetry_equiv_pos_as_xyz
  x,y,z
_cell_length_a                    20.7594
_cell_length_b                    12.4428
_cell_length_c                    22.6166
_cell_angle_alpha                 90.0000
_cell_angle_beta                  90.0000
_cell_angle_gamma                 90.0000
loop_
_atom_site_label
_atom_site_type_symbol
_atom_site_fract_x
_atom_site_fract_y
_atom_site_fract_z
_atom_site_U_iso_or_equiv
_atom_site_adp_type
_atom_site_occupancy
C1     C     0.90975   0.74504   0.53171   0.00000  Uiso   1.00
C2     C     0.85454   0.75224   0.48741   0.00000  Uiso   1.00
C3     C     0.85886   0.73106   0.42730   0.00000  Uiso   1.00
C4     C     0.80287   0.74225   0.39428   0.00000  Uiso   1.00
C5     C     0.72600   0.74873   0.32150   0.00000  Uiso   1.00
C6     C     0.91384   0.85507   0.56118   0.00000  Uiso   1.00
C7     C     0.96801   0.92033   0.56309   0.00000  Uiso   1.00
C8     C     0.96194   0.01807   0.59218   0.00000  Uiso   1.00
C9     C     0.97714   0.18415   0.63396   0.00000  Uiso   1.00
C10    C     0.88747   0.66725   0.57963   0.00000  Uiso   1.00
C11    C     0.91949   0.57461   0.59707   0.00000  Uiso   1.00
C12    C     0.89123   0.51423   0.64171   0.00000  Uiso   1.00
C13    C     0.86550   0.38870   0.71214   0.00000  Uiso   1.00
C14    C     0.80265   0.80257   0.57998   0.00000  Uiso   1.00
C15    C     0.79637   0.78349   0.51363   0.00000  Uiso   1.00
C16    C     0.74036   0.79470   0.48070   0.00000  Uiso   1.00
C17    C     0.74459   0.77354   0.42055   0.00000  Uiso   1.00
C18    C     0.85566   0.88631   0.58739   0.00000  Uiso   1.00
C19    C     0.84951   0.98397   0.61649   0.00000  Uiso   1.00
C20    C     0.90366   0.04937   0.61845   0.00000  Uiso   1.00
C21    C     0.82930   0.69849   0.60585   0.00000  Uiso   1.00
C22    C     0.80099   0.63825   0.65048   0.00000  Uiso   1.00
C23    C     0.83295   0.54554   0.66798   0.00000  Uiso   1.00
H24    H     0.95504   0.72073   0.51130   0.00000  Uiso   1.00
H25    H     0.90389   0.70690   0.40702   0.00000  Uiso   1.00
H26    H     0.01302   0.89613   0.54280   0.00000  Uiso   1.00
H27    H     0.96450   0.55046   0.57677   0.00000  Uiso   1.00
H28    H     0.82152   0.70538   0.30297   0.00000  Uiso   1.00
H29    H     0.05165   0.10437   0.58928   0.00000  Uiso   1.00
H30    H     0.94934   0.37546   0.66092   0.00000  Uiso   1.00
H31    H     0.75735   0.82689   0.60040   0.00000  Uiso   1.00
H32    H     0.69535   0.81888   0.50100   0.00000  Uiso   1.00
H33    H     0.80449   0.00812   0.63678   0.00000  Uiso   1.00
H34    H     0.75597   0.66245   0.67076   0.00000  Uiso   1.00
H35    H     0.65227   0.79628   0.37925   0.00000  Uiso   1.00
H36    H     0.88240   0.19527   0.66556   0.00000  Uiso   1.00
H37    H     0.78009   0.46636   0.73720   0.00000  Uiso   1.00
O38    O     0.69968   0.74368   0.27411   0.00000  Uiso   1.00
O39    O     0.00160   0.26713   0.64975   0.00000  Uiso   1.00
O40    O     0.86737   0.31082   0.74374   0.00000  Uiso   1.00
N41    N     0.79020   0.72785   0.33456   0.00000  Uiso   1.00
N42    N     0.00535   0.10089   0.60224   0.00000  Uiso   1.00
N43    N     0.90971   0.41944   0.66923   0.00000  Uiso   1.00
N44    N     0.69912   0.77676   0.37561   0.00000  Uiso   1.00
N45    N     0.91427   0.14981   0.64328   0.00000  Uiso   1.00
N46    N     0.81863   0.46835   0.71027   0.00000  Uiso   1.00
C47    C     0.59025   0.75496   0.03171   0.00000  Uiso   1.00
C48    C     0.64546   0.74776   0.98741   0.00000  Uiso   1.00
C49    C     0.64114   0.76894   0.92730   0.00000  Uiso   1.00
C50    C     0.69713   0.75775   0.89428   0.00000  Uiso   1.00
C51    C     0.77400   0.75127   0.82150   0.00000  Uiso   1.00
C52    C     0.58616   0.64493   0.06118   0.00000  Uiso   1.00
C53    C     0.53199   0.57967   0.06309   0.00000  Uiso   1.00
C54    C     0.53806   0.48193   0.09218   0.00000  Uiso   1.00
C55    C     0.52286   0.31585   0.13396   0.00000  Uiso   1.00
C56    C     0.61253   0.83275   0.07963   0.00000  Uiso   1.00
C57    C     0.58051   0.92539   0.09707   0.00000  Uiso   1.00
C58    C     0.60877   0.98577   0.14171   0.00000  Uiso   1.00
C59    C     0.63450   0.11130   0.21214   0.00000  Uiso   1.00
C60    C     0.69735   0.69743   0.07998   0.00000  Uiso   1.00
C61    C     0.70363   0.71651   0.01363   0.00000  Uiso   1.00
C62    C     0.75964   0.70530   0.98070   0.00000  Uiso   1.00
C63    C     0.75541   0.72646   0.92055   0.00000  Uiso   1.00
C64    C     0.64434   0.61369   0.08739   0.00000  Uiso   1.00
C65    C     0.65049   0.51603   0.11649   0.00000  Uiso   1.00
C66    C     0.59634   0.45063   0.11845   0.00000  Uiso   1.00
C67    C     0.67070   0.80151   0.10585   0.00000  Uiso   1.00
C68    C     0.69901   0.86175   0.15048   0.00000  Uiso   1.00
C69    C     0.66705   0.95446   0.16798   0.00000  Uiso   1.00
H70    H     0.54496   0.77927   0.01130   0.00000  Uiso   1.00
H71    H     0.59611   0.79310   0.90702   0.00000  Uiso   1.00
H72    H     0.48698   0.60387   0.04280   0.00000  Uiso   1.00
H73    H     0.53550   0.94954   0.07677   0.00000  Uiso   1.00
H74    H     0.67848   0.79462   0.80297   0.00000  Uiso   1.00
H75    H     0.44835   0.39563   0.08928   0.00000  Uiso   1.00
H76    H     0.55066   0.12454   0.16092   0.00000  Uiso   1.00
H77    H     0.74265   0.67311   0.10040   0.00000  Uiso   1.00
H78    H     0.80465   0.68112   0.00100   0.00000  Uiso   1.00
H79    H     0.69551   0.49188   0.13678   0.00000  Uiso   1.00
H80    H     0.74403   0.83755   0.17076   0.00000  Uiso   1.00
H81    H     0.84773   0.70372   0.87925   0.00000  Uiso   1.00
H82    H     0.61760   0.30473   0.16556   0.00000  Uiso   1.00
H83    H     0.71991   0.03364   0.23720   0.00000  Uiso   1.00
O84    O     0.80032   0.75632   0.77411   0.00000  Uiso   1.00
O85    O     0.49840   0.23287   0.14975   0.00000  Uiso   1.00
O86    O     0.63263   0.18918   0.24374   0.00000  Uiso   1.00
N87    N     0.70980   0.77215   0.83456   0.00000  Uiso   1.00
N88    N     0.49465   0.39911   0.10224   0.00000  Uiso   1.00
N89    N     0.59029   0.08056   0.16923   0.00000  Uiso   1.00
N90    N     0.80088   0.72324   0.87561   0.00000  Uiso   1.00
N91    N     0.58573   0.35019   0.14328   0.00000  Uiso   1.00
N92    N     0.68137   0.03165   0.21027   0.00000  Uiso   1.00
C93    C     0.09025   0.74504   0.96829   0.00000  Uiso   1.00
C94    C     0.14546   0.75224   0.01259   0.00000  Uiso   1.00
C95    C     0.14114   0.73106   0.07270   0.00000  Uiso   1.00
C96    C     0.19713   0.74225   0.10572   0.00000  Uiso   1.00
C97    C     0.27400   0.74873   0.17850   0.00000  Uiso   1.00
C98    C     0.08616   0.85507   0.93882   0.00000  Uiso   1.00
C99    C     0.03199   0.92033   0.93691   0.00000  Uiso   1.00
C100   C     0.03806   0.01807   0.90782   0.00000  Uiso   1.00
C101   C     0.02286   0.18415   0.86604   0.00000  Uiso   1.00
C102   C     0.11253   0.66725   0.92037   0.00000  Uiso   1.00
C103   C     0.08051   0.57461   0.90293   0.00000  Uiso   1.00
C104   C     0.10877   0.51423   0.85829   0.00000  Uiso   1.00
C105   C     0.13450   0.38870   0.78786   0.00000  Uiso   1.00
C106   C     0.19735   0.80257   0.92002   0.00000  Uiso   1.00
C107   C     0.20363   0.78349   0.98637   0.00000  Uiso   1.00
C108   C     0.25964   0.79470   0.01930   0.00000  Uiso   1.00
C109   C     0.25541   0.77354   0.07945   0.00000  Uiso   1.00
C110   C     0.14434   0.88631   0.91261   0.00000  Uiso   1.00
C111   C     0.15049   0.98397   0.88351   0.00000  Uiso   1.00
C112   C     0.09634   0.04937   0.88155   0.00000  Uiso   1.00
C113   C     0.17070   0.69849   0.89415   0.00000  Uiso   1.00
C114   C     0.19901   0.63825   0.84952   0.00000  Uiso   1.00
C115   C     0.16705   0.54554   0.83202   0.00000  Uiso   1.00
H116   H     0.04496   0.72073   0.98870   0.00000  Uiso   1.00
H117   H     0.09611   0.70690   0.09298   0.00000  Uiso   1.00
H118   H     0.98698   0.89613   0.95720   0.00000  Uiso   1.00
H119   H     0.03550   0.55046   0.92323   0.00000  Uiso   1.00
H120   H     0.17848   0.70538   0.19703   0.00000  Uiso   1.00
H121   H     0.94835   0.10437   0.91072   0.00000  Uiso   1.00
H122   H     0.05066   0.37546   0.83908   0.00000  Uiso   1.00
H123   H     0.24265   0.82689   0.89960   0.00000  Uiso   1.00
H124   H     0.30465   0.81888   0.99900   0.00000  Uiso   1.00
H125   H     0.19551   0.00812   0.86322   0.00000  Uiso   1.00
H126   H     0.24403   0.66245   0.82924   0.00000  Uiso   1.00
H127   H     0.34773   0.79628   0.12075   0.00000  Uiso   1.00
H128   H     0.11760   0.19527   0.83444   0.00000  Uiso   1.00
H129   H     0.21991   0.46636   0.76280   0.00000  Uiso   1.00
O130   O     0.30032   0.74368   0.22589   0.00000  Uiso   1.00
O131   O     0.99840   0.26713   0.85025   0.00000  Uiso   1.00
O132   O     0.13263   0.31082   0.75626   0.00000  Uiso   1.00
N133   N     0.20980   0.72785   0.16544   0.00000  Uiso   1.00
N134   N     0.99465   0.10089   0.89776   0.00000  Uiso   1.00
N135   N     0.09029   0.41944   0.83077   0.00000  Uiso   1.00
N136   N     0.30088   0.77676   0.12439   0.00000  Uiso   1.00
N137   N     0.08573   0.14981   0.85672   0.00000  Uiso   1.00
N138   N     0.18137   0.46835   0.78973   0.00000  Uiso   1.00
C139   C     0.40975   0.75496   0.46829   0.00000  Uiso   1.00
C140   C     0.35454   0.74776   0.51259   0.00000  Uiso   1.00
C141   C     0.35886   0.76894   0.57270   0.00000  Uiso   1.00
C142   C     0.30287   0.75775   0.60572   0.00000  Uiso   1.00
C143   C     0.22600   0.75127   0.67850   0.00000  Uiso   1.00
C144   C     0.41384   0.64493   0.43882   0.00000  Uiso   1.00
C145   C     0.46801   0.57967   0.43691   0.00000  Uiso   1.00
C146   C     0.46194   0.48193   0.40782   0.00000  Uiso   1.00
C147   C     0.47714   0.31585   0.36604   0.00000  Uiso   1.00
C148   C     0.38747   0.83275   0.42037   0.00000  Uiso   1.00
C149   C     0.41949   0.92539   0.40293   0.00000  Uiso   1.00
C150   C     0.39123   0.98577   0.35829   0.00000  Uiso   1.00
C151   C     0.36550   0.11130   0.28786   0.00000  Uiso   1.00
C152   C     0.30265   0.69743   0.42002   0.00000  Uiso   1.00
C153   C     0.29637   0.71651   0.48637   0.00000  Uiso   1.00
C154   C     0.24036   0.70530   0.51930   0.00000  Uiso   1.00
C155   C     0.24459   0.72646   0.57945   0.00000  Uiso   1.00
C156   C     0.35566   0.61369   0.41261   0.00000  Uiso   1.00
C157   C     0.34951   0.51603   0.38351   0.00000  Uiso   1.00
C158   C     0.40366   0.45063   0.38155   0.00000  Uiso   1.00
C159   C     0.32930   0.80151   0.39415   0.00000  Uiso   1.00
C160   C     0.30099   0.86175   0.34952   0.00000  Uiso   1.00
C161   C     0.33295   0.95446   0.33202   0.00000  Uiso   1.00
H162   H     0.45504   0.77927   0.48870   0.00000  Uiso   1.00
H163   H     0.40389   0.79310   0.59298   0.00000  Uiso   1.00
H164   H     0.51302   0.60387   0.45720   0.00000  Uiso   1.00
H165   H     0.46450   0.94954   0.42323   0.00000  Uiso   1.00
H166   H     0.32152   0.79462   0.69703   0.00000  Uiso   1.00
H167   H     0.55165   0.39563   0.41072   0.00000  Uiso   1.00
H168   H     0.44934   0.12454   0.33908   0.00000  Uiso   1.00
H169   H     0.25735   0.67311   0.39960   0.00000  Uiso   1.00
H170   H     0.19535   0.68112   0.49900   0.00000  Uiso   1.00
H171   H     0.30449   0.49188   0.36322   0.00000  Uiso   1.00
H172   H     0.25597   0.83755   0.32924   0.00000  Uiso   1.00
H173   H     0.15227   0.70372   0.62075   0.00000  Uiso   1.00
H174   H     0.38240   0.30473   0.33444   0.00000  Uiso   1.00
H175   H     0.28009   0.03364   0.26280   0.00000  Uiso   1.00
O176   O     0.19968   0.75632   0.72589   0.00000  Uiso   1.00
O177   O     0.50160   0.23287   0.35025   0.00000  Uiso   1.00
O178   O     0.36737   0.18918   0.25626   0.00000  Uiso   1.00
N179   N     0.29020   0.77215   0.66544   0.00000  Uiso   1.00
N180   N     0.50535   0.39911   0.39776   0.00000  Uiso   1.00
N181   N     0.40971   0.08056   0.33077   0.00000  Uiso   1.00
N182   N     0.19912   0.72324   0.62439   0.00000  Uiso   1.00
N183   N     0.41427   0.35019   0.35672   0.00000  Uiso   1.00
N184   N     0.31863   0.03165   0.28973   0.00000  Uiso   1.00
C185   C     0.09025   0.25496   0.46829   0.00000  Uiso   1.00
C186   C     0.14546   0.24776   0.51259   0.00000  Uiso   1.00
C187   C     0.14114   0.26894   0.57270   0.00000  Uiso   1.00
C188   C     0.19713   0.25775   0.60572   0.00000  Uiso   1.00
C189   C     0.27400   0.25127   0.67850   0.00000  Uiso   1.00
C190   C     0.08616   0.14493   0.43882   0.00000  Uiso   1.00
C191   C     0.03199   0.07967   0.43691   0.00000  Uiso   1.00
C192   C     0.03806   0.98193   0.40782   0.00000  Uiso   1.00
C193   C     0.02286   0.81585   0.36604   0.00000  Uiso   1.00
C194   C     0.11253   0.33275   0.42037   0.00000  Uiso   1.00
C195   C     0.08051   0.42539   0.40293   0.00000  Uiso   1.00
C196   C     0.10877   0.48577   0.35829   0.00000  Uiso   1.00
C197   C     0.13450   0.61130   0.28786   0.00000  Uiso   1.00
C198   C     0.19735   0.19743   0.42002   0.00000  Uiso   1.00
C199   C     0.20363   0.21651   0.48637   0.00000  Uiso   1.00
C200   C     0.25964   0.20530   0.51930   0.00000  Uiso   1.00
C201   C     0.25541   0.22646   0.57945   0.00000  Uiso   1.00
C202   C     0.14434   0.11369   0.41261   0.00000  Uiso   1.00
C203   C     0.15049   0.01603   0.38351   0.00000  Uiso   1.00
C204   C     0.09634   0.95063   0.38155   0.00000  Uiso   1.00
C205   C     0.17070   0.30151   0.39415   0.00000  Uiso   1.00
C206   C     0.19901   0.36175   0.34952   0.00000  Uiso   1.00
C207   C     0.16705   0.45446   0.33202   0.00000  Uiso   1.00
H208   H     0.04496   0.27927   0.48870   0.00000  Uiso   1.00
H209   H     0.09611   0.29310   0.59298   0.00000  Uiso   1.00
H210   H     0.98698   0.10387   0.45720   0.00000  Uiso   1.00
H211   H     0.03550   0.44954   0.42323   0.00000  Uiso   1.00
H212   H     0.17848   0.29462   0.69703   0.00000  Uiso   1.00
H213   H     0.94835   0.89563   0.41072   0.00000  Uiso   1.00
H214   H     0.05066   0.62454   0.33908   0.00000  Uiso   1.00
H215   H     0.24265   0.17311   0.39960   0.00000  Uiso   1.00
H216   H     0.30465   0.18112   0.49900   0.00000  Uiso   1.00
H217   H     0.19551   0.99188   0.36322   0.00000  Uiso   1.00
H218   H     0.24403   0.33755   0.32924   0.00000  Uiso   1.00
H219   H     0.34773   0.20372   0.62075   0.00000  Uiso   1.00
H220   H     0.11760   0.80473   0.33444   0.00000  Uiso   1.00
H221   H     0.21991   0.53364   0.26280   0.00000  Uiso   1.00
O222   O     0.30032   0.25632   0.72589   0.00000  Uiso   1.00
O223   O     0.99840   0.73287   0.35025   0.00000  Uiso   1.00
O224   O     0.13263   0.68918   0.25626   0.00000  Uiso   1.00
N225   N     0.20980   0.27215   0.66544   0.00000  Uiso   1.00
N226   N     0.99465   0.89911   0.39776   0.00000  Uiso   1.00
N227   N     0.09029   0.58056   0.33077   0.00000  Uiso   1.00
N228   N     0.30088   0.22324   0.62439   0.00000  Uiso   1.00
N229   N     0.08573   0.85019   0.35672   0.00000  Uiso   1.00
N230   N     0.18137   0.53165   0.28973   0.00000  Uiso   1.00
C231   C     0.40975   0.24504   0.96829   0.00000  Uiso   1.00
C232   C     0.35454   0.25224   0.01259   0.00000  Uiso   1.00
C233   C     0.35886   0.23106   0.07270   0.00000  Uiso   1.00
C234   C     0.30287   0.24225   0.10572   0.00000  Uiso   1.00
C235   C     0.22600   0.24873   0.17850   0.00000  Uiso   1.00
C236   C     0.41384   0.35507   0.93882   0.00000  Uiso   1.00
C237   C     0.46801   0.42033   0.93691   0.00000  Uiso   1.00
C238   C     0.46194   0.51807   0.90782   0.00000  Uiso   1.00
C239   C     0.47714   0.68415   0.86604   0.00000  Uiso   1.00
C240   C     0.38747   0.16725   0.92037   0.00000  Uiso   1.00
C241   C     0.41949   0.07461   0.90293   0.00000  Uiso   1.00
C242   C     0.39123   0.01423   0.85829   0.00000  Uiso   1.00
C243   C     0.36550   0.88870   0.78786   0.00000  Uiso   1.00
C244   C     0.30265   0.30257   0.92002   0.00000  Uiso   1.00
C245   C     0.29637   0.28349   0.98637   0.00000  Uiso   1.00
C246   C     0.24036   0.29470   0.01930   0.00000  Uiso   1.00
C247   C     0.24459   0.27354   0.07945   0.00000  Uiso   1.00
C248   C     0.35566   0.38631   0.91261   0.00000  Uiso   1.00
C249   C     0.34951   0.48397   0.88351   0.00000  Uiso   1.00
C250   C     0.40366   0.54937   0.88155   0.00000  Uiso   1.00
C251   C     0.32930   0.19849   0.89415   0.00000  Uiso   1.00
C252   C     0.30099   0.13825   0.84952   0.00000  Uiso   1.00
C253   C     0.33295   0.04554   0.83202   0.00000  Uiso   1.00
H254   H     0.45504   0.22073   0.98870   0.00000  Uiso   1.00
H255   H     0.40389   0.20690   0.09298   0.00000  Uiso   1.00
H256   H     0.51302   0.39613   0.95720   0.00000  Uiso   1.00
H257   H     0.46450   0.05046   0.92323   0.00000  Uiso   1.00
H258   H     0.32152   0.20538   0.19703   0.00000  Uiso   1.00
H259   H     0.55165   0.60437   0.91072   0.00000  Uiso   1.00
H260   H     0.44934   0.87546   0.83908   0.00000  Uiso   1.00
H261   H     0.25735   0.32689   0.89960   0.00000  Uiso   1.00
H262   H     0.19535   0.31888   0.99900   0.00000  Uiso   1.00
H263   H     0.30449   0.50812   0.86322   0.00000  Uiso   1.00
H264   H     0.25597   0.16245   0.82924   0.00000  Uiso   1.00
H265   H     0.15227   0.29628   0.12075   0.00000  Uiso   1.00
H266   H     0.38240   0.69527   0.83444   0.00000  Uiso   1.00
H267   H     0.28009   0.96636   0.76280   0.00000  Uiso   1.00
O268   O     0.19968   0.24368   0.22589   0.00000  Uiso   1.00
O269   O     0.50160   0.76713   0.85025   0.00000  Uiso   1.00
O270   O     0.36737   0.81082   0.75626   0.00000  Uiso   1.00
N271   N     0.29020   0.22785   0.16544   0.00000  Uiso   1.00
N272   N     0.50535   0.60089   0.89776   0.00000  Uiso   1.00
N273   N     0.40971   0.91944   0.83077   0.00000  Uiso   1.00
N274   N     0.19912   0.27676   0.12439   0.00000  Uiso   1.00
N275   N     0.41427   0.64981   0.85672   0.00000  Uiso   1.00
N276   N     0.31863   0.96835   0.78973   0.00000  Uiso   1.00
C277   C     0.90975   0.25496   0.03171   0.00000  Uiso   1.00
C278   C     0.85454   0.24776   0.98741   0.00000  Uiso   1.00
C279   C     0.85886   0.26894   0.92730   0.00000  Uiso   1.00
C280   C     0.80287   0.25775   0.89428   0.00000  Uiso   1.00
C281   C     0.72600   0.25127   0.82150   0.00000  Uiso   1.00
C282   C     0.91384   0.14493   0.06118   0.00000  Uiso   1.00
C283   C     0.96801   0.07967   0.06309   0.00000  Uiso   1.00
C284   C     0.96194   0.98193   0.09218   0.00000  Uiso   1.00
C285   C     0.97714   0.81585   0.13396   0.00000  Uiso   1.00
C286   C     0.88747   0.33275   0.07963   0.00000  Uiso   1.00
C287   C     0.91949   0.42539   0.09707   0.00000  Uiso   1.00
C288   C     0.89123   0.48577   0.14171   0.00000  Uiso   1.00
C289   C     0.86550   0.61130   0.21214   0.00000  Uiso   1.00
C290   C     0.80265   0.19743   0.07998   0.00000  Uiso   1.00
C291   C     0.79637   0.21651   0.01363   0.00000  Uiso   1.00
C292   C     0.74036   0.20530   0.98070   0.00000  Uiso   1.00
C293   C     0.74459   0.22646   0.92055   0.00000  Uiso   1.00
C294   C     0.85566   0.11369   0.08739   0.00000  Uiso   1.00
C295   C     0.84951   0.01603   0.11649   0.00000  Uiso   1.00
C296   C     0.90366   0.95063   0.11845   0.00000  Uiso   1.00
C297   C     0.82930   0.30151   0.10585   0.00000  Uiso   1.00
C298   C     0.80099   0.36175   0.15048   0.00000  Uiso   1.00
C299   C     0.83295   0.45446   0.16798   0.00000  Uiso   1.00
H300   H     0.95504   0.27927   0.01130   0.00000  Uiso   1.00
H301   H     0.90389   0.29310   0.90702   0.00000  Uiso   1.00
H302   H     0.01302   0.10387   0.04280   0.00000  Uiso   1.00
H303   H     0.96450   0.44954   0.07677   0.00000  Uiso   1.00
H304   H     0.82152   0.29462   0.80297   0.00000  Uiso   1.00
H305   H     0.05165   0.89563   0.08928   0.00000  Uiso   1.00
H306   H     0.94934   0.62454   0.16092   0.00000  Uiso   1.00
H307   H     0.75735   0.17311   0.10040   0.00000  Uiso   1.00
H308   H     0.69535   0.18112   0.00100   0.00000  Uiso   1.00
H309   H     0.80449   0.99188   0.13678   0.00000  Uiso   1.00
H310   H     0.75597   0.33755   0.17076   0.00000  Uiso   1.00
H311   H     0.65227   0.20372   0.87925   0.00000  Uiso   1.00
H312   H     0.88240   0.80473   0.16556   0.00000  Uiso   1.00
H313   H     0.78009   0.53364   0.23720   0.00000  Uiso   1.00
O314   O     0.69968   0.25632   0.77411   0.00000  Uiso   1.00
O315   O     0.00160   0.73287   0.14975   0.00000  Uiso   1.00
O316   O     0.86737   0.68918   0.24374   0.00000  Uiso   1.00
N317   N     0.79020   0.27215   0.83456   0.00000  Uiso   1.00
N318   N     0.00535   0.89911   0.10224   0.00000  Uiso   1.00
N319   N     0.90971   0.58056   0.16923   0.00000  Uiso   1.00
N320   N     0.69912   0.22324   0.87561   0.00000  Uiso   1.00
N321   N     0.91427   0.85019   0.14328   0.00000  Uiso   1.00
N322   N     0.81863   0.53165   0.21027   0.00000  Uiso   1.00
C323   C     0.59025   0.24504   0.53171   0.00000  Uiso   1.00
C324   C     0.64546   0.25224   0.48741   0.00000  Uiso   1.00
C325   C     0.64114   0.23106   0.42730   0.00000  Uiso   1.00
C326   C     0.69713   0.24225   0.39428   0.00000  Uiso   1.00
C327   C     0.77400   0.24873   0.32150   0.00000  Uiso   1.00
C328   C     0.58616   0.35507   0.56118   0.00000  Uiso   1.00
C329   C     0.53199   0.42033   0.56309   0.00000  Uiso   1.00
C330   C     0.53806   0.51807   0.59218   0.00000  Uiso   1.00
C331   C     0.52286   0.68415   0.63396   0.00000  Uiso   1.00
C332   C     0.61253   0.16725   0.57963   0.00000  Uiso   1.00
C333   C     0.58051   0.07461   0.59707   0.00000  Uiso   1.00
C334   C     0.60877   0.01423   0.64171   0.00000  Uiso   1.00
C335   C     0.63450   0.88870   0.71214   0.00000  Uiso   1.00
C336   C     0.69735   0.30257   0.57998   0.00000  Uiso   1.00
C337   C     0.70363   0.28349   0.51363   0.00000  Uiso   1.00
C338   C     0.75964   0.29470   0.48070   0.00000  Uiso   1.00
C339   C     0.75541   0.27354   0.42055   0.00000  Uiso   1.00
C340   C     0.64434   0.38631   0.58739   0.00000  Uiso   1.00
C341   C     0.65049   0.48397   0.61649   0.00000  Uiso   1.00
C342   C     0.59634   0.54937   0.61845   0.00000  Uiso   1.00
C343   C     0.67070   0.19849   0.60585   0.00000  Uiso   1.00
C344   C     0.69901   0.13825   0.65048   0.00000  Uiso   1.00
C345   C     0.66705   0.04554   0.66798   0.00000  Uiso   1.00
H346   H     0.54496   0.22073   0.51130   0.00000  Uiso   1.00
H347   H     0.59611   0.20690   0.40702   0.00000  Uiso   1.00
H348   H     0.48698   0.39613   0.54280   0.00000  Uiso   1.00
H349   H     0.53550   0.05046   0.57677   0.00000  Uiso   1.00
H350   H     0.67848   0.20538   0.30297   0.00000  Uiso   1.00
H351   H     0.44835   0.60437   0.58928   0.00000  Uiso   1.00
H352   H     0.55066   0.87546   0.66092   0.00000  Uiso   1.00
H353   H     0.74265   0.32689   0.60040   0.00000  Uiso   1.00
H354   H     0.80465   0.31888   0.50100   0.00000  Uiso   1.00
H355   H     0.69551   0.50812   0.63678   0.00000  Uiso   1.00
H356   H     0.74403   0.16245   0.67076   0.00000  Uiso   1.00
H357   H     0.84773   0.29628   0.37925   0.00000  Uiso   1.00
H358   H     0.61760   0.69527   0.66556   0.00000  Uiso   1.00
H359   H     0.71991   0.96636   0.73720   0.00000  Uiso   1.00
O360   O     0.80032   0.24368   0.27411   0.00000  Uiso   1.00
O361   O     0.49840   0.76713   0.64975   0.00000  Uiso   1.00
O362   O     0.63263   0.81082   0.74374   0.00000  Uiso   1.00
N363   N     0.70980   0.22785   0.33456   0.00000  Uiso   1.00
N364   N     0.49465   0.60089   0.60224   0.00000  Uiso   1.00
N365   N     0.59029   0.91944   0.66923   0.00000  Uiso   1.00
N366   N     0.80088   0.27676   0.37561   0.00000  Uiso   1.00
N367   N     0.58573   0.64981   0.64328   0.00000  Uiso   1.00
N368   N     0.68137   0.96835   0.71027   0.00000  Uiso   1.00
