data_job_03034
_audit_creation_date              2018-12-19
_audit_creation_method            'Materials Studio'
_symmetry_space_group_name_H-M    'P1'
_symmetry_Int_Tables_number       1
_symmetry_cell_setting            triclinic
loop_
_symmetry_equiv_pos_as_xyz
  x,y,z
_cell_length_a                    27.5767
_cell_length_b                    16.5532
_cell_length_c                    19.8734
_cell_angle_alpha                 90.0000
_cell_angle_beta                  136.2337
_cell_angle_gamma                 90.0000
loop_
_atom_site_label
_atom_site_type_symbol
_atom_site_fract_x
_atom_site_fract_y
_atom_site_fract_z
_atom_site_U_iso_or_equiv
_atom_site_adp_type
_atom_site_occupancy
C1     C     0.32765   0.80425   0.74618   0.00000  Uiso   1.00
C2     C     0.39633   0.84547   0.79593   0.00000  Uiso   1.00
C3     C     0.45741   0.80658   0.83741   0.00000  Uiso   1.00
C4     C     0.51461   0.85507   0.87939   0.00000  Uiso   1.00
C5     C     0.62185   0.90623   0.95663   0.00000  Uiso   1.00
C6     C     0.30992   0.83374   0.79908   0.00000  Uiso   1.00
C7     C     0.29834   0.78498   0.84320   0.00000  Uiso   1.00
C8     C     0.28279   0.82360   0.88781   0.00000  Uiso   1.00
C9     C     0.25582   0.85655   0.96988   0.00000  Uiso   1.00
C10    C     0.27187   0.83995   0.64405   0.00000  Uiso   1.00
C11    C     0.22829   0.79642   0.55781   0.00000  Uiso   1.00
C12    C     0.18069   0.84026   0.47190   0.00000  Uiso   1.00
C13    C     0.09465   0.88286   0.31326   0.00000  Uiso   1.00
C14    C     0.32060   0.95952   0.74695   0.00000  Uiso   1.00
C15    C     0.39250   0.92980   0.79636   0.00000  Uiso   1.00
C16    C     0.44962   0.97836   0.83827   0.00000  Uiso   1.00
C17    C     0.51078   0.93955   0.87981   0.00000  Uiso   1.00
C18    C     0.30609   0.91807   0.79951   0.00000  Uiso   1.00
C19    C     0.29055   0.95676   0.84406   0.00000  Uiso   1.00
C20    C     0.27895   0.90808   0.88824   0.00000  Uiso   1.00
C21    C     0.26805   0.92428   0.64447   0.00000  Uiso   1.00
C22    C     0.22050   0.96820   0.55868   0.00000  Uiso   1.00
C23    C     0.17686   0.92474   0.47232   0.00000  Uiso   1.00
H24    H     0.33062   0.73860   0.74585   0.00000  Uiso   1.00
H25    H     0.46035   0.74131   0.83708   0.00000  Uiso   1.00
H26    H     0.30130   0.71973   0.84285   0.00000  Uiso   1.00
H27    H     0.23126   0.73116   0.55751   0.00000  Uiso   1.00
H28    H     0.60251   0.78152   0.93844   0.00000  Uiso   1.00
H29    H     0.26710   0.73599   0.95059   0.00000  Uiso   1.00
H30    H     0.11942   0.76010   0.34889   0.00000  Uiso   1.00
H31    H     0.31762   0.02517   0.74728   0.00000  Uiso   1.00
H32    H     0.44665   0.04362   0.83859   0.00000  Uiso   1.00
H33    H     0.28759   0.02203   0.84437   0.00000  Uiso   1.00
H34    H     0.21756   0.03346   0.55903   0.00000  Uiso   1.00
H35    H     0.59138   0.02688   0.93967   0.00000  Uiso   1.00
H36    H     0.25597   0.98135   0.95182   0.00000  Uiso   1.00
H37    H     0.10830   0.00546   0.35012   0.00000  Uiso   1.00
O38    O     0.68206   0.91116   0.99913   0.00000  Uiso   1.00
O39    O     0.24201   0.85143   0.01504   0.00000  Uiso   1.00
O40    O     0.04826   0.88306   0.22564   0.00000  Uiso   1.00
N41    N     0.58218   0.83673   0.92618   0.00000  Uiso   1.00
N42    N     0.26861   0.79417   0.93755   0.00000  Uiso   1.00
N43    N     0.13052   0.81671   0.37502   0.00000  Uiso   1.00
N44    N     0.57619   0.96876   0.92685   0.00000  Uiso   1.00
N45    N     0.26262   0.92619   0.93822   0.00000  Uiso   1.00
N46    N     0.12454   0.94873   0.37568   0.00000  Uiso   1.00
C47    C     0.82765   0.30425   0.74618   0.00000  Uiso   1.00
C48    C     0.89633   0.34547   0.79593   0.00000  Uiso   1.00
C49    C     0.95741   0.30658   0.83741   0.00000  Uiso   1.00
C50    C     0.01461   0.35507   0.87939   0.00000  Uiso   1.00
C51    C     0.12185   0.40623   0.95663   0.00000  Uiso   1.00
C52    C     0.80992   0.33374   0.79908   0.00000  Uiso   1.00
C53    C     0.79834   0.28498   0.84320   0.00000  Uiso   1.00
C54    C     0.78279   0.32360   0.88781   0.00000  Uiso   1.00
C55    C     0.75582   0.35655   0.96988   0.00000  Uiso   1.00
C56    C     0.77187   0.33995   0.64405   0.00000  Uiso   1.00
C57    C     0.72829   0.29642   0.55781   0.00000  Uiso   1.00
C58    C     0.68069   0.34026   0.47190   0.00000  Uiso   1.00
C59    C     0.59465   0.38286   0.31326   0.00000  Uiso   1.00
C60    C     0.82060   0.45952   0.74695   0.00000  Uiso   1.00
C61    C     0.89250   0.42980   0.79636   0.00000  Uiso   1.00
C62    C     0.94962   0.47836   0.83827   0.00000  Uiso   1.00
C63    C     0.01078   0.43955   0.87981   0.00000  Uiso   1.00
C64    C     0.80609   0.41807   0.79951   0.00000  Uiso   1.00
C65    C     0.79055   0.45676   0.84406   0.00000  Uiso   1.00
C66    C     0.77895   0.40808   0.88824   0.00000  Uiso   1.00
C67    C     0.76805   0.42428   0.64447   0.00000  Uiso   1.00
C68    C     0.72050   0.46820   0.55868   0.00000  Uiso   1.00
C69    C     0.67686   0.42474   0.47232   0.00000  Uiso   1.00
H70    H     0.83062   0.23860   0.74585   0.00000  Uiso   1.00
H71    H     0.96035   0.24131   0.83708   0.00000  Uiso   1.00
H72    H     0.80130   0.21973   0.84285   0.00000  Uiso   1.00
H73    H     0.73126   0.23116   0.55751   0.00000  Uiso   1.00
H74    H     0.10251   0.28152   0.93844   0.00000  Uiso   1.00
H75    H     0.76710   0.23599   0.95059   0.00000  Uiso   1.00
H76    H     0.61942   0.26010   0.34889   0.00000  Uiso   1.00
H77    H     0.81762   0.52517   0.74728   0.00000  Uiso   1.00
H78    H     0.94665   0.54362   0.83859   0.00000  Uiso   1.00
H79    H     0.78759   0.52203   0.84437   0.00000  Uiso   1.00
H80    H     0.71756   0.53346   0.55903   0.00000  Uiso   1.00
H81    H     0.09138   0.52688   0.93967   0.00000  Uiso   1.00
H82    H     0.75597   0.48135   0.95182   0.00000  Uiso   1.00
H83    H     0.60830   0.50546   0.35012   0.00000  Uiso   1.00
O84    O     0.18206   0.41116   0.99913   0.00000  Uiso   1.00
O85    O     0.74201   0.35143   0.01504   0.00000  Uiso   1.00
O86    O     0.54826   0.38306   0.22564   0.00000  Uiso   1.00
N87    N     0.08218   0.33673   0.92618   0.00000  Uiso   1.00
N88    N     0.76861   0.29417   0.93755   0.00000  Uiso   1.00
N89    N     0.63052   0.31671   0.37502   0.00000  Uiso   1.00
N90    N     0.07619   0.46876   0.92685   0.00000  Uiso   1.00
N91    N     0.76262   0.42619   0.93822   0.00000  Uiso   1.00
N92    N     0.62454   0.44873   0.37568   0.00000  Uiso   1.00
C93    C     0.67235   0.80425   0.75382   0.00000  Uiso   1.00
C94    C     0.60367   0.84547   0.70407   0.00000  Uiso   1.00
C95    C     0.54259   0.80658   0.66259   0.00000  Uiso   1.00
C96    C     0.48539   0.85507   0.62061   0.00000  Uiso   1.00
C97    C     0.37815   0.90623   0.54337   0.00000  Uiso   1.00
C98    C     0.69008   0.83374   0.70092   0.00000  Uiso   1.00
C99    C     0.70166   0.78498   0.65680   0.00000  Uiso   1.00
C100   C     0.71721   0.82360   0.61219   0.00000  Uiso   1.00
C101   C     0.74418   0.85655   0.53012   0.00000  Uiso   1.00
C102   C     0.72813   0.83995   0.85595   0.00000  Uiso   1.00
C103   C     0.77171   0.79642   0.94219   0.00000  Uiso   1.00
C104   C     0.81931   0.84026   0.02810   0.00000  Uiso   1.00
C105   C     0.90535   0.88286   0.18674   0.00000  Uiso   1.00
C106   C     0.67940   0.95952   0.75305   0.00000  Uiso   1.00
C107   C     0.60750   0.92980   0.70364   0.00000  Uiso   1.00
C108   C     0.55038   0.97836   0.66173   0.00000  Uiso   1.00
C109   C     0.48922   0.93955   0.62019   0.00000  Uiso   1.00
C110   C     0.69391   0.91807   0.70049   0.00000  Uiso   1.00
C111   C     0.70945   0.95676   0.65594   0.00000  Uiso   1.00
C112   C     0.72105   0.90808   0.61176   0.00000  Uiso   1.00
C113   C     0.73195   0.92428   0.85553   0.00000  Uiso   1.00
C114   C     0.77950   0.96820   0.94132   0.00000  Uiso   1.00
C115   C     0.82314   0.92474   0.02768   0.00000  Uiso   1.00
H116   H     0.66938   0.73860   0.75415   0.00000  Uiso   1.00
H117   H     0.53965   0.74131   0.66292   0.00000  Uiso   1.00
H118   H     0.69870   0.71973   0.65715   0.00000  Uiso   1.00
H119   H     0.76874   0.73116   0.94249   0.00000  Uiso   1.00
H120   H     0.39749   0.78152   0.56156   0.00000  Uiso   1.00
H121   H     0.73290   0.73599   0.54941   0.00000  Uiso   1.00
H122   H     0.88058   0.76010   0.15111   0.00000  Uiso   1.00
H123   H     0.68238   0.02517   0.75272   0.00000  Uiso   1.00
H124   H     0.55335   0.04362   0.66141   0.00000  Uiso   1.00
H125   H     0.71241   0.02203   0.65563   0.00000  Uiso   1.00
H126   H     0.78244   0.03346   0.94097   0.00000  Uiso   1.00
H127   H     0.40862   0.02688   0.56033   0.00000  Uiso   1.00
H128   H     0.74403   0.98135   0.54818   0.00000  Uiso   1.00
H129   H     0.89170   0.00546   0.14988   0.00000  Uiso   1.00
O130   O     0.31794   0.91116   0.50087   0.00000  Uiso   1.00
O131   O     0.75799   0.85143   0.48496   0.00000  Uiso   1.00
O132   O     0.95174   0.88306   0.27436   0.00000  Uiso   1.00
N133   N     0.41782   0.83673   0.57382   0.00000  Uiso   1.00
N134   N     0.73139   0.79417   0.56245   0.00000  Uiso   1.00
N135   N     0.86948   0.81671   0.12498   0.00000  Uiso   1.00
N136   N     0.42381   0.96876   0.57315   0.00000  Uiso   1.00
N137   N     0.73738   0.92619   0.56178   0.00000  Uiso   1.00
N138   N     0.87546   0.94873   0.12432   0.00000  Uiso   1.00
C139   C     0.17235   0.30425   0.75382   0.00000  Uiso   1.00
C140   C     0.10367   0.34547   0.70407   0.00000  Uiso   1.00
C141   C     0.04259   0.30658   0.66259   0.00000  Uiso   1.00
C142   C     0.98539   0.35507   0.62061   0.00000  Uiso   1.00
C143   C     0.87815   0.40623   0.54337   0.00000  Uiso   1.00
C144   C     0.19008   0.33374   0.70092   0.00000  Uiso   1.00
C145   C     0.20166   0.28498   0.65680   0.00000  Uiso   1.00
C146   C     0.21721   0.32360   0.61219   0.00000  Uiso   1.00
C147   C     0.24418   0.35655   0.53012   0.00000  Uiso   1.00
C148   C     0.22813   0.33995   0.85595   0.00000  Uiso   1.00
C149   C     0.27171   0.29642   0.94219   0.00000  Uiso   1.00
C150   C     0.31931   0.34026   0.02810   0.00000  Uiso   1.00
C151   C     0.40535   0.38286   0.18674   0.00000  Uiso   1.00
C152   C     0.17940   0.45952   0.75305   0.00000  Uiso   1.00
C153   C     0.10750   0.42980   0.70364   0.00000  Uiso   1.00
C154   C     0.05038   0.47836   0.66173   0.00000  Uiso   1.00
C155   C     0.98922   0.43955   0.62019   0.00000  Uiso   1.00
C156   C     0.19391   0.41807   0.70049   0.00000  Uiso   1.00
C157   C     0.20945   0.45676   0.65594   0.00000  Uiso   1.00
C158   C     0.22105   0.40808   0.61176   0.00000  Uiso   1.00
C159   C     0.23195   0.42428   0.85553   0.00000  Uiso   1.00
C160   C     0.27950   0.46820   0.94132   0.00000  Uiso   1.00
C161   C     0.32314   0.42474   0.02768   0.00000  Uiso   1.00
H162   H     0.16938   0.23860   0.75415   0.00000  Uiso   1.00
H163   H     0.03965   0.24131   0.66292   0.00000  Uiso   1.00
H164   H     0.19870   0.21973   0.65715   0.00000  Uiso   1.00
H165   H     0.26874   0.23116   0.94249   0.00000  Uiso   1.00
H166   H     0.89749   0.28152   0.56156   0.00000  Uiso   1.00
H167   H     0.23290   0.23599   0.54941   0.00000  Uiso   1.00
H168   H     0.38058   0.26010   0.15111   0.00000  Uiso   1.00
H169   H     0.18238   0.52517   0.75272   0.00000  Uiso   1.00
H170   H     0.05335   0.54362   0.66141   0.00000  Uiso   1.00
H171   H     0.21241   0.52203   0.65563   0.00000  Uiso   1.00
H172   H     0.28244   0.53346   0.94097   0.00000  Uiso   1.00
H173   H     0.90862   0.52688   0.56033   0.00000  Uiso   1.00
H174   H     0.24403   0.48135   0.54818   0.00000  Uiso   1.00
H175   H     0.39170   0.50546   0.14988   0.00000  Uiso   1.00
O176   O     0.81794   0.41116   0.50087   0.00000  Uiso   1.00
O177   O     0.25799   0.35143   0.48496   0.00000  Uiso   1.00
O178   O     0.45174   0.38306   0.27436   0.00000  Uiso   1.00
N179   N     0.91782   0.33673   0.57382   0.00000  Uiso   1.00
N180   N     0.23139   0.29417   0.56245   0.00000  Uiso   1.00
N181   N     0.36948   0.31671   0.12498   0.00000  Uiso   1.00
N182   N     0.92381   0.46876   0.57315   0.00000  Uiso   1.00
N183   N     0.23738   0.42619   0.56178   0.00000  Uiso   1.00
N184   N     0.37546   0.44873   0.12432   0.00000  Uiso   1.00
C185   C     0.67235   0.19575   0.25382   0.00000  Uiso   1.00
C186   C     0.60367   0.15453   0.20407   0.00000  Uiso   1.00
C187   C     0.54259   0.19342   0.16259   0.00000  Uiso   1.00
C188   C     0.48539   0.14493   0.12061   0.00000  Uiso   1.00
C189   C     0.37815   0.09377   0.04337   0.00000  Uiso   1.00
C190   C     0.69008   0.16626   0.20092   0.00000  Uiso   1.00
C191   C     0.70166   0.21502   0.15680   0.00000  Uiso   1.00
C192   C     0.71721   0.17640   0.11219   0.00000  Uiso   1.00
C193   C     0.74418   0.14345   0.03012   0.00000  Uiso   1.00
C194   C     0.72813   0.16005   0.35595   0.00000  Uiso   1.00
C195   C     0.77171   0.20358   0.44219   0.00000  Uiso   1.00
C196   C     0.81931   0.15974   0.52810   0.00000  Uiso   1.00
C197   C     0.90535   0.11714   0.68674   0.00000  Uiso   1.00
C198   C     0.67940   0.04048   0.25305   0.00000  Uiso   1.00
C199   C     0.60750   0.07020   0.20364   0.00000  Uiso   1.00
C200   C     0.55038   0.02164   0.16173   0.00000  Uiso   1.00
C201   C     0.48922   0.06045   0.12019   0.00000  Uiso   1.00
C202   C     0.69391   0.08193   0.20049   0.00000  Uiso   1.00
C203   C     0.70945   0.04324   0.15594   0.00000  Uiso   1.00
C204   C     0.72105   0.09192   0.11176   0.00000  Uiso   1.00
C205   C     0.73195   0.07572   0.35553   0.00000  Uiso   1.00
C206   C     0.77950   0.03180   0.44132   0.00000  Uiso   1.00
C207   C     0.82314   0.07526   0.52768   0.00000  Uiso   1.00
H208   H     0.66938   0.26140   0.25415   0.00000  Uiso   1.00
H209   H     0.53965   0.25869   0.16292   0.00000  Uiso   1.00
H210   H     0.69870   0.28027   0.15715   0.00000  Uiso   1.00
H211   H     0.76874   0.26884   0.44249   0.00000  Uiso   1.00
H212   H     0.39749   0.21848   0.06156   0.00000  Uiso   1.00
H213   H     0.73290   0.26401   0.04941   0.00000  Uiso   1.00
H214   H     0.88058   0.23990   0.65111   0.00000  Uiso   1.00
H215   H     0.68238   0.97483   0.25272   0.00000  Uiso   1.00
H216   H     0.55335   0.95638   0.16141   0.00000  Uiso   1.00
H217   H     0.71241   0.97797   0.15563   0.00000  Uiso   1.00
H218   H     0.78244   0.96654   0.44097   0.00000  Uiso   1.00
H219   H     0.40862   0.97312   0.06033   0.00000  Uiso   1.00
H220   H     0.74403   0.01865   0.04818   0.00000  Uiso   1.00
H221   H     0.89170   0.99454   0.64988   0.00000  Uiso   1.00
O222   O     0.31794   0.08884   0.00087   0.00000  Uiso   1.00
O223   O     0.75799   0.14857   0.98496   0.00000  Uiso   1.00
O224   O     0.95174   0.11694   0.77436   0.00000  Uiso   1.00
N225   N     0.41782   0.16327   0.07382   0.00000  Uiso   1.00
N226   N     0.73139   0.20583   0.06245   0.00000  Uiso   1.00
N227   N     0.86948   0.18329   0.62498   0.00000  Uiso   1.00
N228   N     0.42381   0.03124   0.07315   0.00000  Uiso   1.00
N229   N     0.73738   0.07381   0.06178   0.00000  Uiso   1.00
N230   N     0.87546   0.05127   0.62432   0.00000  Uiso   1.00
C231   C     0.17235   0.69575   0.25382   0.00000  Uiso   1.00
C232   C     0.10367   0.65453   0.20407   0.00000  Uiso   1.00
C233   C     0.04259   0.69342   0.16259   0.00000  Uiso   1.00
C234   C     0.98539   0.64493   0.12061   0.00000  Uiso   1.00
C235   C     0.87815   0.59377   0.04337   0.00000  Uiso   1.00
C236   C     0.19008   0.66626   0.20092   0.00000  Uiso   1.00
C237   C     0.20166   0.71502   0.15680   0.00000  Uiso   1.00
C238   C     0.21721   0.67640   0.11219   0.00000  Uiso   1.00
C239   C     0.24418   0.64345   0.03012   0.00000  Uiso   1.00
C240   C     0.22813   0.66005   0.35595   0.00000  Uiso   1.00
C241   C     0.27171   0.70358   0.44219   0.00000  Uiso   1.00
C242   C     0.31931   0.65974   0.52810   0.00000  Uiso   1.00
C243   C     0.40535   0.61714   0.68674   0.00000  Uiso   1.00
C244   C     0.17940   0.54048   0.25305   0.00000  Uiso   1.00
C245   C     0.10750   0.57020   0.20364   0.00000  Uiso   1.00
C246   C     0.05038   0.52164   0.16173   0.00000  Uiso   1.00
C247   C     0.98922   0.56045   0.12019   0.00000  Uiso   1.00
C248   C     0.19391   0.58193   0.20049   0.00000  Uiso   1.00
C249   C     0.20945   0.54324   0.15594   0.00000  Uiso   1.00
C250   C     0.22105   0.59192   0.11176   0.00000  Uiso   1.00
C251   C     0.23195   0.57572   0.35553   0.00000  Uiso   1.00
C252   C     0.27950   0.53180   0.44132   0.00000  Uiso   1.00
C253   C     0.32314   0.57526   0.52768   0.00000  Uiso   1.00
H254   H     0.16938   0.76140   0.25415   0.00000  Uiso   1.00
H255   H     0.03965   0.75869   0.16292   0.00000  Uiso   1.00
H256   H     0.19870   0.78027   0.15715   0.00000  Uiso   1.00
H257   H     0.26874   0.76884   0.44249   0.00000  Uiso   1.00
H258   H     0.89749   0.71848   0.06156   0.00000  Uiso   1.00
H259   H     0.23290   0.76401   0.04941   0.00000  Uiso   1.00
H260   H     0.38058   0.73990   0.65111   0.00000  Uiso   1.00
H261   H     0.18238   0.47483   0.25272   0.00000  Uiso   1.00
H262   H     0.05335   0.45638   0.16141   0.00000  Uiso   1.00
H263   H     0.21241   0.47797   0.15563   0.00000  Uiso   1.00
H264   H     0.28244   0.46654   0.44097   0.00000  Uiso   1.00
H265   H     0.90862   0.47312   0.06033   0.00000  Uiso   1.00
H266   H     0.24403   0.51865   0.04818   0.00000  Uiso   1.00
H267   H     0.39170   0.49454   0.64988   0.00000  Uiso   1.00
O268   O     0.81794   0.58884   0.00087   0.00000  Uiso   1.00
O269   O     0.25799   0.64857   0.98496   0.00000  Uiso   1.00
O270   O     0.45174   0.61694   0.77436   0.00000  Uiso   1.00
N271   N     0.91782   0.66327   0.07382   0.00000  Uiso   1.00
N272   N     0.23139   0.70583   0.06245   0.00000  Uiso   1.00
N273   N     0.36948   0.68329   0.62498   0.00000  Uiso   1.00
N274   N     0.92381   0.53124   0.07315   0.00000  Uiso   1.00
N275   N     0.23738   0.57381   0.06178   0.00000  Uiso   1.00
N276   N     0.37546   0.55127   0.62432   0.00000  Uiso   1.00
C277   C     0.32765   0.19575   0.24618   0.00000  Uiso   1.00
C278   C     0.39633   0.15453   0.29593   0.00000  Uiso   1.00
C279   C     0.45741   0.19342   0.33741   0.00000  Uiso   1.00
C280   C     0.51461   0.14493   0.37939   0.00000  Uiso   1.00
C281   C     0.62185   0.09377   0.45663   0.00000  Uiso   1.00
C282   C     0.30992   0.16626   0.29908   0.00000  Uiso   1.00
C283   C     0.29834   0.21502   0.34320   0.00000  Uiso   1.00
C284   C     0.28279   0.17640   0.38781   0.00000  Uiso   1.00
C285   C     0.25582   0.14345   0.46988   0.00000  Uiso   1.00
C286   C     0.27187   0.16005   0.14405   0.00000  Uiso   1.00
C287   C     0.22829   0.20358   0.05781   0.00000  Uiso   1.00
C288   C     0.18069   0.15974   0.97190   0.00000  Uiso   1.00
C289   C     0.09465   0.11714   0.81326   0.00000  Uiso   1.00
C290   C     0.32060   0.04048   0.24695   0.00000  Uiso   1.00
C291   C     0.39250   0.07020   0.29636   0.00000  Uiso   1.00
C292   C     0.44962   0.02164   0.33827   0.00000  Uiso   1.00
C293   C     0.51078   0.06045   0.37981   0.00000  Uiso   1.00
C294   C     0.30609   0.08193   0.29951   0.00000  Uiso   1.00
C295   C     0.29055   0.04324   0.34406   0.00000  Uiso   1.00
C296   C     0.27895   0.09192   0.38824   0.00000  Uiso   1.00
C297   C     0.26805   0.07572   0.14447   0.00000  Uiso   1.00
C298   C     0.22050   0.03180   0.05868   0.00000  Uiso   1.00
C299   C     0.17686   0.07526   0.97232   0.00000  Uiso   1.00
H300   H     0.33062   0.26140   0.24585   0.00000  Uiso   1.00
H301   H     0.46035   0.25869   0.33708   0.00000  Uiso   1.00
H302   H     0.30130   0.28027   0.34285   0.00000  Uiso   1.00
H303   H     0.23126   0.26884   0.05751   0.00000  Uiso   1.00
H304   H     0.60251   0.21848   0.43844   0.00000  Uiso   1.00
H305   H     0.26710   0.26401   0.45059   0.00000  Uiso   1.00
H306   H     0.11942   0.23990   0.84889   0.00000  Uiso   1.00
H307   H     0.31762   0.97483   0.24728   0.00000  Uiso   1.00
H308   H     0.44665   0.95638   0.33859   0.00000  Uiso   1.00
H309   H     0.28759   0.97797   0.34437   0.00000  Uiso   1.00
H310   H     0.21756   0.96654   0.05903   0.00000  Uiso   1.00
H311   H     0.59138   0.97312   0.43967   0.00000  Uiso   1.00
H312   H     0.25597   0.01865   0.45182   0.00000  Uiso   1.00
H313   H     0.10830   0.99454   0.85012   0.00000  Uiso   1.00
O314   O     0.68206   0.08884   0.49913   0.00000  Uiso   1.00
O315   O     0.24201   0.14857   0.51504   0.00000  Uiso   1.00
O316   O     0.04826   0.11694   0.72564   0.00000  Uiso   1.00
N317   N     0.58218   0.16327   0.42618   0.00000  Uiso   1.00
N318   N     0.26861   0.20583   0.43755   0.00000  Uiso   1.00
N319   N     0.13052   0.18329   0.87502   0.00000  Uiso   1.00
N320   N     0.57619   0.03124   0.42685   0.00000  Uiso   1.00
N321   N     0.26262   0.07381   0.43822   0.00000  Uiso   1.00
N322   N     0.12454   0.05127   0.87568   0.00000  Uiso   1.00
C323   C     0.82765   0.69575   0.24618   0.00000  Uiso   1.00
C324   C     0.89633   0.65453   0.29593   0.00000  Uiso   1.00
C325   C     0.95741   0.69342   0.33741   0.00000  Uiso   1.00
C326   C     0.01461   0.64493   0.37939   0.00000  Uiso   1.00
C327   C     0.12185   0.59377   0.45663   0.00000  Uiso   1.00
C328   C     0.80992   0.66626   0.29908   0.00000  Uiso   1.00
C329   C     0.79834   0.71502   0.34320   0.00000  Uiso   1.00
C330   C     0.78279   0.67640   0.38781   0.00000  Uiso   1.00
C331   C     0.75582   0.64345   0.46988   0.00000  Uiso   1.00
C332   C     0.77187   0.66005   0.14405   0.00000  Uiso   1.00
C333   C     0.72829   0.70358   0.05781   0.00000  Uiso   1.00
C334   C     0.68069   0.65974   0.97190   0.00000  Uiso   1.00
C335   C     0.59465   0.61714   0.81326   0.00000  Uiso   1.00
C336   C     0.82060   0.54048   0.24695   0.00000  Uiso   1.00
C337   C     0.89250   0.57020   0.29636   0.00000  Uiso   1.00
C338   C     0.94962   0.52164   0.33827   0.00000  Uiso   1.00
C339   C     0.01078   0.56045   0.37981   0.00000  Uiso   1.00
C340   C     0.80609   0.58193   0.29951   0.00000  Uiso   1.00
C341   C     0.79055   0.54324   0.34406   0.00000  Uiso   1.00
C342   C     0.77895   0.59192   0.38824   0.00000  Uiso   1.00
C343   C     0.76805   0.57572   0.14447   0.00000  Uiso   1.00
C344   C     0.72050   0.53180   0.05868   0.00000  Uiso   1.00
C345   C     0.67686   0.57526   0.97232   0.00000  Uiso   1.00
H346   H     0.83062   0.76140   0.24585   0.00000  Uiso   1.00
H347   H     0.96035   0.75869   0.33708   0.00000  Uiso   1.00
H348   H     0.80130   0.78027   0.34285   0.00000  Uiso   1.00
H349   H     0.73126   0.76884   0.05751   0.00000  Uiso   1.00
H350   H     0.10251   0.71848   0.43844   0.00000  Uiso   1.00
H351   H     0.76710   0.76401   0.45059   0.00000  Uiso   1.00
H352   H     0.61942   0.73990   0.84889   0.00000  Uiso   1.00
H353   H     0.81762   0.47483   0.24728   0.00000  Uiso   1.00
H354   H     0.94665   0.45638   0.33859   0.00000  Uiso   1.00
H355   H     0.78759   0.47797   0.34437   0.00000  Uiso   1.00
H356   H     0.71756   0.46654   0.05903   0.00000  Uiso   1.00
H357   H     0.09138   0.47312   0.43967   0.00000  Uiso   1.00
H358   H     0.75597   0.51865   0.45182   0.00000  Uiso   1.00
H359   H     0.60830   0.49454   0.85012   0.00000  Uiso   1.00
O360   O     0.18206   0.58884   0.49913   0.00000  Uiso   1.00
O361   O     0.74201   0.64857   0.51504   0.00000  Uiso   1.00
O362   O     0.54826   0.61694   0.72564   0.00000  Uiso   1.00
N363   N     0.08218   0.66327   0.42618   0.00000  Uiso   1.00
N364   N     0.76861   0.70583   0.43755   0.00000  Uiso   1.00
N365   N     0.63052   0.68329   0.87502   0.00000  Uiso   1.00
N366   N     0.07619   0.53124   0.42685   0.00000  Uiso   1.00
N367   N     0.76262   0.57381   0.43822   0.00000  Uiso   1.00
N368   N     0.62454   0.55127   0.87568   0.00000  Uiso   1.00
