data_job_03370
_audit_creation_date              2018-12-19
_audit_creation_method            'Materials Studio'
_symmetry_space_group_name_H-M    'P1'
_symmetry_Int_Tables_number       1
_symmetry_cell_setting            triclinic
loop_
_symmetry_equiv_pos_as_xyz
  x,y,z
_cell_length_a                    9.7188
_cell_length_b                    12.5832
_cell_length_c                    14.6032
_cell_angle_alpha                 107.5763
_cell_angle_beta                  82.4628
_cell_angle_gamma                 85.7451
loop_
_atom_site_label
_atom_site_type_symbol
_atom_site_fract_x
_atom_site_fract_y
_atom_site_fract_z
_atom_site_U_iso_or_equiv
_atom_site_adp_type
_atom_site_occupancy
C1     C     0.67617   0.99310   0.67134   0.00000  Uiso   1.00
C2     C     0.76646   0.91805   0.71056   0.00000  Uiso   1.00
C3     C     0.80826   0.80406   0.66609   0.00000  Uiso   1.00
C4     C     0.89064   0.75041   0.71364   0.00000  Uiso   1.00
C5     C     0.02484   0.62499   0.76105   0.00000  Uiso   1.00
C6     C     0.55094   0.04624   0.75124   0.00000  Uiso   1.00
C7     C     0.41154   0.04003   0.74098   0.00000  Uiso   1.00
C8     C     0.31250   0.09431   0.82278   0.00000  Uiso   1.00
C9     C     0.11210   0.16797   0.93334   0.00000  Uiso   1.00
C10    C     0.76043   0.08863   0.66426   0.00000  Uiso   1.00
C11    C     0.79714   0.11809   0.58087   0.00000  Uiso   1.00
C12    C     0.87446   0.20808   0.58944   0.00000  Uiso   1.00
C13    C     0.99932   0.34756   0.56495   0.00000  Uiso   1.00
C14    C     0.74817   0.10053   0.83484   0.00000  Uiso   1.00
C15    C     0.80556   0.97641   0.79937   0.00000  Uiso   1.00
C16    C     0.88792   0.92292   0.84699   0.00000  Uiso   1.00
C17    C     0.92983   0.80887   0.80261   0.00000  Uiso   1.00
C18    C     0.59005   0.10459   0.84005   0.00000  Uiso   1.00
C19    C     0.49120   0.15889   0.92188   0.00000  Uiso   1.00
C20    C     0.35168   0.15277   0.91175   0.00000  Uiso   1.00
C21    C     0.79955   0.14698   0.75307   0.00000  Uiso   1.00
C22    C     0.87681   0.23695   0.76178   0.00000  Uiso   1.00
C23    C     0.91363   0.26654   0.67841   0.00000  Uiso   1.00
H24    H     0.64571   0.94767   0.60220   0.00000  Uiso   1.00
H25    H     0.77796   0.75893   0.59737   0.00000  Uiso   1.00
H26    H     0.38130   0.99488   0.67224   0.00000  Uiso   1.00
H27    H     0.76686   0.07292   0.51216   0.00000  Uiso   1.00
H28    H     0.94178   0.57540   0.63120   0.00000  Uiso   1.00
H29    H     0.10541   0.07294   0.78906   0.00000  Uiso   1.00
H30    H     0.91842   0.23751   0.45150   0.00000  Uiso   1.00
H31    H     0.77862   0.14596   0.90399   0.00000  Uiso   1.00
H32    H     0.91816   0.96810   0.91572   0.00000  Uiso   1.00
H33    H     0.52150   0.20405   0.99059   0.00000  Uiso   1.00
H34    H     0.90705   0.28209   0.83051   0.00000  Uiso   1.00
H35    H     0.05557   0.74517   0.88959   0.00000  Uiso   1.00
H36    H     0.21919   0.24272   0.04745   0.00000  Uiso   1.00
H37    H     0.03221   0.40728   0.70989   0.00000  Uiso   1.00
O38    O     0.08803   0.53969   0.76268   0.00000  Uiso   1.00
O39    O     0.99075   0.19247   0.96978   0.00000  Uiso   1.00
O40    O     0.05740   0.40837   0.52691   0.00000  Uiso   1.00
N41    N     0.94943   0.63977   0.69039   0.00000  Uiso   1.00
N42    N     0.16747   0.10493   0.83799   0.00000  Uiso   1.00
N43    N     0.92754   0.25880   0.52240   0.00000  Uiso   1.00
N44    N     0.01066   0.73112   0.82943   0.00000  Uiso   1.00
N45    N     0.22871   0.19628   0.97702   0.00000  Uiso   1.00
N46    N     0.98877   0.35015   0.66144   0.00000  Uiso   1.00
C47    C     0.32383   0.00690   0.32866   0.00000  Uiso   1.00
C48    C     0.23354   0.08195   0.28944   0.00000  Uiso   1.00
C49    C     0.19174   0.19594   0.33391   0.00000  Uiso   1.00
C50    C     0.10936   0.24959   0.28636   0.00000  Uiso   1.00
C51    C     0.97516   0.37501   0.23895   0.00000  Uiso   1.00
C52    C     0.44906   0.95376   0.24876   0.00000  Uiso   1.00
C53    C     0.58846   0.95997   0.25902   0.00000  Uiso   1.00
C54    C     0.68750   0.90569   0.17722   0.00000  Uiso   1.00
C55    C     0.88790   0.83203   0.06666   0.00000  Uiso   1.00
C56    C     0.23957   0.91137   0.33574   0.00000  Uiso   1.00
C57    C     0.20286   0.88191   0.41913   0.00000  Uiso   1.00
C58    C     0.12554   0.79192   0.41056   0.00000  Uiso   1.00
C59    C     0.00068   0.65244   0.43505   0.00000  Uiso   1.00
C60    C     0.25183   0.89947   0.16516   0.00000  Uiso   1.00
C61    C     0.19444   0.02359   0.20063   0.00000  Uiso   1.00
C62    C     0.11208   0.07708   0.15301   0.00000  Uiso   1.00
C63    C     0.07017   0.19113   0.19739   0.00000  Uiso   1.00
C64    C     0.40995   0.89541   0.15995   0.00000  Uiso   1.00
C65    C     0.50880   0.84111   0.07812   0.00000  Uiso   1.00
C66    C     0.64832   0.84723   0.08825   0.00000  Uiso   1.00
C67    C     0.20045   0.85302   0.24693   0.00000  Uiso   1.00
C68    C     0.12319   0.76305   0.23822   0.00000  Uiso   1.00
C69    C     0.08637   0.73346   0.32159   0.00000  Uiso   1.00
H70    H     0.35429   0.05233   0.39780   0.00000  Uiso   1.00
H71    H     0.22204   0.24107   0.40263   0.00000  Uiso   1.00
H72    H     0.61870   0.00512   0.32776   0.00000  Uiso   1.00
H73    H     0.23314   0.92708   0.48784   0.00000  Uiso   1.00
H74    H     0.05822   0.42460   0.36880   0.00000  Uiso   1.00
H75    H     0.89459   0.92706   0.21094   0.00000  Uiso   1.00
H76    H     0.08158   0.76249   0.54850   0.00000  Uiso   1.00
H77    H     0.22138   0.85404   0.09601   0.00000  Uiso   1.00
H78    H     0.08184   0.03190   0.08428   0.00000  Uiso   1.00
H79    H     0.47850   0.79595   0.00941   0.00000  Uiso   1.00
H80    H     0.09295   0.71791   0.16949   0.00000  Uiso   1.00
H81    H     0.94443   0.25483   0.11041   0.00000  Uiso   1.00
H82    H     0.78081   0.75728   0.95255   0.00000  Uiso   1.00
H83    H     0.96779   0.59272   0.29011   0.00000  Uiso   1.00
O84    O     0.91197   0.46031   0.23732   0.00000  Uiso   1.00
O85    O     0.00925   0.80753   0.03022   0.00000  Uiso   1.00
O86    O     0.94260   0.59163   0.47309   0.00000  Uiso   1.00
N87    N     0.05057   0.36023   0.30961   0.00000  Uiso   1.00
N88    N     0.83253   0.89507   0.16201   0.00000  Uiso   1.00
N89    N     0.07246   0.74120   0.47760   0.00000  Uiso   1.00
N90    N     0.98934   0.26888   0.17057   0.00000  Uiso   1.00
N91    N     0.77129   0.80372   0.02298   0.00000  Uiso   1.00
N92    N     0.01123   0.64985   0.33856   0.00000  Uiso   1.00
