data_job_04477
_audit_creation_date              2018-12-19
_audit_creation_method            'Materials Studio'
_symmetry_space_group_name_H-M    'P1'
_symmetry_Int_Tables_number       1
_symmetry_cell_setting            triclinic
loop_
_symmetry_equiv_pos_as_xyz
  x,y,z
_cell_length_a                    13.9007
_cell_length_b                    26.9534
_cell_length_c                    12.3948
_cell_angle_alpha                 91.4274
_cell_angle_beta                  100.2970
_cell_angle_gamma                 88.6395
loop_
_atom_site_label
_atom_site_type_symbol
_atom_site_fract_x
_atom_site_fract_y
_atom_site_fract_z
_atom_site_U_iso_or_equiv
_atom_site_adp_type
_atom_site_occupancy
C1     C     0.40998   0.86567   0.22451   0.00000  Uiso   1.00
C2     C     0.43526   0.81101   0.20745   0.00000  Uiso   1.00
C3     C     0.37163   0.77187   0.20423   0.00000  Uiso   1.00
C4     C     0.40883   0.72457   0.18781   0.00000  Uiso   1.00
C5     C     0.43329   0.64088   0.16331   0.00000  Uiso   1.00
C6     C     0.48291   0.88369   0.32378   0.00000  Uiso   1.00
C7     C     0.45935   0.90568   0.41836   0.00000  Uiso   1.00
C8     C     0.53666   0.91957   0.49986   0.00000  Uiso   1.00
C9     C     0.63510   0.94876   0.65594   0.00000  Uiso   1.00
C10    C     0.43458   0.89243   0.12624   0.00000  Uiso   1.00
C11    C     0.37039   0.92178   0.05474   0.00000  Uiso   1.00
C12    C     0.40702   0.94304   0.96993   0.00000  Uiso   1.00
C13    C     0.43042   0.98580   0.81929   0.00000  Uiso   1.00
C14    C     0.58918   0.85125   0.20107   0.00000  Uiso   1.00
C15    C     0.53259   0.80318   0.19472   0.00000  Uiso   1.00
C16    C     0.56990   0.75592   0.17829   0.00000  Uiso   1.00
C17    C     0.50634   0.71673   0.17505   0.00000  Uiso   1.00
C18    C     0.58024   0.87586   0.31105   0.00000  Uiso   1.00
C19    C     0.65761   0.88973   0.39243   0.00000  Uiso   1.00
C20    C     0.63417   0.91173   0.48711   0.00000  Uiso   1.00
C21    C     0.53191   0.88460   0.11350   0.00000  Uiso   1.00
C22    C     0.56865   0.90583   0.02880   0.00000  Uiso   1.00
C23    C     0.50453   0.93520   0.95718   0.00000  Uiso   1.00
H24    H     0.33421   0.87177   0.23443   0.00000  Uiso   1.00
H25    H     0.29631   0.77795   0.21410   0.00000  Uiso   1.00
H26    H     0.38402   0.91174   0.42819   0.00000  Uiso   1.00
H27    H     0.29508   0.92783   0.06462   0.00000  Uiso   1.00
H28    H     0.29724   0.67048   0.18598   0.00000  Uiso   1.00
H29    H     0.48216   0.95259   0.63739   0.00000  Uiso   1.00
H30    H     0.29461   0.98653   0.87073   0.00000  Uiso   1.00
H31    H     0.66496   0.84516   0.19116   0.00000  Uiso   1.00
H32    H     0.64522   0.74988   0.16844   0.00000  Uiso   1.00
H33    H     0.73292   0.88366   0.38254   0.00000  Uiso   1.00
H34    H     0.64398   0.89976   0.01897   0.00000  Uiso   1.00
H35    H     0.58043   0.64769   0.14893   0.00000  Uiso   1.00
H36    H     0.76535   0.92981   0.60034   0.00000  Uiso   1.00
H37    H     0.57780   0.96375   0.83368   0.00000  Uiso   1.00
O38    O     0.41989   0.59688   0.15334   0.00000  Uiso   1.00
O39    O     0.66250   0.96702   0.74555   0.00000  Uiso   1.00
O40    O     0.41643   0.01154   0.73971   0.00000  Uiso   1.00
N41    N     0.36659   0.67819   0.18036   0.00000  Uiso   1.00
N42    N     0.53948   0.94194   0.60240   0.00000  Uiso   1.00
N43    N     0.36415   0.97369   0.88566   0.00000  Uiso   1.00
N44    N     0.51897   0.66593   0.16042   0.00000  Uiso   1.00
N45    N     0.69186   0.92968   0.58247   0.00000  Uiso   1.00
N46    N     0.51653   0.96143   0.86572   0.00000  Uiso   1.00
C47    C     0.51876   0.59751   0.49369   0.00000  Uiso   1.00
C48    C     0.46397   0.64702   0.49781   0.00000  Uiso   1.00
C49    C     0.36463   0.65505   0.46132   0.00000  Uiso   1.00
C50    C     0.32849   0.70303   0.47225   0.00000  Uiso   1.00
C51    C     0.23413   0.77405   0.47162   0.00000  Uiso   1.00
C52    C     0.60062   0.60655   0.42984   0.00000  Uiso   1.00
C53    C     0.61618   0.58057   0.33621   0.00000  Uiso   1.00
C54    C     0.69509   0.59448   0.28994   0.00000  Uiso   1.00
C55    C     0.81292   0.60265   0.18384   0.00000  Uiso   1.00
C56    C     0.56878   0.58756   0.61120   0.00000  Uiso   1.00
C57    C     0.55758   0.54559   0.67006   0.00000  Uiso   1.00
C58    C     0.60970   0.54350   0.77647   0.00000  Uiso   1.00
C59    C     0.67809   0.52217   0.95195   0.00000  Uiso   1.00
C60    C     0.63124   0.66842   0.57800   0.00000  Uiso   1.00
C61    C     0.52507   0.68553   0.54360   0.00000  Uiso   1.00
C62    C     0.48907   0.73351   0.55460   0.00000  Uiso   1.00
C63    C     0.38969   0.74161   0.51813   0.00000  Uiso   1.00
C64    C     0.66172   0.64507   0.47563   0.00000  Uiso   1.00
C65    C     0.74062   0.65902   0.42949   0.00000  Uiso   1.00
C66    C     0.75629   0.63306   0.33582   0.00000  Uiso   1.00
C67    C     0.62987   0.62607   0.65700   0.00000  Uiso   1.00
C68    C     0.68202   0.62404   0.76334   0.00000  Uiso   1.00
C69    C     0.67090   0.58208   0.82235   0.00000  Uiso   1.00
H70    H     0.47121   0.56753   0.45804   0.00000  Uiso   1.00
H71    H     0.31738   0.62524   0.42587   0.00000  Uiso   1.00
H72    H     0.56890   0.55076   0.30080   0.00000  Uiso   1.00
H73    H     0.51030   0.51579   0.63459   0.00000  Uiso   1.00
H74    H     0.17378   0.70622   0.41037   0.00000  Uiso   1.00
H75    H     0.70414   0.54916   0.14667   0.00000  Uiso   1.00
H76    H     0.58058   0.47542   0.85053   0.00000  Uiso   1.00
H77    H     0.67881   0.69840   0.61366   0.00000  Uiso   1.00
H78    H     0.53637   0.76330   0.59004   0.00000  Uiso   1.00
H79    H     0.78789   0.68882   0.46496   0.00000  Uiso   1.00
H80    H     0.72929   0.65385   0.79875   0.00000  Uiso   1.00
H81    H     0.35152   0.81827   0.54361   0.00000  Uiso   1.00
H82    H     0.88189   0.66122   0.27990   0.00000  Uiso   1.00
H83    H     0.75833   0.58747   0.98377   0.00000  Uiso   1.00
O84    O     0.16520   0.80258   0.45861   0.00000  Uiso   1.00
O85    O     0.86103   0.59652   0.11265   0.00000  Uiso   1.00
O86    O     0.69892   0.49977   0.03610   0.00000  Uiso   1.00
N87    N     0.23515   0.72368   0.44499   0.00000  Uiso   1.00
N88    N     0.73100   0.57685   0.19843   0.00000  Uiso   1.00
N89    N     0.61551   0.50790   0.85648   0.00000  Uiso   1.00
N90    N     0.33079   0.78398   0.51668   0.00000  Uiso   1.00
N91    N     0.82664   0.63715   0.27013   0.00000  Uiso   1.00
N92    N     0.71115   0.56819   0.92817   0.00000  Uiso   1.00
C93    C     0.06591   0.35778   0.28959   0.00000  Uiso   1.00
C94    C     0.05121   0.30293   0.30766   0.00000  Uiso   1.00
C95    C     0.12248   0.26570   0.31273   0.00000  Uiso   1.00
C96    C     0.09444   0.21785   0.32983   0.00000  Uiso   1.00
C97    C     0.08620   0.13421   0.35608   0.00000  Uiso   1.00
C98    C     0.99073   0.37183   0.18913   0.00000  Uiso   1.00
C99    C     0.01115   0.39255   0.09453   0.00000  Uiso   1.00
C100   C     0.93219   0.40271   0.01185   0.00000  Uiso   1.00
C101   C     0.83005   0.42610   0.85410   0.00000  Uiso   1.00
C102   C     0.03478   0.38572   0.38660   0.00000  Uiso   1.00
C103   C     0.09222   0.41812   0.45803   0.00000  Uiso   1.00
C104   C     0.05033   0.43997   0.54159   0.00000  Uiso   1.00
C105   C     0.01657   0.48491   0.69044   0.00000  Uiso   1.00
C106   C     0.88935   0.33900   0.31095   0.00000  Uiso   1.00
C107   C     0.95532   0.29272   0.31926   0.00000  Uiso   1.00
C108   C     0.92715   0.24491   0.33636   0.00000  Uiso   1.00
C109   C     0.99837   0.20762   0.34145   0.00000  Uiso   1.00
C110   C     0.89484   0.36163   0.20072   0.00000  Uiso   1.00
C111   C     0.81582   0.37177   0.11817   0.00000  Uiso   1.00
C112   C     0.83612   0.39249   0.02347   0.00000  Uiso   1.00
C113   C     0.93888   0.37551   0.39820   0.00000  Uiso   1.00
C114   C     0.89689   0.39733   0.48166   0.00000  Uiso   1.00
C115   C     0.95426   0.42975   0.55321   0.00000  Uiso   1.00
H116   H     0.14056   0.36573   0.28055   0.00000  Uiso   1.00
H117   H     0.19669   0.27361   0.30374   0.00000  Uiso   1.00
H118   H     0.08537   0.40045   0.08559   0.00000  Uiso   1.00
H119   H     0.16643   0.42600   0.44902   0.00000  Uiso   1.00
H120   H     0.21661   0.16698   0.33452   0.00000  Uiso   1.00
H121   H     0.98190   0.43444   0.87455   0.00000  Uiso   1.00
H122   H     0.15282   0.48833   0.64093   0.00000  Uiso   1.00
H123   H     0.81469   0.33105   0.31998   0.00000  Uiso   1.00
H124   H     0.85294   0.23703   0.34533   0.00000  Uiso   1.00
H125   H     0.74162   0.36387   0.12717   0.00000  Uiso   1.00
H126   H     0.82268   0.38942   0.49061   0.00000  Uiso   1.00
H127   H     0.93761   0.13728   0.36828   0.00000  Uiso   1.00
H128   H     0.70289   0.40475   0.90830   0.00000  Uiso   1.00
H129   H     0.87381   0.45864   0.67469   0.00000  Uiso   1.00
O130   O     0.10814   0.09090   0.36733   0.00000  Uiso   1.00
O131   O     0.80020   0.44181   0.76388   0.00000  Uiso   1.00
O132   O     0.02445   0.51251   0.76935   0.00000  Uiso   1.00
N133   N     0.14571   0.17289   0.33901   0.00000  Uiso   1.00
N134   N     0.92626   0.42295   0.90895   0.00000  Uiso   1.00
N135   N     0.08605   0.47334   0.62544   0.00000  Uiso   1.00
N136   N     0.99558   0.15692   0.35717   0.00000  Uiso   1.00
N137   N     0.77613   0.40697   0.92712   0.00000  Uiso   1.00
N138   N     0.93592   0.45736   0.64360   0.00000  Uiso   1.00
C139   C     0.00740   0.08865   0.03218   0.00000  Uiso   1.00
C140   C     0.08492   0.12857   0.05117   0.00000  Uiso   1.00
C141   C     0.18215   0.12153   0.09951   0.00000  Uiso   1.00
C142   C     0.24139   0.16274   0.10945   0.00000  Uiso   1.00
C143   C     0.36733   0.21764   0.14464   0.00000  Uiso   1.00
C144   C     0.92473   0.10781   0.08896   0.00000  Uiso   1.00
C145   C     0.88728   0.08332   0.16906   0.00000  Uiso   1.00
C146   C     0.81167   0.10706   0.21080   0.00000  Uiso   1.00
C147   C     0.68888   0.12972   0.30460   0.00000  Uiso   1.00
C148   C     0.96616   0.08832   0.90960   0.00000  Uiso   1.00
C149   C     0.96351   0.04743   0.83889   0.00000  Uiso   1.00
C150   C     0.92276   0.05476   0.72962   0.00000  Uiso   1.00
C151   C     0.86429   0.04715   0.54494   0.00000  Uiso   1.00
C152   C     0.93970   0.17436   0.96387   0.00000  Uiso   1.00
C153   C     0.04814   0.17512   0.01407   0.00000  Uiso   1.00
C154   C     0.10725   0.21635   0.02394   0.00000  Uiso   1.00
C155   C     0.20456   0.20938   0.07228   0.00000  Uiso   1.00
C156   C     0.88796   0.15436   0.05186   0.00000  Uiso   1.00
C157   C     0.81238   0.17814   0.09349   0.00000  Uiso   1.00
C158   C     0.77483   0.15369   0.17363   0.00000  Uiso   1.00
C159   C     0.92939   0.13487   0.87249   0.00000  Uiso   1.00
C160   C     0.88862   0.14225   0.76332   0.00000  Uiso   1.00
C161   C     0.88592   0.10139   0.69246   0.00000  Uiso   1.00
H162   H     0.03602   0.05241   0.06106   0.00000  Uiso   1.00
H163   H     0.21058   0.08550   0.12822   0.00000  Uiso   1.00
H164   H     0.91575   0.04730   0.19775   0.00000  Uiso   1.00
H165   H     0.99198   0.01142   0.86763   0.00000  Uiso   1.00
H166   H     0.38788   0.14272   0.18635   0.00000  Uiso   1.00
H167   H     0.76619   0.06215   0.33292   0.00000  Uiso   1.00
H168   H     0.92693   0.98649   0.63681   0.00000  Uiso   1.00
H169   H     0.91107   0.21060   0.93498   0.00000  Uiso   1.00
H170   H     0.07877   0.25237   0.99522   0.00000  Uiso   1.00
H171   H     0.78394   0.21416   0.06475   0.00000  Uiso   1.00
H172   H     0.86017   0.17828   0.73464   0.00000  Uiso   1.00
H173   H     0.28090   0.27815   0.07841   0.00000  Uiso   1.00
H174   H     0.65921   0.19759   0.22498   0.00000  Uiso   1.00
H175   H     0.81995   0.12193   0.52887   0.00000  Uiso   1.00
O176   O     0.44696   0.23506   0.17431   0.00000  Uiso   1.00
O177   O     0.63131   0.12936   0.36660   0.00000  Uiso   1.00
O178   O     0.84221   0.03009   0.45331   0.00000  Uiso   1.00
N179   N     0.33969   0.16886   0.15266   0.00000  Uiso   1.00
N180   N     0.75846   0.09354   0.28971   0.00000  Uiso   1.00
N181   N     0.90871   0.02280   0.63891   0.00000  Uiso   1.00
N182   N     0.28213   0.24173   0.09458   0.00000  Uiso   1.00
N183   N     0.70090   0.16641   0.23163   0.00000  Uiso   1.00
N184   N     0.85115   0.09567   0.58082   0.00000  Uiso   1.00
C185   C     0.59002   0.13433   0.77549   0.00000  Uiso   1.00
C186   C     0.56474   0.18899   0.79255   0.00000  Uiso   1.00
C187   C     0.62837   0.22813   0.79577   0.00000  Uiso   1.00
C188   C     0.59117   0.27543   0.81219   0.00000  Uiso   1.00
C189   C     0.56671   0.35912   0.83669   0.00000  Uiso   1.00
C190   C     0.51709   0.11631   0.67622   0.00000  Uiso   1.00
C191   C     0.54065   0.09432   0.58164   0.00000  Uiso   1.00
C192   C     0.46334   0.08043   0.50014   0.00000  Uiso   1.00
C193   C     0.36490   0.05124   0.34406   0.00000  Uiso   1.00
C194   C     0.56542   0.10757   0.87376   0.00000  Uiso   1.00
C195   C     0.62961   0.07822   0.94526   0.00000  Uiso   1.00
C196   C     0.59298   0.05696   0.03007   0.00000  Uiso   1.00
C197   C     0.56958   0.01420   0.18071   0.00000  Uiso   1.00
C198   C     0.41082   0.14875   0.79893   0.00000  Uiso   1.00
C199   C     0.46741   0.19682   0.80528   0.00000  Uiso   1.00
C200   C     0.43010   0.24408   0.82171   0.00000  Uiso   1.00
C201   C     0.49366   0.28327   0.82495   0.00000  Uiso   1.00
C202   C     0.41976   0.12414   0.68895   0.00000  Uiso   1.00
C203   C     0.34239   0.11027   0.60757   0.00000  Uiso   1.00
C204   C     0.36583   0.08827   0.51289   0.00000  Uiso   1.00
C205   C     0.46809   0.11540   0.88650   0.00000  Uiso   1.00
C206   C     0.43135   0.09417   0.97120   0.00000  Uiso   1.00
C207   C     0.49547   0.06480   0.04282   0.00000  Uiso   1.00
H208   H     0.66579   0.12823   0.76557   0.00000  Uiso   1.00
H209   H     0.70369   0.22205   0.78590   0.00000  Uiso   1.00
H210   H     0.61598   0.08826   0.57181   0.00000  Uiso   1.00
H211   H     0.70492   0.07217   0.93538   0.00000  Uiso   1.00
H212   H     0.70276   0.32952   0.81402   0.00000  Uiso   1.00
H213   H     0.51784   0.04741   0.36261   0.00000  Uiso   1.00
H214   H     0.70539   0.01347   0.12927   0.00000  Uiso   1.00
H215   H     0.33504   0.15484   0.80884   0.00000  Uiso   1.00
H216   H     0.35478   0.25012   0.83156   0.00000  Uiso   1.00
H217   H     0.26708   0.11634   0.61746   0.00000  Uiso   1.00
H218   H     0.35602   0.10024   0.98103   0.00000  Uiso   1.00
H219   H     0.41957   0.35231   0.85107   0.00000  Uiso   1.00
H220   H     0.23465   0.07019   0.39966   0.00000  Uiso   1.00
H221   H     0.42220   0.03625   0.16632   0.00000  Uiso   1.00
O222   O     0.58011   0.40312   0.84666   0.00000  Uiso   1.00
O223   O     0.33750   0.03298   0.25445   0.00000  Uiso   1.00
O224   O     0.58357   0.98846   0.26029   0.00000  Uiso   1.00
N225   N     0.63341   0.32181   0.81964   0.00000  Uiso   1.00
N226   N     0.46052   0.05806   0.39760   0.00000  Uiso   1.00
N227   N     0.63585   0.02631   0.11434   0.00000  Uiso   1.00
N228   N     0.48103   0.33407   0.83958   0.00000  Uiso   1.00
N229   N     0.30814   0.07032   0.41753   0.00000  Uiso   1.00
N230   N     0.48347   0.03857   0.13428   0.00000  Uiso   1.00
C231   C     0.48124   0.40249   0.50631   0.00000  Uiso   1.00
C232   C     0.53603   0.35298   0.50219   0.00000  Uiso   1.00
C233   C     0.63537   0.34495   0.53868   0.00000  Uiso   1.00
C234   C     0.67151   0.29697   0.52775   0.00000  Uiso   1.00
C235   C     0.76587   0.22595   0.52838   0.00000  Uiso   1.00
C236   C     0.39938   0.39345   0.57016   0.00000  Uiso   1.00
C237   C     0.38382   0.41943   0.66379   0.00000  Uiso   1.00
C238   C     0.30491   0.40552   0.71006   0.00000  Uiso   1.00
C239   C     0.18708   0.39735   0.81616   0.00000  Uiso   1.00
C240   C     0.43122   0.41244   0.38880   0.00000  Uiso   1.00
C241   C     0.44242   0.45441   0.32994   0.00000  Uiso   1.00
C242   C     0.39030   0.45650   0.22353   0.00000  Uiso   1.00
C243   C     0.32191   0.47783   0.04805   0.00000  Uiso   1.00
C244   C     0.36876   0.33158   0.42200   0.00000  Uiso   1.00
C245   C     0.47493   0.31447   0.45640   0.00000  Uiso   1.00
C246   C     0.51093   0.26649   0.44540   0.00000  Uiso   1.00
C247   C     0.61031   0.25839   0.48187   0.00000  Uiso   1.00
C248   C     0.33828   0.35493   0.52437   0.00000  Uiso   1.00
C249   C     0.25938   0.34098   0.57051   0.00000  Uiso   1.00
C250   C     0.24371   0.36694   0.66418   0.00000  Uiso   1.00
C251   C     0.37013   0.37393   0.34300   0.00000  Uiso   1.00
C252   C     0.31798   0.37596   0.23666   0.00000  Uiso   1.00
C253   C     0.32910   0.41792   0.17765   0.00000  Uiso   1.00
H254   H     0.52879   0.43247   0.54196   0.00000  Uiso   1.00
H255   H     0.68262   0.37476   0.57413   0.00000  Uiso   1.00
H256   H     0.43110   0.44924   0.69920   0.00000  Uiso   1.00
H257   H     0.48970   0.48421   0.36541   0.00000  Uiso   1.00
H258   H     0.82622   0.29378   0.58963   0.00000  Uiso   1.00
H259   H     0.29586   0.45084   0.85333   0.00000  Uiso   1.00
H260   H     0.41942   0.52458   0.14947   0.00000  Uiso   1.00
H261   H     0.32119   0.30160   0.38634   0.00000  Uiso   1.00
H262   H     0.46363   0.23670   0.40996   0.00000  Uiso   1.00
H263   H     0.21211   0.31118   0.53504   0.00000  Uiso   1.00
H264   H     0.27071   0.34615   0.20125   0.00000  Uiso   1.00
H265   H     0.64848   0.18173   0.45639   0.00000  Uiso   1.00
H266   H     0.11811   0.33878   0.72010   0.00000  Uiso   1.00
H267   H     0.24167   0.41253   0.01623   0.00000  Uiso   1.00
O268   O     0.83480   0.19742   0.54139   0.00000  Uiso   1.00
O269   O     0.13897   0.40348   0.88735   0.00000  Uiso   1.00
O270   O     0.30108   0.50023   0.96390   0.00000  Uiso   1.00
N271   N     0.76485   0.27632   0.55501   0.00000  Uiso   1.00
N272   N     0.26900   0.42315   0.80157   0.00000  Uiso   1.00
N273   N     0.38449   0.49210   0.14352   0.00000  Uiso   1.00
N274   N     0.66921   0.21602   0.48332   0.00000  Uiso   1.00
N275   N     0.17336   0.36285   0.72987   0.00000  Uiso   1.00
N276   N     0.28885   0.43181   0.07183   0.00000  Uiso   1.00
C277   C     0.93409   0.64222   0.71041   0.00000  Uiso   1.00
C278   C     0.94879   0.69707   0.69234   0.00000  Uiso   1.00
C279   C     0.87752   0.73430   0.68727   0.00000  Uiso   1.00
C280   C     0.90556   0.78215   0.67017   0.00000  Uiso   1.00
C281   C     0.91380   0.86579   0.64392   0.00000  Uiso   1.00
C282   C     0.00927   0.62817   0.81087   0.00000  Uiso   1.00
C283   C     0.98885   0.60745   0.90547   0.00000  Uiso   1.00
C284   C     0.06781   0.59729   0.98815   0.00000  Uiso   1.00
C285   C     0.16995   0.57390   0.14590   0.00000  Uiso   1.00
C286   C     0.96522   0.61428   0.61340   0.00000  Uiso   1.00
C287   C     0.90778   0.58188   0.54197   0.00000  Uiso   1.00
C288   C     0.94967   0.56003   0.45841   0.00000  Uiso   1.00
C289   C     0.98343   0.51509   0.30956   0.00000  Uiso   1.00
C290   C     0.11065   0.66100   0.68905   0.00000  Uiso   1.00
C291   C     0.04468   0.70728   0.68074   0.00000  Uiso   1.00
C292   C     0.07285   0.75509   0.66364   0.00000  Uiso   1.00
C293   C     0.00163   0.79238   0.65855   0.00000  Uiso   1.00
C294   C     0.10516   0.63837   0.79928   0.00000  Uiso   1.00
C295   C     0.18418   0.62823   0.88183   0.00000  Uiso   1.00
C296   C     0.16388   0.60751   0.97653   0.00000  Uiso   1.00
C297   C     0.06112   0.62449   0.60180   0.00000  Uiso   1.00
C298   C     0.10311   0.60267   0.51834   0.00000  Uiso   1.00
C299   C     0.04574   0.57025   0.44679   0.00000  Uiso   1.00
H300   H     0.85944   0.63427   0.71945   0.00000  Uiso   1.00
H301   H     0.80331   0.72639   0.69626   0.00000  Uiso   1.00
H302   H     0.91463   0.59955   0.91441   0.00000  Uiso   1.00
H303   H     0.83357   0.57400   0.55098   0.00000  Uiso   1.00
H304   H     0.78339   0.83302   0.66548   0.00000  Uiso   1.00
H305   H     0.01810   0.56556   0.12545   0.00000  Uiso   1.00
H306   H     0.84718   0.51167   0.35907   0.00000  Uiso   1.00
H307   H     0.18531   0.66895   0.68002   0.00000  Uiso   1.00
H308   H     0.14706   0.76297   0.65467   0.00000  Uiso   1.00
H309   H     0.25838   0.63613   0.87283   0.00000  Uiso   1.00
H310   H     0.17732   0.61058   0.50939   0.00000  Uiso   1.00
H311   H     0.06239   0.86272   0.63172   0.00000  Uiso   1.00
H312   H     0.29711   0.59525   0.09170   0.00000  Uiso   1.00
H313   H     0.12619   0.54136   0.32531   0.00000  Uiso   1.00
O314   O     0.89186   0.90910   0.63267   0.00000  Uiso   1.00
O315   O     0.19980   0.55819   0.23612   0.00000  Uiso   1.00
O316   O     0.97555   0.48749   0.23065   0.00000  Uiso   1.00
N317   N     0.85429   0.82711   0.66099   0.00000  Uiso   1.00
N318   N     0.07374   0.57705   0.09105   0.00000  Uiso   1.00
N319   N     0.91395   0.52666   0.37456   0.00000  Uiso   1.00
N320   N     0.00442   0.84308   0.64283   0.00000  Uiso   1.00
N321   N     0.22387   0.59303   0.07288   0.00000  Uiso   1.00
N322   N     0.06408   0.54264   0.35640   0.00000  Uiso   1.00
C323   C     0.99260   0.91135   0.96782   0.00000  Uiso   1.00
C324   C     0.91508   0.87143   0.94883   0.00000  Uiso   1.00
C325   C     0.81785   0.87847   0.90049   0.00000  Uiso   1.00
C326   C     0.75861   0.83726   0.89055   0.00000  Uiso   1.00
C327   C     0.63267   0.78236   0.85536   0.00000  Uiso   1.00
C328   C     0.07527   0.89219   0.91104   0.00000  Uiso   1.00
C329   C     0.11272   0.91668   0.83094   0.00000  Uiso   1.00
C330   C     0.18833   0.89294   0.78920   0.00000  Uiso   1.00
C331   C     0.31112   0.87028   0.69540   0.00000  Uiso   1.00
C332   C     0.03384   0.91168   0.09040   0.00000  Uiso   1.00
C333   C     0.03649   0.95257   0.16111   0.00000  Uiso   1.00
C334   C     0.07724   0.94524   0.27038   0.00000  Uiso   1.00
C335   C     0.13571   0.95285   0.45506   0.00000  Uiso   1.00
C336   C     0.06030   0.82564   0.03613   0.00000  Uiso   1.00
C337   C     0.95186   0.82488   0.98593   0.00000  Uiso   1.00
C338   C     0.89275   0.78365   0.97606   0.00000  Uiso   1.00
C339   C     0.79544   0.79062   0.92772   0.00000  Uiso   1.00
C340   C     0.11204   0.84564   0.94814   0.00000  Uiso   1.00
C341   C     0.18762   0.82186   0.90651   0.00000  Uiso   1.00
C342   C     0.22517   0.84631   0.82637   0.00000  Uiso   1.00
C343   C     0.07061   0.86513   0.12751   0.00000  Uiso   1.00
C344   C     0.11138   0.85775   0.23668   0.00000  Uiso   1.00
C345   C     0.11408   0.89861   0.30754   0.00000  Uiso   1.00
H346   H     0.96398   0.94759   0.93894   0.00000  Uiso   1.00
H347   H     0.78942   0.91450   0.87178   0.00000  Uiso   1.00
H348   H     0.08425   0.95270   0.80225   0.00000  Uiso   1.00
H349   H     0.00802   0.98858   0.13237   0.00000  Uiso   1.00
H350   H     0.61212   0.85728   0.81365   0.00000  Uiso   1.00
H351   H     0.23381   0.93785   0.66708   0.00000  Uiso   1.00
H352   H     0.07307   0.01351   0.36319   0.00000  Uiso   1.00
H353   H     0.08893   0.78940   0.06502   0.00000  Uiso   1.00
H354   H     0.92123   0.74763   0.00478   0.00000  Uiso   1.00
H355   H     0.21606   0.78584   0.93525   0.00000  Uiso   1.00
H356   H     0.13983   0.82172   0.26536   0.00000  Uiso   1.00
H357   H     0.71910   0.72185   0.92159   0.00000  Uiso   1.00
H358   H     0.34079   0.80241   0.77502   0.00000  Uiso   1.00
H359   H     0.18005   0.87807   0.47113   0.00000  Uiso   1.00
O360   O     0.55304   0.76494   0.82569   0.00000  Uiso   1.00
O361   O     0.36869   0.87064   0.63340   0.00000  Uiso   1.00
O362   O     0.15779   0.96991   0.54669   0.00000  Uiso   1.00
N363   N     0.66031   0.83114   0.84734   0.00000  Uiso   1.00
N364   N     0.24154   0.90646   0.71029   0.00000  Uiso   1.00
N365   N     0.09129   0.97720   0.36109   0.00000  Uiso   1.00
N366   N     0.71787   0.75827   0.90542   0.00000  Uiso   1.00
N367   N     0.29910   0.83359   0.76837   0.00000  Uiso   1.00
N368   N     0.14885   0.90433   0.41918   0.00000  Uiso   1.00
