data_job_05000
_audit_creation_date              2018-12-19
_audit_creation_method            'Materials Studio'
_symmetry_space_group_name_H-M    'P1'
_symmetry_Int_Tables_number       1
_symmetry_cell_setting            triclinic
loop_
_symmetry_equiv_pos_as_xyz
  x,y,z
_cell_length_a                    9.6082
_cell_length_b                    9.2999
_cell_length_c                    42.0329
_cell_angle_alpha                 90.0000
_cell_angle_beta                  106.9194
_cell_angle_gamma                 90.0000
loop_
_atom_site_label
_atom_site_type_symbol
_atom_site_fract_x
_atom_site_fract_y
_atom_site_fract_z
_atom_site_U_iso_or_equiv
_atom_site_adp_type
_atom_site_occupancy
C1     C     0.53689   0.62235   0.34746   0.00000  Uiso   1.00
C2     C     0.65537   0.53753   0.37245   0.00000  Uiso   1.00
C3     C     0.71553   0.57193   0.40576   0.00000  Uiso   1.00
C4     C     0.82269   0.48072   0.42449   0.00000  Uiso   1.00
C5     C     0.99982   0.36751   0.46544   0.00000  Uiso   1.00
C6     C     0.59892   0.66028   0.31900   0.00000  Uiso   1.00
C7     C     0.61160   0.79789   0.30737   0.00000  Uiso   1.00
C8     C     0.67122   0.81001   0.28110   0.00000  Uiso   1.00
C9     C     0.76062   0.88737   0.23905   0.00000  Uiso   1.00
C10    C     0.41350   0.51631   0.33312   0.00000  Uiso   1.00
C11    C     0.27025   0.53287   0.33336   0.00000  Uiso   1.00
C12    C     0.17375   0.42379   0.31899   0.00000  Uiso   1.00
C13    C     0.97525   0.27760   0.29887   0.00000  Uiso   1.00
C14    C     0.62021   0.39920   0.32149   0.00000  Uiso   1.00
C15    C     0.70063   0.41633   0.35834   0.00000  Uiso   1.00
C16    C     0.80772   0.32504   0.37703   0.00000  Uiso   1.00
C17    C     0.86803   0.35930   0.41036   0.00000  Uiso   1.00
C18    C     0.64418   0.53909   0.30489   0.00000  Uiso   1.00
C19    C     0.70379   0.55101   0.27864   0.00000  Uiso   1.00
C20    C     0.71656   0.68859   0.26697   0.00000  Uiso   1.00
C21    C     0.45875   0.39510   0.31902   0.00000  Uiso   1.00
C22    C     0.36245   0.28598   0.30463   0.00000  Uiso   1.00
C23    C     0.21909   0.30237   0.30485   0.00000  Uiso   1.00
H24    H     0.50166   0.71671   0.35843   0.00000  Uiso   1.00
H25    H     0.68049   0.66575   0.41666   0.00000  Uiso   1.00
H26    H     0.57656   0.89166   0.31829   0.00000  Uiso   1.00
H27    H     0.23527   0.62668   0.34428   0.00000  Uiso   1.00
H28    H     0.89875   0.55581   0.47500   0.00000  Uiso   1.00
H29    H     0.67956   0.03218   0.26756   0.00000  Uiso   1.00
H30    H     0.95989   0.47342   0.32237   0.00000  Uiso   1.00
H31    H     0.65545   0.30483   0.31050   0.00000  Uiso   1.00
H32    H     0.84272   0.23126   0.36610   0.00000  Uiso   1.00
H33    H     0.73879   0.45719   0.26773   0.00000  Uiso   1.00
H34    H     0.39751   0.19220   0.29372   0.00000  Uiso   1.00
H35    H     0.03043   0.20317   0.43396   0.00000  Uiso   1.00
H36    H     0.81123   0.67954   0.22652   0.00000  Uiso   1.00
H37    H     0.09157   0.12078   0.28133   0.00000  Uiso   1.00
O38    O     0.08504   0.33855   0.49192   0.00000  Uiso   1.00
O39    O     0.79744   0.96352   0.21976   0.00000  Uiso   1.00
O40    O     0.85326   0.23044   0.29168   0.00000  Uiso   1.00
N41    N     0.90402   0.48290   0.45771   0.00000  Uiso   1.00
N42    N     0.69911   0.92828   0.26377   0.00000  Uiso   1.00
N43    N     0.02627   0.40590   0.31501   0.00000  Uiso   1.00
N44    N     0.97487   0.29314   0.43563   0.00000  Uiso   1.00
N45    N     0.76997   0.73852   0.24169   0.00000  Uiso   1.00
N46    N     0.09713   0.21614   0.29293   0.00000  Uiso   1.00
C47    C     0.46311   0.62235   0.15254   0.00000  Uiso   1.00
C48    C     0.34463   0.53753   0.12755   0.00000  Uiso   1.00
C49    C     0.28447   0.57193   0.09424   0.00000  Uiso   1.00
C50    C     0.17731   0.48072   0.07551   0.00000  Uiso   1.00
C51    C     0.00018   0.36751   0.03456   0.00000  Uiso   1.00
C52    C     0.40108   0.66028   0.18100   0.00000  Uiso   1.00
C53    C     0.38840   0.79789   0.19263   0.00000  Uiso   1.00
C54    C     0.32878   0.81001   0.21890   0.00000  Uiso   1.00
C55    C     0.23938   0.88737   0.26095   0.00000  Uiso   1.00
C56    C     0.58650   0.51631   0.16688   0.00000  Uiso   1.00
C57    C     0.72975   0.53287   0.16664   0.00000  Uiso   1.00
C58    C     0.82625   0.42379   0.18101   0.00000  Uiso   1.00
C59    C     0.02475   0.27760   0.20113   0.00000  Uiso   1.00
C60    C     0.37979   0.39920   0.17851   0.00000  Uiso   1.00
C61    C     0.29937   0.41633   0.14166   0.00000  Uiso   1.00
C62    C     0.19228   0.32504   0.12297   0.00000  Uiso   1.00
C63    C     0.13197   0.35930   0.08964   0.00000  Uiso   1.00
C64    C     0.35582   0.53909   0.19511   0.00000  Uiso   1.00
C65    C     0.29621   0.55101   0.22136   0.00000  Uiso   1.00
C66    C     0.28344   0.68859   0.23303   0.00000  Uiso   1.00
C67    C     0.54125   0.39510   0.18098   0.00000  Uiso   1.00
C68    C     0.63755   0.28598   0.19537   0.00000  Uiso   1.00
C69    C     0.78091   0.30237   0.19515   0.00000  Uiso   1.00
H70    H     0.49834   0.71671   0.14157   0.00000  Uiso   1.00
H71    H     0.31951   0.66575   0.08334   0.00000  Uiso   1.00
H72    H     0.42344   0.89166   0.18171   0.00000  Uiso   1.00
H73    H     0.76473   0.62668   0.15572   0.00000  Uiso   1.00
H74    H     0.10125   0.55581   0.02500   0.00000  Uiso   1.00
H75    H     0.32044   0.03218   0.23244   0.00000  Uiso   1.00
H76    H     0.04011   0.47342   0.17763   0.00000  Uiso   1.00
H77    H     0.34455   0.30483   0.18950   0.00000  Uiso   1.00
H78    H     0.15728   0.23126   0.13390   0.00000  Uiso   1.00
H79    H     0.26121   0.45719   0.23227   0.00000  Uiso   1.00
H80    H     0.60249   0.19220   0.20628   0.00000  Uiso   1.00
H81    H     0.96957   0.20317   0.06604   0.00000  Uiso   1.00
H82    H     0.18877   0.67954   0.27348   0.00000  Uiso   1.00
H83    H     0.90843   0.12078   0.21867   0.00000  Uiso   1.00
O84    O     0.91496   0.33855   0.00808   0.00000  Uiso   1.00
O85    O     0.20256   0.96352   0.28024   0.00000  Uiso   1.00
O86    O     0.14674   0.23044   0.20832   0.00000  Uiso   1.00
N87    N     0.09598   0.48290   0.04229   0.00000  Uiso   1.00
N88    N     0.30089   0.92828   0.23623   0.00000  Uiso   1.00
N89    N     0.97373   0.40590   0.18499   0.00000  Uiso   1.00
N90    N     0.02513   0.29314   0.06437   0.00000  Uiso   1.00
N91    N     0.23003   0.73852   0.25831   0.00000  Uiso   1.00
N92    N     0.90287   0.21614   0.20707   0.00000  Uiso   1.00
C93    C     0.46311   0.37765   0.65254   0.00000  Uiso   1.00
C94    C     0.34463   0.46247   0.62755   0.00000  Uiso   1.00
C95    C     0.28447   0.42807   0.59424   0.00000  Uiso   1.00
C96    C     0.17731   0.51928   0.57551   0.00000  Uiso   1.00
C97    C     0.00018   0.63249   0.53456   0.00000  Uiso   1.00
C98    C     0.40108   0.33972   0.68100   0.00000  Uiso   1.00
C99    C     0.38840   0.20211   0.69263   0.00000  Uiso   1.00
C100   C     0.32878   0.18999   0.71890   0.00000  Uiso   1.00
C101   C     0.23938   0.11263   0.76095   0.00000  Uiso   1.00
C102   C     0.58650   0.48369   0.66688   0.00000  Uiso   1.00
C103   C     0.72975   0.46713   0.66664   0.00000  Uiso   1.00
C104   C     0.82625   0.57621   0.68101   0.00000  Uiso   1.00
C105   C     0.02475   0.72240   0.70113   0.00000  Uiso   1.00
C106   C     0.37979   0.60080   0.67851   0.00000  Uiso   1.00
C107   C     0.29937   0.58367   0.64166   0.00000  Uiso   1.00
C108   C     0.19228   0.67496   0.62297   0.00000  Uiso   1.00
C109   C     0.13197   0.64070   0.58964   0.00000  Uiso   1.00
C110   C     0.35582   0.46091   0.69511   0.00000  Uiso   1.00
C111   C     0.29621   0.44899   0.72136   0.00000  Uiso   1.00
C112   C     0.28344   0.31141   0.73303   0.00000  Uiso   1.00
C113   C     0.54125   0.60490   0.68098   0.00000  Uiso   1.00
C114   C     0.63755   0.71402   0.69537   0.00000  Uiso   1.00
C115   C     0.78091   0.69763   0.69515   0.00000  Uiso   1.00
H116   H     0.49834   0.28329   0.64157   0.00000  Uiso   1.00
H117   H     0.31951   0.33425   0.58334   0.00000  Uiso   1.00
H118   H     0.42344   0.10834   0.68171   0.00000  Uiso   1.00
H119   H     0.76473   0.37332   0.65572   0.00000  Uiso   1.00
H120   H     0.10125   0.44419   0.52500   0.00000  Uiso   1.00
H121   H     0.32044   0.96782   0.73244   0.00000  Uiso   1.00
H122   H     0.04011   0.52658   0.67763   0.00000  Uiso   1.00
H123   H     0.34455   0.69517   0.68950   0.00000  Uiso   1.00
H124   H     0.15728   0.76874   0.63390   0.00000  Uiso   1.00
H125   H     0.26121   0.54281   0.73227   0.00000  Uiso   1.00
H126   H     0.60249   0.80780   0.70628   0.00000  Uiso   1.00
H127   H     0.96957   0.79683   0.56604   0.00000  Uiso   1.00
H128   H     0.18877   0.32046   0.77348   0.00000  Uiso   1.00
H129   H     0.90843   0.87922   0.71867   0.00000  Uiso   1.00
O130   O     0.91496   0.66145   0.50808   0.00000  Uiso   1.00
O131   O     0.20256   0.03648   0.78024   0.00000  Uiso   1.00
O132   O     0.14674   0.76956   0.70832   0.00000  Uiso   1.00
N133   N     0.09598   0.51710   0.54229   0.00000  Uiso   1.00
N134   N     0.30089   0.07172   0.73623   0.00000  Uiso   1.00
N135   N     0.97373   0.59410   0.68499   0.00000  Uiso   1.00
N136   N     0.02513   0.70686   0.56437   0.00000  Uiso   1.00
N137   N     0.23003   0.26148   0.75831   0.00000  Uiso   1.00
N138   N     0.90287   0.78386   0.70707   0.00000  Uiso   1.00
C139   C     0.53689   0.37765   0.84746   0.00000  Uiso   1.00
C140   C     0.65537   0.46247   0.87245   0.00000  Uiso   1.00
C141   C     0.71553   0.42807   0.90576   0.00000  Uiso   1.00
C142   C     0.82269   0.51928   0.92449   0.00000  Uiso   1.00
C143   C     0.99982   0.63249   0.96544   0.00000  Uiso   1.00
C144   C     0.59892   0.33972   0.81900   0.00000  Uiso   1.00
C145   C     0.61160   0.20211   0.80737   0.00000  Uiso   1.00
C146   C     0.67122   0.18999   0.78110   0.00000  Uiso   1.00
C147   C     0.76062   0.11263   0.73905   0.00000  Uiso   1.00
C148   C     0.41350   0.48369   0.83312   0.00000  Uiso   1.00
C149   C     0.27025   0.46713   0.83336   0.00000  Uiso   1.00
C150   C     0.17375   0.57621   0.81899   0.00000  Uiso   1.00
C151   C     0.97525   0.72240   0.79887   0.00000  Uiso   1.00
C152   C     0.62021   0.60080   0.82149   0.00000  Uiso   1.00
C153   C     0.70063   0.58367   0.85834   0.00000  Uiso   1.00
C154   C     0.80772   0.67496   0.87703   0.00000  Uiso   1.00
C155   C     0.86803   0.64070   0.91036   0.00000  Uiso   1.00
C156   C     0.64418   0.46091   0.80489   0.00000  Uiso   1.00
C157   C     0.70379   0.44899   0.77864   0.00000  Uiso   1.00
C158   C     0.71656   0.31141   0.76697   0.00000  Uiso   1.00
C159   C     0.45875   0.60490   0.81902   0.00000  Uiso   1.00
C160   C     0.36245   0.71402   0.80463   0.00000  Uiso   1.00
C161   C     0.21909   0.69763   0.80485   0.00000  Uiso   1.00
H162   H     0.50166   0.28329   0.85843   0.00000  Uiso   1.00
H163   H     0.68049   0.33425   0.91666   0.00000  Uiso   1.00
H164   H     0.57656   0.10834   0.81829   0.00000  Uiso   1.00
H165   H     0.23527   0.37332   0.84428   0.00000  Uiso   1.00
H166   H     0.89875   0.44419   0.97500   0.00000  Uiso   1.00
H167   H     0.67956   0.96782   0.76756   0.00000  Uiso   1.00
H168   H     0.95989   0.52658   0.82237   0.00000  Uiso   1.00
H169   H     0.65545   0.69517   0.81050   0.00000  Uiso   1.00
H170   H     0.84272   0.76874   0.86610   0.00000  Uiso   1.00
H171   H     0.73879   0.54281   0.76773   0.00000  Uiso   1.00
H172   H     0.39751   0.80780   0.79372   0.00000  Uiso   1.00
H173   H     0.03043   0.79683   0.93396   0.00000  Uiso   1.00
H174   H     0.81123   0.32046   0.72652   0.00000  Uiso   1.00
H175   H     0.09157   0.87922   0.78133   0.00000  Uiso   1.00
O176   O     0.08504   0.66145   0.99192   0.00000  Uiso   1.00
O177   O     0.79744   0.03648   0.71976   0.00000  Uiso   1.00
O178   O     0.85326   0.76956   0.79168   0.00000  Uiso   1.00
N179   N     0.90402   0.51710   0.95771   0.00000  Uiso   1.00
N180   N     0.69911   0.07172   0.76377   0.00000  Uiso   1.00
N181   N     0.02627   0.59410   0.81501   0.00000  Uiso   1.00
N182   N     0.97487   0.70686   0.93563   0.00000  Uiso   1.00
N183   N     0.76997   0.26148   0.74169   0.00000  Uiso   1.00
N184   N     0.09713   0.78386   0.79293   0.00000  Uiso   1.00
