data_job_01353
_audit_creation_date              2018-12-19
_audit_creation_method            'Materials Studio'
_symmetry_space_group_name_H-M    'P1'
_symmetry_Int_Tables_number       1
_symmetry_cell_setting            triclinic
loop_
_symmetry_equiv_pos_as_xyz
  x,y,z
_cell_length_a                    9.3024
_cell_length_b                    12.3597
_cell_length_c                    14.5852
_cell_angle_alpha                 103.7534
_cell_angle_beta                  97.3065
_cell_angle_gamma                 97.1691
loop_
_atom_site_label
_atom_site_type_symbol
_atom_site_fract_x
_atom_site_fract_y
_atom_site_fract_z
_atom_site_U_iso_or_equiv
_atom_site_adp_type
_atom_site_occupancy
C1     C     0.05663   0.64617   0.87702   0.00000  Uiso   1.00
C2     C     0.99173   0.62996   0.77234   0.00000  Uiso   1.00
C3     C     0.84503   0.59330   0.73230   0.00000  Uiso   1.00
C4     C     0.80767   0.58395   0.63518   0.00000  Uiso   1.00
C5     C     0.69083   0.55472   0.48100   0.00000  Uiso   1.00
C6     C     0.17768   0.57355   0.87681   0.00000  Uiso   1.00
C7     C     0.18732   0.48946   0.92461   0.00000  Uiso   1.00
C8     C     0.30651   0.43264   0.91543   0.00000  Uiso   1.00
C9     C     0.47842   0.31587   0.92350   0.00000  Uiso   1.00
C10    C     0.13379   0.76830   0.91251   0.00000  Uiso   1.00
C11    C     0.10657   0.84796   0.99034   0.00000  Uiso   1.00
C12    C     0.18883   0.95509   0.01123   0.00000  Uiso   1.00
C13    C     0.29260   0.14071   0.07472   0.00000  Uiso   1.00
C14    C     0.25116   0.69478   0.77575   0.00000  Uiso   1.00
C15    C     0.09739   0.65636   0.71734   0.00000  Uiso   1.00
C16    C     0.06025   0.64708   0.62025   0.00000  Uiso   1.00
C17    C     0.91351   0.61041   0.58007   0.00000  Uiso   1.00
C18    C     0.28333   0.59995   0.82180   0.00000  Uiso   1.00
C19    C     0.40254   0.54324   0.81256   0.00000  Uiso   1.00
C20    C     0.41236   0.45909   0.86033   0.00000  Uiso   1.00
C21    C     0.23945   0.79471   0.85750   0.00000  Uiso   1.00
C22    C     0.32178   0.90174   0.87828   0.00000  Uiso   1.00
C23    C     0.29468   0.98154   0.95613   0.00000  Uiso   1.00
H24    H     0.97438   0.62561   0.91985   0.00000  Uiso   1.00
H25    H     0.76329   0.57286   0.77489   0.00000  Uiso   1.00
H26    H     0.10555   0.46905   0.96718   0.00000  Uiso   1.00
H27    H     0.02479   0.82749   0.03289   0.00000  Uiso   1.00
H28    H     0.57587   0.52598   0.58992   0.00000  Uiso   1.00
H29    H     0.29756   0.30712   0.99539   0.00000  Uiso   1.00
H30    H     0.12728   0.06296   0.13396   0.00000  Uiso   1.00
H31    H     0.33342   0.71534   0.73292   0.00000  Uiso   1.00
H32    H     0.14204   0.66752   0.57770   0.00000  Uiso   1.00
H33    H     0.48429   0.56370   0.76999   0.00000  Uiso   1.00
H34    H     0.40354   0.92214   0.83570   0.00000  Uiso   1.00
H35    H     0.88328   0.60280   0.42987   0.00000  Uiso   1.00
H36    H     0.60496   0.38394   0.83535   0.00000  Uiso   1.00
H37    H     0.43469   0.13978   0.97391   0.00000  Uiso   1.00
O38    O     0.59721   0.53128   0.41115   0.00000  Uiso   1.00
O39    O     0.54404   0.24416   0.94313   0.00000  Uiso   1.00
O40    O     0.32063   0.23580   0.12493   0.00000  Uiso   1.00
N41    N     0.67448   0.55065   0.57356   0.00000  Uiso   1.00
N42    N     0.34920   0.34601   0.95263   0.00000  Uiso   1.00
N43    N     0.19003   0.05265   0.08220   0.00000  Uiso   1.00
N44    N     0.83989   0.59199   0.48744   0.00000  Uiso   1.00
N45    N     0.51461   0.38735   0.86651   0.00000  Uiso   1.00
N46    N     0.35544   0.09399   0.99608   0.00000  Uiso   1.00
C47    C     0.94337   0.35383   0.12298   0.00000  Uiso   1.00
C48    C     0.00827   0.37004   0.22766   0.00000  Uiso   1.00
C49    C     0.15497   0.40670   0.26770   0.00000  Uiso   1.00
C50    C     0.19233   0.41605   0.36482   0.00000  Uiso   1.00
C51    C     0.30917   0.44528   0.51900   0.00000  Uiso   1.00
C52    C     0.82232   0.42645   0.12319   0.00000  Uiso   1.00
C53    C     0.81268   0.51054   0.07539   0.00000  Uiso   1.00
C54    C     0.69349   0.56736   0.08457   0.00000  Uiso   1.00
C55    C     0.52158   0.68413   0.07650   0.00000  Uiso   1.00
C56    C     0.86621   0.23170   0.08749   0.00000  Uiso   1.00
C57    C     0.89343   0.15204   0.00966   0.00000  Uiso   1.00
C58    C     0.81117   0.04491   0.98877   0.00000  Uiso   1.00
C59    C     0.70740   0.85929   0.92528   0.00000  Uiso   1.00
C60    C     0.74884   0.30522   0.22425   0.00000  Uiso   1.00
C61    C     0.90261   0.34364   0.28266   0.00000  Uiso   1.00
C62    C     0.93975   0.35292   0.37975   0.00000  Uiso   1.00
C63    C     0.08649   0.38959   0.41993   0.00000  Uiso   1.00
C64    C     0.71667   0.40005   0.17820   0.00000  Uiso   1.00
C65    C     0.59746   0.45676   0.18744   0.00000  Uiso   1.00
C66    C     0.58764   0.54091   0.13967   0.00000  Uiso   1.00
C67    C     0.76055   0.20529   0.14250   0.00000  Uiso   1.00
C68    C     0.67822   0.09826   0.12172   0.00000  Uiso   1.00
C69    C     0.70532   0.01846   0.04387   0.00000  Uiso   1.00
H70    H     0.02562   0.37439   0.08015   0.00000  Uiso   1.00
H71    H     0.23671   0.42714   0.22511   0.00000  Uiso   1.00
H72    H     0.89445   0.53095   0.03282   0.00000  Uiso   1.00
H73    H     0.97521   0.17251   0.96711   0.00000  Uiso   1.00
H74    H     0.42413   0.47402   0.41008   0.00000  Uiso   1.00
H75    H     0.70244   0.69288   0.00461   0.00000  Uiso   1.00
H76    H     0.87272   0.93704   0.86604   0.00000  Uiso   1.00
H77    H     0.66658   0.28466   0.26708   0.00000  Uiso   1.00
H78    H     0.85796   0.33248   0.42230   0.00000  Uiso   1.00
H79    H     0.51571   0.43630   0.23001   0.00000  Uiso   1.00
H80    H     0.59646   0.07786   0.16430   0.00000  Uiso   1.00
H81    H     0.11672   0.39720   0.57013   0.00000  Uiso   1.00
H82    H     0.39504   0.61606   0.16465   0.00000  Uiso   1.00
H83    H     0.56531   0.86022   0.02609   0.00000  Uiso   1.00
O84    O     0.40279   0.46872   0.58885   0.00000  Uiso   1.00
O85    O     0.45596   0.75584   0.05687   0.00000  Uiso   1.00
O86    O     0.67937   0.76420   0.87507   0.00000  Uiso   1.00
N87    N     0.32552   0.44935   0.42644   0.00000  Uiso   1.00
N88    N     0.65080   0.65399   0.04737   0.00000  Uiso   1.00
N89    N     0.80997   0.94735   0.91780   0.00000  Uiso   1.00
N90    N     0.16011   0.40801   0.51256   0.00000  Uiso   1.00
N91    N     0.48539   0.61265   0.13349   0.00000  Uiso   1.00
N92    N     0.64456   0.90601   0.00392   0.00000  Uiso   1.00
