data_job_01129
_audit_creation_date              2018-12-19
_audit_creation_method            'Materials Studio'
_symmetry_space_group_name_H-M    'P1'
_symmetry_Int_Tables_number       1
_symmetry_cell_setting            triclinic
loop_
_symmetry_equiv_pos_as_xyz
  x,y,z
_cell_length_a                    14.0197
_cell_length_b                    12.5562
_cell_length_c                    26.3893
_cell_angle_alpha                 90.0000
_cell_angle_beta                  93.8131
_cell_angle_gamma                 90.0000
loop_
_atom_site_label
_atom_site_type_symbol
_atom_site_fract_x
_atom_site_fract_y
_atom_site_fract_z
_atom_site_U_iso_or_equiv
_atom_site_adp_type
_atom_site_occupancy
C1     C     0.67262   0.15300   0.92488   0.00000  Uiso   1.00
C2     C     0.69780   0.23373   0.88471   0.00000  Uiso   1.00
C3     C     0.74728   0.32826   0.89383   0.00000  Uiso   1.00
C4     C     0.76315   0.39123   0.85197   0.00000  Uiso   1.00
C5     C     0.80715   0.52124   0.79708   0.00000  Uiso   1.00
C6     C     0.56435   0.13960   0.91889   0.00000  Uiso   1.00
C7     C     0.50164   0.15499   0.95677   0.00000  Uiso   1.00
C8     C     0.40517   0.13871   0.94368   0.00000  Uiso   1.00
C9     C     0.24199   0.12252   0.94188   0.00000  Uiso   1.00
C10    C     0.71473   0.04712   0.90897   0.00000  Uiso   1.00
C11    C     0.77843   0.98473   0.93850   0.00000  Uiso   1.00
C12    C     0.80856   0.89057   0.91706   0.00000  Uiso   1.00
C13    C     0.87886   0.73079   0.89985   0.00000  Uiso   1.00
C14    C     0.61283   0.09672   0.83431   0.00000  Uiso   1.00
C15    C     0.66532   0.20316   0.83552   0.00000  Uiso   1.00
C16    C     0.68113   0.26599   0.79363   0.00000  Uiso   1.00
C17    C     0.73062   0.36061   0.80269   0.00000  Uiso   1.00
C18    C     0.53188   0.10904   0.86970   0.00000  Uiso   1.00
C19    C     0.43548   0.09272   0.85656   0.00000  Uiso   1.00
C20    C     0.37264   0.10808   0.89440   0.00000  Uiso   1.00
C21    C     0.68226   0.01655   0.85977   0.00000  Uiso   1.00
C22    C     0.71228   0.92247   0.83829   0.00000  Uiso   1.00
C23    C     0.77602   0.85995   0.86778   0.00000  Uiso   1.00
H24    H     0.69790   0.17680   0.96318   0.00000  Uiso   1.00
H25    H     0.77239   0.35189   0.93191   0.00000  Uiso   1.00
H26    H     0.52679   0.17863   0.99483   0.00000  Uiso   1.00
H27    H     0.80355   0.00841   0.97656   0.00000  Uiso   1.00
H28    H     0.84063   0.53255   0.87555   0.00000  Uiso   1.00
H29    H     0.32276   0.16719   0.00823   0.00000  Uiso   1.00
H30    H     0.90636   0.80823   0.96971   0.00000  Uiso   1.00
H31    H     0.58754   0.07292   0.79601   0.00000  Uiso   1.00
H32    H     0.65599   0.24232   0.75557   0.00000  Uiso   1.00
H33    H     0.41038   0.06906   0.81849   0.00000  Uiso   1.00
H34    H     0.68714   0.89884   0.80023   0.00000  Uiso   1.00
H35    H     0.74615   0.44362   0.73242   0.00000  Uiso   1.00
H36    H     0.22828   0.07825   0.86511   0.00000  Uiso   1.00
H37    H     0.81188   0.71930   0.82659   0.00000  Uiso   1.00
O38    O     0.84037   0.60141   0.78040   0.00000  Uiso   1.00
O39    O     0.16096   0.12205   0.95448   0.00000  Uiso   1.00
O40    O     0.92662   0.65112   0.90394   0.00000  Uiso   1.00
N41    N     0.80902   0.48836   0.84741   0.00000  Uiso   1.00
N42    N     0.32484   0.14679   0.97146   0.00000  Uiso   1.00
N43    N     0.87044   0.81118   0.93545   0.00000  Uiso   1.00
N44    N     0.75818   0.44051   0.77040   0.00000  Uiso   1.00
N45    N     0.27400   0.09893   0.89445   0.00000  Uiso   1.00
N46    N     0.81959   0.76333   0.85844   0.00000  Uiso   1.00
C47    C     0.21422   0.35729   0.45059   0.00000  Uiso   1.00
C48    C     0.17426   0.27366   0.41303   0.00000  Uiso   1.00
C49    C     0.13580   0.17609   0.42562   0.00000  Uiso   1.00
C50    C     0.10309   0.11079   0.38571   0.00000  Uiso   1.00
C51    C     0.04023   0.97616   0.33508   0.00000  Uiso   1.00
C52    C     0.31657   0.37819   0.43699   0.00000  Uiso   1.00
C53    C     0.39776   0.36852   0.46973   0.00000  Uiso   1.00
C54    C     0.48485   0.39123   0.44999   0.00000  Uiso   1.00
C55    C     0.64293   0.41896   0.43657   0.00000  Uiso   1.00
C56    C     0.15889   0.45944   0.43785   0.00000  Uiso   1.00
C57    C     0.10751   0.51811   0.47132   0.00000  Uiso   1.00
C58    C     0.06186   0.60923   0.45231   0.00000  Uiso   1.00
C59    C     0.97511   0.76311   0.44024   0.00000  Uiso   1.00
C60    C     0.22451   0.41483   0.35733   0.00000  Uiso   1.00
C61    C     0.17985   0.30492   0.36237   0.00000  Uiso   1.00
C62    C     0.14718   0.23975   0.32243   0.00000  Uiso   1.00
C63    C     0.10868   0.14209   0.33496   0.00000  Uiso   1.00
C64    C     0.32216   0.40944   0.38633   0.00000  Uiso   1.00
C65    C     0.40914   0.43218   0.36654   0.00000  Uiso   1.00
C66    C     0.49045   0.42254   0.39924   0.00000  Uiso   1.00
C67    C     0.16447   0.49069   0.38719   0.00000  Uiso   1.00
C68    C     0.11889   0.58175   0.36813   0.00000  Uiso   1.00
C69    C     0.06746   0.64054   0.40156   0.00000  Uiso   1.00
H70    H     0.20987   0.33296   0.49003   0.00000  Uiso   1.00
H71    H     0.13150   0.15193   0.46483   0.00000  Uiso   1.00
H72    H     0.39341   0.34435   0.50893   0.00000  Uiso   1.00
H73    H     0.10321   0.49390   0.51052   0.00000  Uiso   1.00
H74    H     0.04710   0.96499   0.41454   0.00000  Uiso   1.00
H75    H     0.59936   0.37074   0.50754   0.00000  Uiso   1.00
H76    H     0.98741   0.68611   0.51090   0.00000  Uiso   1.00
H77    H     0.22886   0.43916   0.31788   0.00000  Uiso   1.00
H78    H     0.15152   0.26395   0.28323   0.00000  Uiso   1.00
H79    H     0.41344   0.45636   0.32733   0.00000  Uiso   1.00
H80    H     0.12323   0.60591   0.32893   0.00000  Uiso   1.00
H81    H     0.06335   0.05590   0.26715   0.00000  Uiso   1.00
H82    H     0.61562   0.46166   0.36015   0.00000  Uiso   1.00
H83    H     0.00366   0.77702   0.36351   0.00000  Uiso   1.00
O84    O     0.00403   0.89326   0.32115   0.00000  Uiso   1.00
O85    O     0.72858   0.42561   0.44317   0.00000  Uiso   1.00
O86    O     0.92571   0.83935   0.44757   0.00000  Uiso   1.00
N87    N     0.06152   0.01044   0.38461   0.00000  Uiso   1.00
N88    N     0.57786   0.38978   0.47155   0.00000  Uiso   1.00
N89    N     0.00575   0.68463   0.47470   0.00000  Uiso   1.00
N90    N     0.07026   0.05936   0.30530   0.00000  Uiso   1.00
N91    N     0.58660   0.43870   0.39224   0.00000  Uiso   1.00
N92    N     0.01449   0.73355   0.39539   0.00000  Uiso   1.00
C93    C     0.32738   0.15300   0.57512   0.00000  Uiso   1.00
C94    C     0.30220   0.23373   0.61529   0.00000  Uiso   1.00
C95    C     0.25272   0.32826   0.60617   0.00000  Uiso   1.00
C96    C     0.23685   0.39123   0.64803   0.00000  Uiso   1.00
C97    C     0.19285   0.52124   0.70292   0.00000  Uiso   1.00
C98    C     0.43565   0.13960   0.58111   0.00000  Uiso   1.00
C99    C     0.49836   0.15499   0.54323   0.00000  Uiso   1.00
C100   C     0.59483   0.13871   0.55632   0.00000  Uiso   1.00
C101   C     0.75801   0.12252   0.55812   0.00000  Uiso   1.00
C102   C     0.28527   0.04712   0.59103   0.00000  Uiso   1.00
C103   C     0.22157   0.98473   0.56150   0.00000  Uiso   1.00
C104   C     0.19144   0.89057   0.58294   0.00000  Uiso   1.00
C105   C     0.12114   0.73079   0.60015   0.00000  Uiso   1.00
C106   C     0.38717   0.09672   0.66569   0.00000  Uiso   1.00
C107   C     0.33468   0.20316   0.66448   0.00000  Uiso   1.00
C108   C     0.31887   0.26599   0.70637   0.00000  Uiso   1.00
C109   C     0.26938   0.36061   0.69731   0.00000  Uiso   1.00
C110   C     0.46812   0.10904   0.63030   0.00000  Uiso   1.00
C111   C     0.56452   0.09272   0.64344   0.00000  Uiso   1.00
C112   C     0.62736   0.10808   0.60560   0.00000  Uiso   1.00
C113   C     0.31774   0.01655   0.64023   0.00000  Uiso   1.00
C114   C     0.28772   0.92247   0.66171   0.00000  Uiso   1.00
C115   C     0.22398   0.85995   0.63222   0.00000  Uiso   1.00
H116   H     0.30210   0.17680   0.53682   0.00000  Uiso   1.00
H117   H     0.22761   0.35189   0.56809   0.00000  Uiso   1.00
H118   H     0.47321   0.17863   0.50517   0.00000  Uiso   1.00
H119   H     0.19645   0.00841   0.52344   0.00000  Uiso   1.00
H120   H     0.15937   0.53255   0.62445   0.00000  Uiso   1.00
H121   H     0.67724   0.16719   0.49177   0.00000  Uiso   1.00
H122   H     0.09364   0.80823   0.53029   0.00000  Uiso   1.00
H123   H     0.41246   0.07292   0.70399   0.00000  Uiso   1.00
H124   H     0.34401   0.24232   0.74443   0.00000  Uiso   1.00
H125   H     0.58962   0.06906   0.68151   0.00000  Uiso   1.00
H126   H     0.31286   0.89884   0.69977   0.00000  Uiso   1.00
H127   H     0.25385   0.44362   0.76758   0.00000  Uiso   1.00
H128   H     0.77172   0.07825   0.63489   0.00000  Uiso   1.00
H129   H     0.18812   0.71930   0.67341   0.00000  Uiso   1.00
O130   O     0.15963   0.60141   0.71960   0.00000  Uiso   1.00
O131   O     0.83904   0.12205   0.54552   0.00000  Uiso   1.00
O132   O     0.07338   0.65112   0.59606   0.00000  Uiso   1.00
N133   N     0.19098   0.48836   0.65259   0.00000  Uiso   1.00
N134   N     0.67516   0.14679   0.52854   0.00000  Uiso   1.00
N135   N     0.12956   0.81118   0.56455   0.00000  Uiso   1.00
N136   N     0.24182   0.44051   0.72960   0.00000  Uiso   1.00
N137   N     0.72600   0.09893   0.60555   0.00000  Uiso   1.00
N138   N     0.18041   0.76333   0.64156   0.00000  Uiso   1.00
C139   C     0.78578   0.35729   0.04941   0.00000  Uiso   1.00
C140   C     0.82574   0.27366   0.08697   0.00000  Uiso   1.00
C141   C     0.86420   0.17609   0.07438   0.00000  Uiso   1.00
C142   C     0.89691   0.11079   0.11429   0.00000  Uiso   1.00
C143   C     0.95977   0.97616   0.16492   0.00000  Uiso   1.00
C144   C     0.68343   0.37819   0.06301   0.00000  Uiso   1.00
C145   C     0.60224   0.36852   0.03027   0.00000  Uiso   1.00
C146   C     0.51515   0.39123   0.05001   0.00000  Uiso   1.00
C147   C     0.35707   0.41896   0.06343   0.00000  Uiso   1.00
C148   C     0.84111   0.45944   0.06215   0.00000  Uiso   1.00
C149   C     0.89249   0.51811   0.02868   0.00000  Uiso   1.00
C150   C     0.93814   0.60923   0.04769   0.00000  Uiso   1.00
C151   C     0.02489   0.76311   0.05976   0.00000  Uiso   1.00
C152   C     0.77549   0.41483   0.14267   0.00000  Uiso   1.00
C153   C     0.82015   0.30492   0.13763   0.00000  Uiso   1.00
C154   C     0.85282   0.23975   0.17757   0.00000  Uiso   1.00
C155   C     0.89132   0.14209   0.16504   0.00000  Uiso   1.00
C156   C     0.67784   0.40944   0.11367   0.00000  Uiso   1.00
C157   C     0.59086   0.43218   0.13346   0.00000  Uiso   1.00
C158   C     0.50955   0.42254   0.10076   0.00000  Uiso   1.00
C159   C     0.83553   0.49069   0.11281   0.00000  Uiso   1.00
C160   C     0.88111   0.58175   0.13187   0.00000  Uiso   1.00
C161   C     0.93254   0.64054   0.09844   0.00000  Uiso   1.00
H162   H     0.79013   0.33296   0.00997   0.00000  Uiso   1.00
H163   H     0.86850   0.15193   0.03517   0.00000  Uiso   1.00
H164   H     0.60659   0.34435   0.99107   0.00000  Uiso   1.00
H165   H     0.89679   0.49390   0.98948   0.00000  Uiso   1.00
H166   H     0.95290   0.96499   0.08546   0.00000  Uiso   1.00
H167   H     0.40064   0.37074   0.99246   0.00000  Uiso   1.00
H168   H     0.01259   0.68611   0.98910   0.00000  Uiso   1.00
H169   H     0.77114   0.43916   0.18212   0.00000  Uiso   1.00
H170   H     0.84848   0.26395   0.21677   0.00000  Uiso   1.00
H171   H     0.58656   0.45636   0.17267   0.00000  Uiso   1.00
H172   H     0.87677   0.60591   0.17107   0.00000  Uiso   1.00
H173   H     0.93665   0.05590   0.23285   0.00000  Uiso   1.00
H174   H     0.38438   0.46166   0.13985   0.00000  Uiso   1.00
H175   H     0.99634   0.77702   0.13649   0.00000  Uiso   1.00
O176   O     0.99597   0.89326   0.17885   0.00000  Uiso   1.00
O177   O     0.27142   0.42561   0.05683   0.00000  Uiso   1.00
O178   O     0.07429   0.83935   0.05243   0.00000  Uiso   1.00
N179   N     0.93848   0.01044   0.11539   0.00000  Uiso   1.00
N180   N     0.42214   0.38978   0.02845   0.00000  Uiso   1.00
N181   N     0.99425   0.68463   0.02530   0.00000  Uiso   1.00
N182   N     0.92974   0.05936   0.19470   0.00000  Uiso   1.00
N183   N     0.41340   0.43870   0.10776   0.00000  Uiso   1.00
N184   N     0.98551   0.73355   0.10461   0.00000  Uiso   1.00
C185   C     0.32738   0.84700   0.07512   0.00000  Uiso   1.00
C186   C     0.30220   0.76627   0.11529   0.00000  Uiso   1.00
C187   C     0.25272   0.67174   0.10617   0.00000  Uiso   1.00
C188   C     0.23685   0.60877   0.14803   0.00000  Uiso   1.00
C189   C     0.19285   0.47876   0.20292   0.00000  Uiso   1.00
C190   C     0.43565   0.86040   0.08111   0.00000  Uiso   1.00
C191   C     0.49836   0.84501   0.04323   0.00000  Uiso   1.00
C192   C     0.59483   0.86129   0.05632   0.00000  Uiso   1.00
C193   C     0.75801   0.87748   0.05812   0.00000  Uiso   1.00
C194   C     0.28527   0.95288   0.09103   0.00000  Uiso   1.00
C195   C     0.22157   0.01527   0.06150   0.00000  Uiso   1.00
C196   C     0.19144   0.10943   0.08294   0.00000  Uiso   1.00
C197   C     0.12114   0.26921   0.10015   0.00000  Uiso   1.00
C198   C     0.38717   0.90328   0.16569   0.00000  Uiso   1.00
C199   C     0.33468   0.79684   0.16448   0.00000  Uiso   1.00
C200   C     0.31887   0.73401   0.20637   0.00000  Uiso   1.00
C201   C     0.26938   0.63939   0.19731   0.00000  Uiso   1.00
C202   C     0.46812   0.89096   0.13030   0.00000  Uiso   1.00
C203   C     0.56452   0.90728   0.14344   0.00000  Uiso   1.00
C204   C     0.62736   0.89192   0.10560   0.00000  Uiso   1.00
C205   C     0.31774   0.98345   0.14023   0.00000  Uiso   1.00
C206   C     0.28772   0.07753   0.16171   0.00000  Uiso   1.00
C207   C     0.22398   0.14005   0.13222   0.00000  Uiso   1.00
H208   H     0.30210   0.82320   0.03682   0.00000  Uiso   1.00
H209   H     0.22761   0.64811   0.06809   0.00000  Uiso   1.00
H210   H     0.47321   0.82137   0.00517   0.00000  Uiso   1.00
H211   H     0.19645   0.99159   0.02344   0.00000  Uiso   1.00
H212   H     0.15937   0.46745   0.12445   0.00000  Uiso   1.00
H213   H     0.67724   0.83281   0.99177   0.00000  Uiso   1.00
H214   H     0.09364   0.19177   0.03029   0.00000  Uiso   1.00
H215   H     0.41246   0.92708   0.20399   0.00000  Uiso   1.00
H216   H     0.34401   0.75768   0.24443   0.00000  Uiso   1.00
H217   H     0.58962   0.93094   0.18151   0.00000  Uiso   1.00
H218   H     0.31286   0.10116   0.19977   0.00000  Uiso   1.00
H219   H     0.25385   0.55638   0.26758   0.00000  Uiso   1.00
H220   H     0.77172   0.92175   0.13489   0.00000  Uiso   1.00
H221   H     0.18812   0.28070   0.17341   0.00000  Uiso   1.00
O222   O     0.15963   0.39859   0.21960   0.00000  Uiso   1.00
O223   O     0.83904   0.87795   0.04552   0.00000  Uiso   1.00
O224   O     0.07338   0.34888   0.09606   0.00000  Uiso   1.00
N225   N     0.19098   0.51164   0.15259   0.00000  Uiso   1.00
N226   N     0.67516   0.85321   0.02854   0.00000  Uiso   1.00
N227   N     0.12956   0.18882   0.06455   0.00000  Uiso   1.00
N228   N     0.24182   0.55949   0.22960   0.00000  Uiso   1.00
N229   N     0.72600   0.90107   0.10555   0.00000  Uiso   1.00
N230   N     0.18041   0.23667   0.14156   0.00000  Uiso   1.00
C231   C     0.78578   0.64271   0.54941   0.00000  Uiso   1.00
C232   C     0.82574   0.72634   0.58697   0.00000  Uiso   1.00
C233   C     0.86420   0.82391   0.57438   0.00000  Uiso   1.00
C234   C     0.89691   0.88921   0.61429   0.00000  Uiso   1.00
C235   C     0.95977   0.02384   0.66492   0.00000  Uiso   1.00
C236   C     0.68343   0.62181   0.56301   0.00000  Uiso   1.00
C237   C     0.60224   0.63148   0.53027   0.00000  Uiso   1.00
C238   C     0.51515   0.60877   0.55001   0.00000  Uiso   1.00
C239   C     0.35707   0.58104   0.56343   0.00000  Uiso   1.00
C240   C     0.84111   0.54056   0.56215   0.00000  Uiso   1.00
C241   C     0.89249   0.48189   0.52868   0.00000  Uiso   1.00
C242   C     0.93814   0.39077   0.54769   0.00000  Uiso   1.00
C243   C     0.02489   0.23689   0.55976   0.00000  Uiso   1.00
C244   C     0.77549   0.58517   0.64267   0.00000  Uiso   1.00
C245   C     0.82015   0.69508   0.63763   0.00000  Uiso   1.00
C246   C     0.85282   0.76025   0.67757   0.00000  Uiso   1.00
C247   C     0.89132   0.85791   0.66504   0.00000  Uiso   1.00
C248   C     0.67784   0.59056   0.61367   0.00000  Uiso   1.00
C249   C     0.59086   0.56782   0.63346   0.00000  Uiso   1.00
C250   C     0.50955   0.57746   0.60076   0.00000  Uiso   1.00
C251   C     0.83553   0.50931   0.61281   0.00000  Uiso   1.00
C252   C     0.88111   0.41825   0.63187   0.00000  Uiso   1.00
C253   C     0.93254   0.35946   0.59844   0.00000  Uiso   1.00
H254   H     0.79013   0.66704   0.50997   0.00000  Uiso   1.00
H255   H     0.86850   0.84807   0.53517   0.00000  Uiso   1.00
H256   H     0.60659   0.65565   0.49107   0.00000  Uiso   1.00
H257   H     0.89679   0.50610   0.48948   0.00000  Uiso   1.00
H258   H     0.95290   0.03501   0.58546   0.00000  Uiso   1.00
H259   H     0.40064   0.62926   0.49246   0.00000  Uiso   1.00
H260   H     0.01259   0.31389   0.48910   0.00000  Uiso   1.00
H261   H     0.77114   0.56084   0.68212   0.00000  Uiso   1.00
H262   H     0.84848   0.73605   0.71677   0.00000  Uiso   1.00
H263   H     0.58656   0.54364   0.67267   0.00000  Uiso   1.00
H264   H     0.87677   0.39409   0.67107   0.00000  Uiso   1.00
H265   H     0.93665   0.94410   0.73285   0.00000  Uiso   1.00
H266   H     0.38438   0.53834   0.63985   0.00000  Uiso   1.00
H267   H     0.99634   0.22298   0.63649   0.00000  Uiso   1.00
O268   O     0.99597   0.10674   0.67885   0.00000  Uiso   1.00
O269   O     0.27142   0.57439   0.55683   0.00000  Uiso   1.00
O270   O     0.07429   0.16065   0.55243   0.00000  Uiso   1.00
N271   N     0.93848   0.98956   0.61539   0.00000  Uiso   1.00
N272   N     0.42214   0.61022   0.52845   0.00000  Uiso   1.00
N273   N     0.99425   0.31537   0.52530   0.00000  Uiso   1.00
N274   N     0.92974   0.94064   0.69470   0.00000  Uiso   1.00
N275   N     0.41340   0.56130   0.60776   0.00000  Uiso   1.00
N276   N     0.98551   0.26645   0.60461   0.00000  Uiso   1.00
C277   C     0.67262   0.84700   0.42488   0.00000  Uiso   1.00
C278   C     0.69780   0.76627   0.38471   0.00000  Uiso   1.00
C279   C     0.74728   0.67174   0.39383   0.00000  Uiso   1.00
C280   C     0.76315   0.60877   0.35197   0.00000  Uiso   1.00
C281   C     0.80715   0.47876   0.29708   0.00000  Uiso   1.00
C282   C     0.56435   0.86040   0.41889   0.00000  Uiso   1.00
C283   C     0.50164   0.84501   0.45677   0.00000  Uiso   1.00
C284   C     0.40517   0.86129   0.44368   0.00000  Uiso   1.00
C285   C     0.24199   0.87748   0.44188   0.00000  Uiso   1.00
C286   C     0.71473   0.95288   0.40897   0.00000  Uiso   1.00
C287   C     0.77843   0.01527   0.43850   0.00000  Uiso   1.00
C288   C     0.80856   0.10943   0.41706   0.00000  Uiso   1.00
C289   C     0.87886   0.26921   0.39985   0.00000  Uiso   1.00
C290   C     0.61283   0.90328   0.33431   0.00000  Uiso   1.00
C291   C     0.66532   0.79684   0.33552   0.00000  Uiso   1.00
C292   C     0.68113   0.73401   0.29363   0.00000  Uiso   1.00
C293   C     0.73062   0.63939   0.30269   0.00000  Uiso   1.00
C294   C     0.53188   0.89096   0.36970   0.00000  Uiso   1.00
C295   C     0.43548   0.90728   0.35656   0.00000  Uiso   1.00
C296   C     0.37264   0.89192   0.39440   0.00000  Uiso   1.00
C297   C     0.68226   0.98345   0.35977   0.00000  Uiso   1.00
C298   C     0.71228   0.07753   0.33829   0.00000  Uiso   1.00
C299   C     0.77602   0.14005   0.36778   0.00000  Uiso   1.00
H300   H     0.69790   0.82320   0.46318   0.00000  Uiso   1.00
H301   H     0.77239   0.64811   0.43191   0.00000  Uiso   1.00
H302   H     0.52679   0.82137   0.49483   0.00000  Uiso   1.00
H303   H     0.80355   0.99159   0.47656   0.00000  Uiso   1.00
H304   H     0.84063   0.46745   0.37555   0.00000  Uiso   1.00
H305   H     0.32276   0.83281   0.50823   0.00000  Uiso   1.00
H306   H     0.90636   0.19177   0.46971   0.00000  Uiso   1.00
H307   H     0.58754   0.92708   0.29601   0.00000  Uiso   1.00
H308   H     0.65599   0.75768   0.25557   0.00000  Uiso   1.00
H309   H     0.41038   0.93094   0.31849   0.00000  Uiso   1.00
H310   H     0.68714   0.10116   0.30023   0.00000  Uiso   1.00
H311   H     0.74615   0.55638   0.23242   0.00000  Uiso   1.00
H312   H     0.22828   0.92175   0.36511   0.00000  Uiso   1.00
H313   H     0.81188   0.28070   0.32659   0.00000  Uiso   1.00
O314   O     0.84037   0.39859   0.28040   0.00000  Uiso   1.00
O315   O     0.16096   0.87795   0.45448   0.00000  Uiso   1.00
O316   O     0.92662   0.34888   0.40394   0.00000  Uiso   1.00
N317   N     0.80902   0.51164   0.34741   0.00000  Uiso   1.00
N318   N     0.32484   0.85321   0.47146   0.00000  Uiso   1.00
N319   N     0.87044   0.18882   0.43545   0.00000  Uiso   1.00
N320   N     0.75818   0.55949   0.27040   0.00000  Uiso   1.00
N321   N     0.27400   0.90107   0.39445   0.00000  Uiso   1.00
N322   N     0.81959   0.23667   0.35844   0.00000  Uiso   1.00
C323   C     0.21422   0.64271   0.95059   0.00000  Uiso   1.00
C324   C     0.17426   0.72634   0.91303   0.00000  Uiso   1.00
C325   C     0.13580   0.82391   0.92562   0.00000  Uiso   1.00
C326   C     0.10309   0.88921   0.88571   0.00000  Uiso   1.00
C327   C     0.04023   0.02384   0.83508   0.00000  Uiso   1.00
C328   C     0.31657   0.62181   0.93699   0.00000  Uiso   1.00
C329   C     0.39776   0.63148   0.96973   0.00000  Uiso   1.00
C330   C     0.48485   0.60877   0.94999   0.00000  Uiso   1.00
C331   C     0.64293   0.58104   0.93657   0.00000  Uiso   1.00
C332   C     0.15889   0.54056   0.93785   0.00000  Uiso   1.00
C333   C     0.10751   0.48189   0.97132   0.00000  Uiso   1.00
C334   C     0.06186   0.39077   0.95231   0.00000  Uiso   1.00
C335   C     0.97511   0.23689   0.94024   0.00000  Uiso   1.00
C336   C     0.22451   0.58517   0.85733   0.00000  Uiso   1.00
C337   C     0.17985   0.69508   0.86237   0.00000  Uiso   1.00
C338   C     0.14718   0.76025   0.82243   0.00000  Uiso   1.00
C339   C     0.10868   0.85791   0.83496   0.00000  Uiso   1.00
C340   C     0.32216   0.59056   0.88633   0.00000  Uiso   1.00
C341   C     0.40914   0.56782   0.86654   0.00000  Uiso   1.00
C342   C     0.49045   0.57746   0.89924   0.00000  Uiso   1.00
C343   C     0.16447   0.50931   0.88719   0.00000  Uiso   1.00
C344   C     0.11889   0.41825   0.86813   0.00000  Uiso   1.00
C345   C     0.06746   0.35946   0.90156   0.00000  Uiso   1.00
H346   H     0.20987   0.66704   0.99003   0.00000  Uiso   1.00
H347   H     0.13150   0.84807   0.96483   0.00000  Uiso   1.00
H348   H     0.39341   0.65565   0.00893   0.00000  Uiso   1.00
H349   H     0.10321   0.50610   0.01052   0.00000  Uiso   1.00
H350   H     0.04710   0.03501   0.91454   0.00000  Uiso   1.00
H351   H     0.59936   0.62926   0.00754   0.00000  Uiso   1.00
H352   H     0.98741   0.31389   0.01090   0.00000  Uiso   1.00
H353   H     0.22886   0.56084   0.81788   0.00000  Uiso   1.00
H354   H     0.15152   0.73605   0.78323   0.00000  Uiso   1.00
H355   H     0.41344   0.54364   0.82733   0.00000  Uiso   1.00
H356   H     0.12323   0.39409   0.82893   0.00000  Uiso   1.00
H357   H     0.06335   0.94410   0.76715   0.00000  Uiso   1.00
H358   H     0.61562   0.53834   0.86015   0.00000  Uiso   1.00
H359   H     0.00366   0.22298   0.86351   0.00000  Uiso   1.00
O360   O     0.00403   0.10674   0.82115   0.00000  Uiso   1.00
O361   O     0.72858   0.57439   0.94317   0.00000  Uiso   1.00
O362   O     0.92571   0.16065   0.94757   0.00000  Uiso   1.00
N363   N     0.06152   0.98956   0.88461   0.00000  Uiso   1.00
N364   N     0.57786   0.61022   0.97155   0.00000  Uiso   1.00
N365   N     0.00575   0.31537   0.97470   0.00000  Uiso   1.00
N366   N     0.07026   0.94064   0.80530   0.00000  Uiso   1.00
N367   N     0.58660   0.56130   0.89224   0.00000  Uiso   1.00
N368   N     0.01449   0.26645   0.89539   0.00000  Uiso   1.00
