data_job_01350
_audit_creation_date              2018-12-19
_audit_creation_method            'Materials Studio'
_symmetry_space_group_name_H-M    'P1'
_symmetry_Int_Tables_number       1
_symmetry_cell_setting            triclinic
loop_
_symmetry_equiv_pos_as_xyz
  x,y,z
_cell_length_a                    12.1891
_cell_length_b                    7.3951
_cell_length_c                    27.4579
_cell_angle_alpha                 90.0000
_cell_angle_beta                  112.4762
_cell_angle_gamma                 90.0000
loop_
_atom_site_label
_atom_site_type_symbol
_atom_site_fract_x
_atom_site_fract_y
_atom_site_fract_z
_atom_site_U_iso_or_equiv
_atom_site_adp_type
_atom_site_occupancy
C1     C     0.34498   0.84265   0.32606   0.00000  Uiso   1.00
C2     C     0.44696   0.78376   0.37627   0.00000  Uiso   1.00
C3     C     0.54643   0.88630   0.40441   0.00000  Uiso   1.00
C4     C     0.62972   0.80820   0.44932   0.00000  Uiso   1.00
C5     C     0.79049   0.74325   0.52482   0.00000  Uiso   1.00
C6     C     0.33569   0.69907   0.28480   0.00000  Uiso   1.00
C7     C     0.34160   0.73042   0.23603   0.00000  Uiso   1.00
C8     C     0.33121   0.58103   0.20393   0.00000  Uiso   1.00
C9     C     0.31915   0.38462   0.13741   0.00000  Uiso   1.00
C10    C     0.23244   0.82510   0.33746   0.00000  Uiso   1.00
C11    C     0.15150   0.96241   0.33295   0.00000  Uiso   1.00
C12    C     0.05416   0.91911   0.34518   0.00000  Uiso   1.00
C13    C     0.88178   0.91838   0.36042   0.00000  Uiso   1.00
C14    C     0.31600   0.52161   0.35578   0.00000  Uiso   1.00
C15    C     0.43121   0.60938   0.39241   0.00000  Uiso   1.00
C16    C     0.51437   0.53111   0.43729   0.00000  Uiso   1.00
C17    C     0.61395   0.63352   0.46549   0.00000  Uiso   1.00
C18    C     0.31995   0.52470   0.30094   0.00000  Uiso   1.00
C19    C     0.30954   0.37523   0.26891   0.00000  Uiso   1.00
C20    C     0.31544   0.40634   0.22010   0.00000  Uiso   1.00
C21    C     0.21669   0.65073   0.35360   0.00000  Uiso   1.00
C22    C     0.11945   0.60721   0.36584   0.00000  Uiso   1.00
C23    C     0.03839   0.74442   0.36135   0.00000  Uiso   1.00
H24    H     0.35723   0.97840   0.31348   0.00000  Uiso   1.00
H25    H     0.55859   0.02124   0.39190   0.00000  Uiso   1.00
H26    H     0.35378   0.86538   0.22354   0.00000  Uiso   1.00
H27    H     0.16372   0.09733   0.32046   0.00000  Uiso   1.00
H28    H     0.77490   0.99180   0.48595   0.00000  Uiso   1.00
H29    H     0.34301   0.66318   0.13095   0.00000  Uiso   1.00
H30    H     0.94222   0.15229   0.33531   0.00000  Uiso   1.00
H31    H     0.30374   0.38584   0.36834   0.00000  Uiso   1.00
H32    H     0.50216   0.39616   0.44978   0.00000  Uiso   1.00
H33    H     0.29735   0.24030   0.28141   0.00000  Uiso   1.00
H34    H     0.10729   0.47225   0.37833   0.00000  Uiso   1.00
H35    H     0.72911   0.48446   0.53292   0.00000  Uiso   1.00
H36    H     0.29721   0.15584   0.17792   0.00000  Uiso   1.00
H37    H     0.89643   0.64495   0.38228   0.00000  Uiso   1.00
O38    O     0.88352   0.75559   0.56200   0.00000  Uiso   1.00
O39    O     0.31687   0.32446   0.09625   0.00000  Uiso   1.00
O40    O     0.79105   0.96616   0.36437   0.00000  Uiso   1.00
N41    N     0.73688   0.87100   0.48584   0.00000  Uiso   1.00
N42    N     0.33311   0.56375   0.15393   0.00000  Uiso   1.00
N43    N     0.95839   0.02102   0.34498   0.00000  Uiso   1.00
N44    N     0.71224   0.59800   0.51111   0.00000  Uiso   1.00
N45    N     0.30847   0.29076   0.17921   0.00000  Uiso   1.00
N46    N     0.93375   0.74802   0.37026   0.00000  Uiso   1.00
C47    C     0.65502   0.84265   0.17394   0.00000  Uiso   1.00
C48    C     0.55304   0.78376   0.12373   0.00000  Uiso   1.00
C49    C     0.45357   0.88630   0.09559   0.00000  Uiso   1.00
C50    C     0.37028   0.80820   0.05068   0.00000  Uiso   1.00
C51    C     0.20951   0.74325   0.97518   0.00000  Uiso   1.00
C52    C     0.66431   0.69907   0.21520   0.00000  Uiso   1.00
C53    C     0.65840   0.73042   0.26397   0.00000  Uiso   1.00
C54    C     0.66879   0.58103   0.29607   0.00000  Uiso   1.00
C55    C     0.68085   0.38462   0.36259   0.00000  Uiso   1.00
C56    C     0.76756   0.82510   0.16254   0.00000  Uiso   1.00
C57    C     0.84850   0.96241   0.16705   0.00000  Uiso   1.00
C58    C     0.94584   0.91911   0.15482   0.00000  Uiso   1.00
C59    C     0.11822   0.91838   0.13958   0.00000  Uiso   1.00
C60    C     0.68400   0.52161   0.14422   0.00000  Uiso   1.00
C61    C     0.56879   0.60938   0.10759   0.00000  Uiso   1.00
C62    C     0.48563   0.53111   0.06271   0.00000  Uiso   1.00
C63    C     0.38605   0.63352   0.03451   0.00000  Uiso   1.00
C64    C     0.68005   0.52470   0.19906   0.00000  Uiso   1.00
C65    C     0.69046   0.37523   0.23109   0.00000  Uiso   1.00
C66    C     0.68456   0.40634   0.27990   0.00000  Uiso   1.00
C67    C     0.78331   0.65073   0.14640   0.00000  Uiso   1.00
C68    C     0.88055   0.60721   0.13416   0.00000  Uiso   1.00
C69    C     0.96161   0.74442   0.13865   0.00000  Uiso   1.00
H70    H     0.64277   0.97840   0.18652   0.00000  Uiso   1.00
H71    H     0.44141   0.02124   0.10810   0.00000  Uiso   1.00
H72    H     0.64622   0.86538   0.27646   0.00000  Uiso   1.00
H73    H     0.83628   0.09733   0.17954   0.00000  Uiso   1.00
H74    H     0.22510   0.99180   0.01405   0.00000  Uiso   1.00
H75    H     0.65699   0.66318   0.36905   0.00000  Uiso   1.00
H76    H     0.05778   0.15229   0.16469   0.00000  Uiso   1.00
H77    H     0.69626   0.38584   0.13166   0.00000  Uiso   1.00
H78    H     0.49784   0.39616   0.05022   0.00000  Uiso   1.00
H79    H     0.70265   0.24030   0.21859   0.00000  Uiso   1.00
H80    H     0.89271   0.47225   0.12167   0.00000  Uiso   1.00
H81    H     0.27089   0.48446   0.96708   0.00000  Uiso   1.00
H82    H     0.70279   0.15584   0.32208   0.00000  Uiso   1.00
H83    H     0.10357   0.64495   0.11772   0.00000  Uiso   1.00
O84    O     0.11648   0.75559   0.93800   0.00000  Uiso   1.00
O85    O     0.68313   0.32446   0.40375   0.00000  Uiso   1.00
O86    O     0.20895   0.96616   0.13563   0.00000  Uiso   1.00
N87    N     0.26312   0.87100   0.01416   0.00000  Uiso   1.00
N88    N     0.66689   0.56375   0.34607   0.00000  Uiso   1.00
N89    N     0.04161   0.02102   0.15502   0.00000  Uiso   1.00
N90    N     0.28776   0.59800   0.98889   0.00000  Uiso   1.00
N91    N     0.69153   0.29076   0.32079   0.00000  Uiso   1.00
N92    N     0.06625   0.74802   0.12974   0.00000  Uiso   1.00
C93    C     0.65502   0.15735   0.67394   0.00000  Uiso   1.00
C94    C     0.55304   0.21624   0.62373   0.00000  Uiso   1.00
C95    C     0.45357   0.11370   0.59559   0.00000  Uiso   1.00
C96    C     0.37028   0.19180   0.55068   0.00000  Uiso   1.00
C97    C     0.20951   0.25675   0.47518   0.00000  Uiso   1.00
C98    C     0.66431   0.30093   0.71520   0.00000  Uiso   1.00
C99    C     0.65840   0.26958   0.76397   0.00000  Uiso   1.00
C100   C     0.66879   0.41897   0.79607   0.00000  Uiso   1.00
C101   C     0.68085   0.61538   0.86259   0.00000  Uiso   1.00
C102   C     0.76756   0.17490   0.66254   0.00000  Uiso   1.00
C103   C     0.84850   0.03759   0.66705   0.00000  Uiso   1.00
C104   C     0.94584   0.08089   0.65482   0.00000  Uiso   1.00
C105   C     0.11822   0.08162   0.63958   0.00000  Uiso   1.00
C106   C     0.68400   0.47839   0.64422   0.00000  Uiso   1.00
C107   C     0.56879   0.39062   0.60759   0.00000  Uiso   1.00
C108   C     0.48563   0.46889   0.56271   0.00000  Uiso   1.00
C109   C     0.38605   0.36648   0.53451   0.00000  Uiso   1.00
C110   C     0.68005   0.47530   0.69906   0.00000  Uiso   1.00
C111   C     0.69046   0.62477   0.73109   0.00000  Uiso   1.00
C112   C     0.68456   0.59366   0.77990   0.00000  Uiso   1.00
C113   C     0.78331   0.34927   0.64640   0.00000  Uiso   1.00
C114   C     0.88055   0.39279   0.63416   0.00000  Uiso   1.00
C115   C     0.96161   0.25558   0.63865   0.00000  Uiso   1.00
H116   H     0.64277   0.02160   0.68652   0.00000  Uiso   1.00
H117   H     0.44141   0.97876   0.60810   0.00000  Uiso   1.00
H118   H     0.64622   0.13462   0.77646   0.00000  Uiso   1.00
H119   H     0.83628   0.90267   0.67954   0.00000  Uiso   1.00
H120   H     0.22510   0.00820   0.51405   0.00000  Uiso   1.00
H121   H     0.65699   0.33682   0.86905   0.00000  Uiso   1.00
H122   H     0.05778   0.84771   0.66469   0.00000  Uiso   1.00
H123   H     0.69626   0.61416   0.63166   0.00000  Uiso   1.00
H124   H     0.49784   0.60384   0.55022   0.00000  Uiso   1.00
H125   H     0.70265   0.75970   0.71859   0.00000  Uiso   1.00
H126   H     0.89271   0.52775   0.62167   0.00000  Uiso   1.00
H127   H     0.27089   0.51554   0.46708   0.00000  Uiso   1.00
H128   H     0.70279   0.84416   0.82208   0.00000  Uiso   1.00
H129   H     0.10357   0.35505   0.61772   0.00000  Uiso   1.00
O130   O     0.11648   0.24441   0.43800   0.00000  Uiso   1.00
O131   O     0.68313   0.67554   0.90375   0.00000  Uiso   1.00
O132   O     0.20895   0.03384   0.63563   0.00000  Uiso   1.00
N133   N     0.26312   0.12900   0.51416   0.00000  Uiso   1.00
N134   N     0.66689   0.43625   0.84607   0.00000  Uiso   1.00
N135   N     0.04161   0.97898   0.65502   0.00000  Uiso   1.00
N136   N     0.28776   0.40200   0.48889   0.00000  Uiso   1.00
N137   N     0.69153   0.70924   0.82079   0.00000  Uiso   1.00
N138   N     0.06625   0.25198   0.62974   0.00000  Uiso   1.00
C139   C     0.34498   0.15735   0.82606   0.00000  Uiso   1.00
C140   C     0.44696   0.21624   0.87627   0.00000  Uiso   1.00
C141   C     0.54643   0.11370   0.90441   0.00000  Uiso   1.00
C142   C     0.62972   0.19180   0.94932   0.00000  Uiso   1.00
C143   C     0.79049   0.25675   0.02482   0.00000  Uiso   1.00
C144   C     0.33569   0.30093   0.78480   0.00000  Uiso   1.00
C145   C     0.34160   0.26958   0.73603   0.00000  Uiso   1.00
C146   C     0.33121   0.41897   0.70393   0.00000  Uiso   1.00
C147   C     0.31915   0.61538   0.63741   0.00000  Uiso   1.00
C148   C     0.23244   0.17490   0.83746   0.00000  Uiso   1.00
C149   C     0.15150   0.03759   0.83295   0.00000  Uiso   1.00
C150   C     0.05416   0.08089   0.84518   0.00000  Uiso   1.00
C151   C     0.88178   0.08162   0.86042   0.00000  Uiso   1.00
C152   C     0.31600   0.47839   0.85578   0.00000  Uiso   1.00
C153   C     0.43121   0.39062   0.89241   0.00000  Uiso   1.00
C154   C     0.51437   0.46889   0.93729   0.00000  Uiso   1.00
C155   C     0.61395   0.36648   0.96549   0.00000  Uiso   1.00
C156   C     0.31995   0.47530   0.80094   0.00000  Uiso   1.00
C157   C     0.30954   0.62477   0.76891   0.00000  Uiso   1.00
C158   C     0.31544   0.59366   0.72010   0.00000  Uiso   1.00
C159   C     0.21669   0.34927   0.85360   0.00000  Uiso   1.00
C160   C     0.11945   0.39279   0.86584   0.00000  Uiso   1.00
C161   C     0.03839   0.25558   0.86135   0.00000  Uiso   1.00
H162   H     0.35723   0.02160   0.81348   0.00000  Uiso   1.00
H163   H     0.55859   0.97876   0.89190   0.00000  Uiso   1.00
H164   H     0.35378   0.13462   0.72354   0.00000  Uiso   1.00
H165   H     0.16372   0.90267   0.82046   0.00000  Uiso   1.00
H166   H     0.77490   0.00820   0.98595   0.00000  Uiso   1.00
H167   H     0.34301   0.33682   0.63095   0.00000  Uiso   1.00
H168   H     0.94222   0.84771   0.83531   0.00000  Uiso   1.00
H169   H     0.30374   0.61416   0.86834   0.00000  Uiso   1.00
H170   H     0.50216   0.60384   0.94978   0.00000  Uiso   1.00
H171   H     0.29735   0.75970   0.78141   0.00000  Uiso   1.00
H172   H     0.10729   0.52775   0.87833   0.00000  Uiso   1.00
H173   H     0.72911   0.51554   0.03292   0.00000  Uiso   1.00
H174   H     0.29721   0.84416   0.67792   0.00000  Uiso   1.00
H175   H     0.89643   0.35505   0.88228   0.00000  Uiso   1.00
O176   O     0.88352   0.24441   0.06200   0.00000  Uiso   1.00
O177   O     0.31687   0.67554   0.59625   0.00000  Uiso   1.00
O178   O     0.79105   0.03384   0.86437   0.00000  Uiso   1.00
N179   N     0.73688   0.12900   0.98584   0.00000  Uiso   1.00
N180   N     0.33311   0.43625   0.65393   0.00000  Uiso   1.00
N181   N     0.95839   0.97898   0.84498   0.00000  Uiso   1.00
N182   N     0.71224   0.40200   0.01111   0.00000  Uiso   1.00
N183   N     0.30847   0.70924   0.67921   0.00000  Uiso   1.00
N184   N     0.93375   0.25198   0.87026   0.00000  Uiso   1.00
