data_job_05547
_audit_creation_date              2018-12-19
_audit_creation_method            'Materials Studio'
_symmetry_space_group_name_H-M    'P1'
_symmetry_Int_Tables_number       1
_symmetry_cell_setting            triclinic
loop_
_symmetry_equiv_pos_as_xyz
  x,y,z
_cell_length_a                    12.0847
_cell_length_b                    12.0847
_cell_length_c                    38.5833
_cell_angle_alpha                 90.0000
_cell_angle_beta                  90.0000
_cell_angle_gamma                 90.0000
loop_
_atom_site_label
_atom_site_type_symbol
_atom_site_fract_x
_atom_site_fract_y
_atom_site_fract_z
_atom_site_U_iso_or_equiv
_atom_site_adp_type
_atom_site_occupancy
C1     C     0.69216   0.99444   0.64340   0.00000  Uiso   1.00
C2     C     0.70872   0.99271   0.60422   0.00000  Uiso   1.00
C3     C     0.80527   0.02118   0.58691   0.00000  Uiso   1.00
C4     C     0.80371   0.01414   0.55100   0.00000  Uiso   1.00
C5     C     0.84381   0.01672   0.49289   0.00000  Uiso   1.00
C6     C     0.59279   0.06934   0.64997   0.00000  Uiso   1.00
C7     C     0.59187   0.16221   0.67113   0.00000  Uiso   1.00
C8     C     0.49272   0.21966   0.67373   0.00000  Uiso   1.00
C9     C     0.35283   0.34115   0.68666   0.00000  Uiso   1.00
C10    C     0.65542   0.87803   0.65340   0.00000  Uiso   1.00
C11    C     0.70713   0.81006   0.67745   0.00000  Uiso   1.00
C12    C     0.66069   0.70644   0.68294   0.00000  Uiso   1.00
C13    C     0.61803   0.53090   0.70120   0.00000  Uiso   1.00
C14    C     0.51770   0.93131   0.61041   0.00000  Uiso   1.00
C15    C     0.61395   0.95843   0.58630   0.00000  Uiso   1.00
C16    C     0.61225   0.95133   0.55041   0.00000  Uiso   1.00
C17    C     0.70878   0.97978   0.53305   0.00000  Uiso   1.00
C18    C     0.49803   0.03505   0.63205   0.00000  Uiso   1.00
C19    C     0.39885   0.09237   0.63462   0.00000  Uiso   1.00
C20    C     0.39779   0.18531   0.65577   0.00000  Uiso   1.00
C21    C     0.56066   0.84373   0.63548   0.00000  Uiso   1.00
C22    C     0.51411   0.74021   0.64094   0.00000  Uiso   1.00
C23    C     0.56575   0.67209   0.66499   0.00000  Uiso   1.00
H24    H     0.76593   0.02115   0.65736   0.00000  Uiso   1.00
H25    H     0.87858   0.04772   0.60079   0.00000  Uiso   1.00
H26    H     0.66522   0.18872   0.68499   0.00000  Uiso   1.00
H27    H     0.78046   0.83662   0.69131   0.00000  Uiso   1.00
H28    H     0.96167   0.06211   0.53017   0.00000  Uiso   1.00
H29    H     0.51177   0.35939   0.70773   0.00000  Uiso   1.00
H30    H     0.75478   0.61692   0.72105   0.00000  Uiso   1.00
H31    H     0.44392   0.90461   0.59646   0.00000  Uiso   1.00
H32    H     0.53890   0.92479   0.53655   0.00000  Uiso   1.00
H33    H     0.32554   0.06580   0.62075   0.00000  Uiso   1.00
H34    H     0.44078   0.71370   0.62707   0.00000  Uiso   1.00
H35    H     0.68598   0.96234   0.47803   0.00000  Uiso   1.00
H36    H     0.23607   0.25963   0.65559   0.00000  Uiso   1.00
H37    H     0.47909   0.51715   0.66891   0.00000  Uiso   1.00
O38    O     0.89211   0.02764   0.46579   0.00000  Uiso   1.00
O39    O     0.30185   0.41765   0.69875   0.00000  Uiso   1.00
O40    O     0.62068   0.44354   0.71622   0.00000  Uiso   1.00
N41    N     0.88376   0.03584   0.52612   0.00000  Uiso   1.00
N42    N     0.46313   0.31379   0.69213   0.00000  Uiso   1.00
N43    N     0.69031   0.61965   0.70458   0.00000  Uiso   1.00
N44    N     0.73541   0.98215   0.49807   0.00000  Uiso   1.00
N45    N     0.31478   0.26011   0.66407   0.00000  Uiso   1.00
N46    N     0.54196   0.56596   0.67653   0.00000  Uiso   1.00
C47    C     0.30784   0.00556   0.14340   0.00000  Uiso   1.00
C48    C     0.29128   0.00729   0.10422   0.00000  Uiso   1.00
C49    C     0.19473   0.97882   0.08691   0.00000  Uiso   1.00
C50    C     0.19629   0.98586   0.05100   0.00000  Uiso   1.00
C51    C     0.15619   0.98328   0.99289   0.00000  Uiso   1.00
C52    C     0.40721   0.93066   0.14997   0.00000  Uiso   1.00
C53    C     0.40813   0.83779   0.17113   0.00000  Uiso   1.00
C54    C     0.50728   0.78034   0.17373   0.00000  Uiso   1.00
C55    C     0.64717   0.65885   0.18666   0.00000  Uiso   1.00
C56    C     0.34458   0.12197   0.15340   0.00000  Uiso   1.00
C57    C     0.29287   0.18994   0.17745   0.00000  Uiso   1.00
C58    C     0.33931   0.29356   0.18294   0.00000  Uiso   1.00
C59    C     0.38197   0.46910   0.20120   0.00000  Uiso   1.00
C60    C     0.48230   0.06869   0.11041   0.00000  Uiso   1.00
C61    C     0.38605   0.04157   0.08630   0.00000  Uiso   1.00
C62    C     0.38775   0.04867   0.05041   0.00000  Uiso   1.00
C63    C     0.29122   0.02022   0.03305   0.00000  Uiso   1.00
C64    C     0.50197   0.96495   0.13205   0.00000  Uiso   1.00
C65    C     0.60115   0.90763   0.13462   0.00000  Uiso   1.00
C66    C     0.60221   0.81469   0.15577   0.00000  Uiso   1.00
C67    C     0.43934   0.15627   0.13548   0.00000  Uiso   1.00
C68    C     0.48589   0.25979   0.14094   0.00000  Uiso   1.00
C69    C     0.43425   0.32791   0.16499   0.00000  Uiso   1.00
H70    H     0.23407   0.97885   0.15736   0.00000  Uiso   1.00
H71    H     0.12142   0.95228   0.10079   0.00000  Uiso   1.00
H72    H     0.33478   0.81128   0.18499   0.00000  Uiso   1.00
H73    H     0.21954   0.16338   0.19131   0.00000  Uiso   1.00
H74    H     0.03833   0.93789   0.03017   0.00000  Uiso   1.00
H75    H     0.48823   0.64061   0.20773   0.00000  Uiso   1.00
H76    H     0.24522   0.38308   0.22105   0.00000  Uiso   1.00
H77    H     0.55608   0.09539   0.09646   0.00000  Uiso   1.00
H78    H     0.46110   0.07521   0.03655   0.00000  Uiso   1.00
H79    H     0.67446   0.93420   0.12075   0.00000  Uiso   1.00
H80    H     0.55922   0.28630   0.12707   0.00000  Uiso   1.00
H81    H     0.31402   0.03766   0.97803   0.00000  Uiso   1.00
H82    H     0.76393   0.74037   0.15559   0.00000  Uiso   1.00
H83    H     0.52091   0.48285   0.16891   0.00000  Uiso   1.00
O84    O     0.10789   0.97236   0.96579   0.00000  Uiso   1.00
O85    O     0.69815   0.58235   0.19875   0.00000  Uiso   1.00
O86    O     0.37932   0.55646   0.21622   0.00000  Uiso   1.00
N87    N     0.11624   0.96416   0.02612   0.00000  Uiso   1.00
N88    N     0.53687   0.68621   0.19213   0.00000  Uiso   1.00
N89    N     0.30969   0.38035   0.20458   0.00000  Uiso   1.00
N90    N     0.26459   0.01785   0.99807   0.00000  Uiso   1.00
N91    N     0.68522   0.73989   0.16407   0.00000  Uiso   1.00
N92    N     0.45804   0.43404   0.17653   0.00000  Uiso   1.00
C93    C     0.00556   0.69216   0.89340   0.00000  Uiso   1.00
C94    C     0.00729   0.70872   0.85422   0.00000  Uiso   1.00
C95    C     0.97882   0.80527   0.83691   0.00000  Uiso   1.00
C96    C     0.98586   0.80371   0.80100   0.00000  Uiso   1.00
C97    C     0.98328   0.84381   0.74289   0.00000  Uiso   1.00
C98    C     0.93066   0.59279   0.89997   0.00000  Uiso   1.00
C99    C     0.83779   0.59187   0.92113   0.00000  Uiso   1.00
C100   C     0.78034   0.49272   0.92373   0.00000  Uiso   1.00
C101   C     0.65885   0.35283   0.93666   0.00000  Uiso   1.00
C102   C     0.12197   0.65542   0.90340   0.00000  Uiso   1.00
C103   C     0.18994   0.70713   0.92745   0.00000  Uiso   1.00
C104   C     0.29356   0.66069   0.93294   0.00000  Uiso   1.00
C105   C     0.46910   0.61803   0.95120   0.00000  Uiso   1.00
C106   C     0.06869   0.51770   0.86041   0.00000  Uiso   1.00
C107   C     0.04157   0.61395   0.83630   0.00000  Uiso   1.00
C108   C     0.04867   0.61225   0.80041   0.00000  Uiso   1.00
C109   C     0.02022   0.70878   0.78305   0.00000  Uiso   1.00
C110   C     0.96495   0.49803   0.88205   0.00000  Uiso   1.00
C111   C     0.90763   0.39885   0.88462   0.00000  Uiso   1.00
C112   C     0.81469   0.39779   0.90577   0.00000  Uiso   1.00
C113   C     0.15627   0.56066   0.88548   0.00000  Uiso   1.00
C114   C     0.25979   0.51411   0.89094   0.00000  Uiso   1.00
C115   C     0.32791   0.56575   0.91499   0.00000  Uiso   1.00
H116   H     0.97885   0.76593   0.90736   0.00000  Uiso   1.00
H117   H     0.95228   0.87858   0.85079   0.00000  Uiso   1.00
H118   H     0.81128   0.66522   0.93499   0.00000  Uiso   1.00
H119   H     0.16338   0.78046   0.94131   0.00000  Uiso   1.00
H120   H     0.93789   0.96167   0.78017   0.00000  Uiso   1.00
H121   H     0.64061   0.51177   0.95773   0.00000  Uiso   1.00
H122   H     0.38308   0.75478   0.97105   0.00000  Uiso   1.00
H123   H     0.09539   0.44392   0.84646   0.00000  Uiso   1.00
H124   H     0.07521   0.53890   0.78655   0.00000  Uiso   1.00
H125   H     0.93420   0.32554   0.87075   0.00000  Uiso   1.00
H126   H     0.28630   0.44078   0.87707   0.00000  Uiso   1.00
H127   H     0.03766   0.68598   0.72803   0.00000  Uiso   1.00
H128   H     0.74037   0.23607   0.90559   0.00000  Uiso   1.00
H129   H     0.48285   0.47909   0.91891   0.00000  Uiso   1.00
O130   O     0.97236   0.89211   0.71579   0.00000  Uiso   1.00
O131   O     0.58235   0.30185   0.94875   0.00000  Uiso   1.00
O132   O     0.55646   0.62068   0.96622   0.00000  Uiso   1.00
N133   N     0.96416   0.88376   0.77612   0.00000  Uiso   1.00
N134   N     0.68621   0.46313   0.94213   0.00000  Uiso   1.00
N135   N     0.38035   0.69031   0.95458   0.00000  Uiso   1.00
N136   N     0.01785   0.73541   0.74807   0.00000  Uiso   1.00
N137   N     0.73989   0.31478   0.91407   0.00000  Uiso   1.00
N138   N     0.43404   0.54196   0.92653   0.00000  Uiso   1.00
C139   C     0.99444   0.30784   0.39340   0.00000  Uiso   1.00
C140   C     0.99271   0.29128   0.35422   0.00000  Uiso   1.00
C141   C     0.02118   0.19473   0.33691   0.00000  Uiso   1.00
C142   C     0.01414   0.19629   0.30100   0.00000  Uiso   1.00
C143   C     0.01672   0.15619   0.24289   0.00000  Uiso   1.00
C144   C     0.06934   0.40721   0.39997   0.00000  Uiso   1.00
C145   C     0.16221   0.40813   0.42113   0.00000  Uiso   1.00
C146   C     0.21966   0.50728   0.42373   0.00000  Uiso   1.00
C147   C     0.34115   0.64717   0.43666   0.00000  Uiso   1.00
C148   C     0.87803   0.34458   0.40340   0.00000  Uiso   1.00
C149   C     0.81006   0.29287   0.42745   0.00000  Uiso   1.00
C150   C     0.70644   0.33931   0.43294   0.00000  Uiso   1.00
C151   C     0.53090   0.38197   0.45120   0.00000  Uiso   1.00
C152   C     0.93131   0.48230   0.36041   0.00000  Uiso   1.00
C153   C     0.95843   0.38605   0.33630   0.00000  Uiso   1.00
C154   C     0.95133   0.38775   0.30041   0.00000  Uiso   1.00
C155   C     0.97978   0.29122   0.28305   0.00000  Uiso   1.00
C156   C     0.03505   0.50197   0.38205   0.00000  Uiso   1.00
C157   C     0.09237   0.60115   0.38462   0.00000  Uiso   1.00
C158   C     0.18531   0.60221   0.40577   0.00000  Uiso   1.00
C159   C     0.84373   0.43934   0.38548   0.00000  Uiso   1.00
C160   C     0.74021   0.48589   0.39094   0.00000  Uiso   1.00
C161   C     0.67209   0.43425   0.41499   0.00000  Uiso   1.00
H162   H     0.02115   0.23407   0.40736   0.00000  Uiso   1.00
H163   H     0.04772   0.12142   0.35079   0.00000  Uiso   1.00
H164   H     0.18872   0.33478   0.43499   0.00000  Uiso   1.00
H165   H     0.83662   0.21954   0.44131   0.00000  Uiso   1.00
H166   H     0.06211   0.03833   0.28017   0.00000  Uiso   1.00
H167   H     0.35939   0.48823   0.45773   0.00000  Uiso   1.00
H168   H     0.61692   0.24522   0.47105   0.00000  Uiso   1.00
H169   H     0.90461   0.55608   0.34646   0.00000  Uiso   1.00
H170   H     0.92479   0.46110   0.28655   0.00000  Uiso   1.00
H171   H     0.06580   0.67446   0.37075   0.00000  Uiso   1.00
H172   H     0.71370   0.55922   0.37707   0.00000  Uiso   1.00
H173   H     0.96234   0.31402   0.22803   0.00000  Uiso   1.00
H174   H     0.25963   0.76393   0.40559   0.00000  Uiso   1.00
H175   H     0.51715   0.52091   0.41891   0.00000  Uiso   1.00
O176   O     0.02764   0.10789   0.21579   0.00000  Uiso   1.00
O177   O     0.41765   0.69815   0.44875   0.00000  Uiso   1.00
O178   O     0.44354   0.37932   0.46622   0.00000  Uiso   1.00
N179   N     0.03584   0.11624   0.27612   0.00000  Uiso   1.00
N180   N     0.31379   0.53687   0.44213   0.00000  Uiso   1.00
N181   N     0.61965   0.30969   0.45458   0.00000  Uiso   1.00
N182   N     0.98215   0.26459   0.24807   0.00000  Uiso   1.00
N183   N     0.26011   0.68522   0.41407   0.00000  Uiso   1.00
N184   N     0.56596   0.45804   0.42653   0.00000  Uiso   1.00
C185   C     0.30784   0.99444   0.35660   0.00000  Uiso   1.00
C186   C     0.29128   0.99271   0.39578   0.00000  Uiso   1.00
C187   C     0.19473   0.02118   0.41309   0.00000  Uiso   1.00
C188   C     0.19629   0.01414   0.44900   0.00000  Uiso   1.00
C189   C     0.15619   0.01672   0.50711   0.00000  Uiso   1.00
C190   C     0.40721   0.06934   0.35003   0.00000  Uiso   1.00
C191   C     0.40813   0.16221   0.32887   0.00000  Uiso   1.00
C192   C     0.50728   0.21966   0.32627   0.00000  Uiso   1.00
C193   C     0.64717   0.34115   0.31334   0.00000  Uiso   1.00
C194   C     0.34458   0.87803   0.34660   0.00000  Uiso   1.00
C195   C     0.29287   0.81006   0.32255   0.00000  Uiso   1.00
C196   C     0.33931   0.70644   0.31706   0.00000  Uiso   1.00
C197   C     0.38197   0.53090   0.29880   0.00000  Uiso   1.00
C198   C     0.48230   0.93131   0.38959   0.00000  Uiso   1.00
C199   C     0.38605   0.95843   0.41370   0.00000  Uiso   1.00
C200   C     0.38775   0.95133   0.44959   0.00000  Uiso   1.00
C201   C     0.29122   0.97978   0.46695   0.00000  Uiso   1.00
C202   C     0.50197   0.03505   0.36795   0.00000  Uiso   1.00
C203   C     0.60115   0.09237   0.36538   0.00000  Uiso   1.00
C204   C     0.60221   0.18531   0.34423   0.00000  Uiso   1.00
C205   C     0.43934   0.84373   0.36452   0.00000  Uiso   1.00
C206   C     0.48589   0.74021   0.35906   0.00000  Uiso   1.00
C207   C     0.43425   0.67209   0.33501   0.00000  Uiso   1.00
H208   H     0.23407   0.02115   0.34264   0.00000  Uiso   1.00
H209   H     0.12142   0.04772   0.39921   0.00000  Uiso   1.00
H210   H     0.33478   0.18872   0.31501   0.00000  Uiso   1.00
H211   H     0.21954   0.83662   0.30869   0.00000  Uiso   1.00
H212   H     0.03833   0.06211   0.46983   0.00000  Uiso   1.00
H213   H     0.48823   0.35939   0.29227   0.00000  Uiso   1.00
H214   H     0.24522   0.61692   0.27895   0.00000  Uiso   1.00
H215   H     0.55608   0.90461   0.40354   0.00000  Uiso   1.00
H216   H     0.46110   0.92479   0.46345   0.00000  Uiso   1.00
H217   H     0.67446   0.06580   0.37925   0.00000  Uiso   1.00
H218   H     0.55922   0.71370   0.37293   0.00000  Uiso   1.00
H219   H     0.31402   0.96234   0.52197   0.00000  Uiso   1.00
H220   H     0.76393   0.25963   0.34441   0.00000  Uiso   1.00
H221   H     0.52091   0.51715   0.33109   0.00000  Uiso   1.00
O222   O     0.10789   0.02764   0.53421   0.00000  Uiso   1.00
O223   O     0.69815   0.41765   0.30125   0.00000  Uiso   1.00
O224   O     0.37932   0.44354   0.28378   0.00000  Uiso   1.00
N225   N     0.11624   0.03584   0.47388   0.00000  Uiso   1.00
N226   N     0.53687   0.31379   0.30787   0.00000  Uiso   1.00
N227   N     0.30969   0.61965   0.29542   0.00000  Uiso   1.00
N228   N     0.26459   0.98215   0.50193   0.00000  Uiso   1.00
N229   N     0.68522   0.26011   0.33593   0.00000  Uiso   1.00
N230   N     0.45804   0.56596   0.32347   0.00000  Uiso   1.00
C231   C     0.69216   0.00556   0.85660   0.00000  Uiso   1.00
C232   C     0.70872   0.00729   0.89578   0.00000  Uiso   1.00
C233   C     0.80527   0.97882   0.91309   0.00000  Uiso   1.00
C234   C     0.80371   0.98586   0.94900   0.00000  Uiso   1.00
C235   C     0.84381   0.98328   0.00711   0.00000  Uiso   1.00
C236   C     0.59279   0.93066   0.85003   0.00000  Uiso   1.00
C237   C     0.59187   0.83779   0.82887   0.00000  Uiso   1.00
C238   C     0.49272   0.78034   0.82627   0.00000  Uiso   1.00
C239   C     0.35283   0.65885   0.81334   0.00000  Uiso   1.00
C240   C     0.65542   0.12197   0.84660   0.00000  Uiso   1.00
C241   C     0.70713   0.18994   0.82255   0.00000  Uiso   1.00
C242   C     0.66069   0.29356   0.81706   0.00000  Uiso   1.00
C243   C     0.61803   0.46910   0.79880   0.00000  Uiso   1.00
C244   C     0.51770   0.06869   0.88959   0.00000  Uiso   1.00
C245   C     0.61395   0.04157   0.91370   0.00000  Uiso   1.00
C246   C     0.61225   0.04867   0.94959   0.00000  Uiso   1.00
C247   C     0.70878   0.02022   0.96695   0.00000  Uiso   1.00
C248   C     0.49803   0.96495   0.86795   0.00000  Uiso   1.00
C249   C     0.39885   0.90763   0.86538   0.00000  Uiso   1.00
C250   C     0.39779   0.81469   0.84423   0.00000  Uiso   1.00
C251   C     0.56066   0.15627   0.86452   0.00000  Uiso   1.00
C252   C     0.51411   0.25979   0.85906   0.00000  Uiso   1.00
C253   C     0.56575   0.32791   0.83501   0.00000  Uiso   1.00
H254   H     0.76593   0.97885   0.84264   0.00000  Uiso   1.00
H255   H     0.87858   0.95228   0.89921   0.00000  Uiso   1.00
H256   H     0.66522   0.81128   0.81501   0.00000  Uiso   1.00
H257   H     0.78046   0.16338   0.80869   0.00000  Uiso   1.00
H258   H     0.96167   0.93789   0.96983   0.00000  Uiso   1.00
H259   H     0.51177   0.64061   0.79227   0.00000  Uiso   1.00
H260   H     0.75478   0.38308   0.77895   0.00000  Uiso   1.00
H261   H     0.44392   0.09539   0.90354   0.00000  Uiso   1.00
H262   H     0.53890   0.07521   0.96345   0.00000  Uiso   1.00
H263   H     0.32554   0.93420   0.87925   0.00000  Uiso   1.00
H264   H     0.44078   0.28630   0.87293   0.00000  Uiso   1.00
H265   H     0.68598   0.03766   0.02197   0.00000  Uiso   1.00
H266   H     0.23607   0.74037   0.84441   0.00000  Uiso   1.00
H267   H     0.47909   0.48285   0.83109   0.00000  Uiso   1.00
O268   O     0.89211   0.97236   0.03421   0.00000  Uiso   1.00
O269   O     0.30185   0.58235   0.80125   0.00000  Uiso   1.00
O270   O     0.62068   0.55646   0.78378   0.00000  Uiso   1.00
N271   N     0.88376   0.96416   0.97388   0.00000  Uiso   1.00
N272   N     0.46313   0.68621   0.80787   0.00000  Uiso   1.00
N273   N     0.69031   0.38035   0.79542   0.00000  Uiso   1.00
N274   N     0.73541   0.01785   0.00193   0.00000  Uiso   1.00
N275   N     0.31478   0.73989   0.83593   0.00000  Uiso   1.00
N276   N     0.54196   0.43404   0.82347   0.00000  Uiso   1.00
C277   C     0.99444   0.69216   0.10660   0.00000  Uiso   1.00
C278   C     0.99271   0.70872   0.14578   0.00000  Uiso   1.00
C279   C     0.02118   0.80527   0.16309   0.00000  Uiso   1.00
C280   C     0.01414   0.80371   0.19900   0.00000  Uiso   1.00
C281   C     0.01672   0.84381   0.25711   0.00000  Uiso   1.00
C282   C     0.06934   0.59279   0.10003   0.00000  Uiso   1.00
C283   C     0.16221   0.59187   0.07887   0.00000  Uiso   1.00
C284   C     0.21966   0.49272   0.07627   0.00000  Uiso   1.00
C285   C     0.34115   0.35283   0.06334   0.00000  Uiso   1.00
C286   C     0.87803   0.65542   0.09660   0.00000  Uiso   1.00
C287   C     0.81006   0.70713   0.07255   0.00000  Uiso   1.00
C288   C     0.70644   0.66069   0.06706   0.00000  Uiso   1.00
C289   C     0.53090   0.61803   0.04880   0.00000  Uiso   1.00
C290   C     0.93131   0.51770   0.13959   0.00000  Uiso   1.00
C291   C     0.95843   0.61395   0.16370   0.00000  Uiso   1.00
C292   C     0.95133   0.61225   0.19959   0.00000  Uiso   1.00
C293   C     0.97978   0.70878   0.21695   0.00000  Uiso   1.00
C294   C     0.03505   0.49803   0.11795   0.00000  Uiso   1.00
C295   C     0.09237   0.39885   0.11538   0.00000  Uiso   1.00
C296   C     0.18531   0.39779   0.09423   0.00000  Uiso   1.00
C297   C     0.84373   0.56066   0.11452   0.00000  Uiso   1.00
C298   C     0.74021   0.51411   0.10906   0.00000  Uiso   1.00
C299   C     0.67209   0.56575   0.08501   0.00000  Uiso   1.00
H300   H     0.02115   0.76593   0.09264   0.00000  Uiso   1.00
H301   H     0.04772   0.87858   0.14921   0.00000  Uiso   1.00
H302   H     0.18872   0.66522   0.06501   0.00000  Uiso   1.00
H303   H     0.83662   0.78046   0.05869   0.00000  Uiso   1.00
H304   H     0.06211   0.96167   0.21983   0.00000  Uiso   1.00
H305   H     0.35939   0.51177   0.04227   0.00000  Uiso   1.00
H306   H     0.61692   0.75478   0.02895   0.00000  Uiso   1.00
H307   H     0.90461   0.44392   0.15354   0.00000  Uiso   1.00
H308   H     0.92479   0.53890   0.21345   0.00000  Uiso   1.00
H309   H     0.06580   0.32554   0.12925   0.00000  Uiso   1.00
H310   H     0.71370   0.44078   0.12293   0.00000  Uiso   1.00
H311   H     0.96234   0.68598   0.27197   0.00000  Uiso   1.00
H312   H     0.25963   0.23607   0.09441   0.00000  Uiso   1.00
H313   H     0.51715   0.47909   0.08109   0.00000  Uiso   1.00
O314   O     0.02764   0.89211   0.28421   0.00000  Uiso   1.00
O315   O     0.41765   0.30185   0.05125   0.00000  Uiso   1.00
O316   O     0.44354   0.62068   0.03378   0.00000  Uiso   1.00
N317   N     0.03584   0.88376   0.22388   0.00000  Uiso   1.00
N318   N     0.31379   0.46313   0.05787   0.00000  Uiso   1.00
N319   N     0.61965   0.69031   0.04542   0.00000  Uiso   1.00
N320   N     0.98215   0.73541   0.25193   0.00000  Uiso   1.00
N321   N     0.26011   0.31478   0.08593   0.00000  Uiso   1.00
N322   N     0.56596   0.54196   0.07347   0.00000  Uiso   1.00
C323   C     0.00556   0.30784   0.60660   0.00000  Uiso   1.00
C324   C     0.00729   0.29128   0.64578   0.00000  Uiso   1.00
C325   C     0.97882   0.19473   0.66309   0.00000  Uiso   1.00
C326   C     0.98586   0.19629   0.69900   0.00000  Uiso   1.00
C327   C     0.98328   0.15619   0.75711   0.00000  Uiso   1.00
C328   C     0.93066   0.40721   0.60003   0.00000  Uiso   1.00
C329   C     0.83779   0.40813   0.57887   0.00000  Uiso   1.00
C330   C     0.78034   0.50728   0.57627   0.00000  Uiso   1.00
C331   C     0.65885   0.64717   0.56334   0.00000  Uiso   1.00
C332   C     0.12197   0.34458   0.59660   0.00000  Uiso   1.00
C333   C     0.18994   0.29287   0.57255   0.00000  Uiso   1.00
C334   C     0.29356   0.33931   0.56706   0.00000  Uiso   1.00
C335   C     0.46910   0.38197   0.54880   0.00000  Uiso   1.00
C336   C     0.06869   0.48230   0.63959   0.00000  Uiso   1.00
C337   C     0.04157   0.38605   0.66370   0.00000  Uiso   1.00
C338   C     0.04867   0.38775   0.69959   0.00000  Uiso   1.00
C339   C     0.02022   0.29122   0.71695   0.00000  Uiso   1.00
C340   C     0.96495   0.50197   0.61795   0.00000  Uiso   1.00
C341   C     0.90763   0.60115   0.61538   0.00000  Uiso   1.00
C342   C     0.81469   0.60221   0.59423   0.00000  Uiso   1.00
C343   C     0.15627   0.43934   0.61452   0.00000  Uiso   1.00
C344   C     0.25979   0.48589   0.60906   0.00000  Uiso   1.00
C345   C     0.32791   0.43425   0.58501   0.00000  Uiso   1.00
H346   H     0.97885   0.23407   0.59264   0.00000  Uiso   1.00
H347   H     0.95228   0.12142   0.64921   0.00000  Uiso   1.00
H348   H     0.81128   0.33478   0.56501   0.00000  Uiso   1.00
H349   H     0.16338   0.21954   0.55869   0.00000  Uiso   1.00
H350   H     0.93789   0.03833   0.71983   0.00000  Uiso   1.00
H351   H     0.64061   0.48823   0.54227   0.00000  Uiso   1.00
H352   H     0.38308   0.24522   0.52895   0.00000  Uiso   1.00
H353   H     0.09539   0.55608   0.65354   0.00000  Uiso   1.00
H354   H     0.07521   0.46110   0.71345   0.00000  Uiso   1.00
H355   H     0.93420   0.67446   0.62925   0.00000  Uiso   1.00
H356   H     0.28630   0.55922   0.62293   0.00000  Uiso   1.00
H357   H     0.03766   0.31402   0.77197   0.00000  Uiso   1.00
H358   H     0.74037   0.76393   0.59441   0.00000  Uiso   1.00
H359   H     0.48285   0.52091   0.58109   0.00000  Uiso   1.00
O360   O     0.97236   0.10789   0.78421   0.00000  Uiso   1.00
O361   O     0.58235   0.69815   0.55125   0.00000  Uiso   1.00
O362   O     0.55646   0.37932   0.53378   0.00000  Uiso   1.00
N363   N     0.96416   0.11624   0.72388   0.00000  Uiso   1.00
N364   N     0.68621   0.53687   0.55787   0.00000  Uiso   1.00
N365   N     0.38035   0.30969   0.54542   0.00000  Uiso   1.00
N366   N     0.01785   0.26459   0.75193   0.00000  Uiso   1.00
N367   N     0.73989   0.68522   0.58593   0.00000  Uiso   1.00
N368   N     0.43404   0.45804   0.57347   0.00000  Uiso   1.00
