data_job_06664
_audit_creation_date              2018-12-19
_audit_creation_method            'Materials Studio'
_symmetry_space_group_name_H-M    'P1'
_symmetry_Int_Tables_number       1
_symmetry_cell_setting            triclinic
loop_
_symmetry_equiv_pos_as_xyz
  x,y,z
_cell_length_a                    19.6782
_cell_length_b                    24.2133
_cell_length_c                    24.5948
_cell_angle_alpha                 67.7951
_cell_angle_beta                  81.9101
_cell_angle_gamma                 101.4883
loop_
_atom_site_label
_atom_site_type_symbol
_atom_site_fract_x
_atom_site_fract_y
_atom_site_fract_z
_atom_site_U_iso_or_equiv
_atom_site_adp_type
_atom_site_occupancy
C1     C     0.26879   0.02878   0.52027   0.00000  Uiso   1.00
C2     C     0.25603   0.98287   0.58594   0.00000  Uiso   1.00
C3     C     0.18991   0.94751   0.62474   0.00000  Uiso   1.00
C4     C     0.18954   0.90827   0.68312   0.00000  Uiso   1.00
C5     C     0.16006   0.83758   0.78225   0.00000  Uiso   1.00
C6     C     0.31227   0.09074   0.51554   0.00000  Uiso   1.00
C7     C     0.29344   0.14607   0.49514   0.00000  Uiso   1.00
C8     C     0.34043   0.19763   0.49424   0.00000  Uiso   1.00
C9     C     0.39829   0.29441   0.48403   0.00000  Uiso   1.00
C10    C     0.31821   0.00805   0.48308   0.00000  Uiso   1.00
C11    C     0.30439   0.99388   0.43536   0.00000  Uiso   1.00
C12    C     0.35639   0.97583   0.40712   0.00000  Uiso   1.00
C13    C     0.42348   0.94423   0.34650   0.00000  Uiso   1.00
C14    C     0.38573   0.02196   0.55494   0.00000  Uiso   1.00
C15    C     0.31955   0.97917   0.60478   0.00000  Uiso   1.00
C16    C     0.31929   0.93997   0.66311   0.00000  Uiso   1.00
C17    C     0.25318   0.90456   0.70199   0.00000  Uiso   1.00
C18    C     0.37579   0.08704   0.53438   0.00000  Uiso   1.00
C19    C     0.42282   0.13853   0.53351   0.00000  Uiso   1.00
C20    C     0.40406   0.19392   0.51311   0.00000  Uiso   1.00
C21    C     0.38173   0.00435   0.50191   0.00000  Uiso   1.00
C22    C     0.43377   0.98633   0.47374   0.00000  Uiso   1.00
C23    C     0.42002   0.97212   0.42599   0.00000  Uiso   1.00
H24    H     0.21934   0.03166   0.50560   0.00000  Uiso   1.00
H25    H     0.14076   0.95040   0.61015   0.00000  Uiso   1.00
H26    H     0.24428   0.14892   0.48056   0.00000  Uiso   1.00
H27    H     0.25523   0.99675   0.42080   0.00000  Uiso   1.00
H28    H     0.08165   0.85868   0.73438   0.00000  Uiso   1.00
H29    H     0.29995   0.27729   0.46111   0.00000  Uiso   1.00
H30    H     0.32302   0.95640   0.33509   0.00000  Uiso   1.00
H31    H     0.43519   0.01908   0.56961   0.00000  Uiso   1.00
H32    H     0.36845   0.93712   0.67768   0.00000  Uiso   1.00
H33    H     0.47197   0.13565   0.54809   0.00000  Uiso   1.00
H34    H     0.48291   0.98347   0.48832   0.00000  Uiso   1.00
H35    H     0.26645   0.84791   0.78919   0.00000  Uiso   1.00
H36    H     0.48475   0.26652   0.51591   0.00000  Uiso   1.00
H37    H     0.50782   0.94562   0.38990   0.00000  Uiso   1.00
O38    O     0.12625   0.79962   0.83172   0.00000  Uiso   1.00
O39    O     0.41265   0.34882   0.47319   0.00000  Uiso   1.00
O40    O     0.44293   0.92781   0.30786   0.00000  Uiso   1.00
N41    N     0.13430   0.86739   0.73244   0.00000  Uiso   1.00
N42    N     0.33839   0.25876   0.47696   0.00000  Uiso   1.00
N43    N     0.35997   0.95877   0.35913   0.00000  Uiso   1.00
N44    N     0.23374   0.86159   0.76193   0.00000  Uiso   1.00
N45    N     0.43783   0.25296   0.50645   0.00000  Uiso   1.00
N46    N     0.45941   0.95297   0.38862   0.00000  Uiso   1.00
C47    C     0.07511   0.04540   0.95378   0.00000  Uiso   1.00
C48    C     0.08051   0.02953   0.89922   0.00000  Uiso   1.00
C49    C     0.02489   0.99539   0.88610   0.00000  Uiso   1.00
C50    C     0.04072   0.98592   0.83403   0.00000  Uiso   1.00
C51    C     0.03863   0.95763   0.75504   0.00000  Uiso   1.00
C52    C     0.13045   0.02081   0.98635   0.00000  Uiso   1.00
C53    C     0.11683   0.97935   0.04648   0.00000  Uiso   1.00
C54    C     0.17470   0.96254   0.06776   0.00000  Uiso   1.00
C55    C     0.25015   0.92075   0.12404   0.00000  Uiso   1.00
C56    C     0.10140   0.11593   0.92840   0.00000  Uiso   1.00
C57    C     0.06336   0.15444   0.93983   0.00000  Uiso   1.00
C58    C     0.09678   0.21772   0.91233   0.00000  Uiso   1.00
C59    C     0.12712   0.32361   0.87865   0.00000  Uiso   1.00
C60    C     0.20212   0.08929   0.88464   0.00000  Uiso   1.00
C61    C     0.14950   0.05337   0.86167   0.00000  Uiso   1.00
C62    C     0.16542   0.04395   0.80961   0.00000  Uiso   1.00
C63    C     0.10983   0.00981   0.79641   0.00000  Uiso   1.00
C64    C     0.19944   0.04465   0.94880   0.00000  Uiso   1.00
C65    C     0.25735   0.02791   0.96999   0.00000  Uiso   1.00
C66    C     0.24381   0.98643   0.03014   0.00000  Uiso   1.00
C67    C     0.17039   0.13977   0.89085   0.00000  Uiso   1.00
C68    C     0.20388   0.20301   0.86333   0.00000  Uiso   1.00
C69    C     0.16589   0.24161   0.87471   0.00000  Uiso   1.00
H70    H     0.02140   0.02684   0.98302   0.00000  Uiso   1.00
H71    H     0.97151   0.97694   0.91518   0.00000  Uiso   1.00
H72    H     0.06343   0.96091   0.07553   0.00000  Uiso   1.00
H73    H     0.00997   0.13598   0.96889   0.00000  Uiso   1.00
H74    H     0.94664   0.93212   0.82341   0.00000  Uiso   1.00
H75    H     0.14046   0.89833   0.16153   0.00000  Uiso   1.00
H76    H     0.02772   0.26749   0.93667   0.00000  Uiso   1.00
H77    H     0.25583   0.10786   0.85541   0.00000  Uiso   1.00
H78    H     0.21881   0.06241   0.78056   0.00000  Uiso   1.00
H79    H     0.31073   0.04637   0.94091   0.00000  Uiso   1.00
H80    H     0.25727   0.22144   0.83427   0.00000  Uiso   1.00
H81    H     0.14735   0.00149   0.71415   0.00000  Uiso   1.00
H82    H     0.34117   0.96770   0.05227   0.00000  Uiso   1.00
H83    H     0.22844   0.33686   0.82740   0.00000  Uiso   1.00
O84    O     0.01842   0.93543   0.72185   0.00000  Uiso   1.00
O85    O     0.27270   0.89110   0.16546   0.00000  Uiso   1.00
O86    O     0.12479   0.37544   0.87044   0.00000  Uiso   1.00
N87    N     0.99895   0.95469   0.80796   0.00000  Uiso   1.00
N88    N     0.18016   0.92309   0.12408   0.00000  Uiso   1.00
N89    N     0.07477   0.26823   0.91386   0.00000  Uiso   1.00
N90    N     0.10696   0.99202   0.74917   0.00000  Uiso   1.00
N91    N     0.28816   0.96042   0.06529   0.00000  Uiso   1.00
N92    N     0.18277   0.30555   0.85507   0.00000  Uiso   1.00
C93    C     0.18556   0.52285   0.02895   0.00000  Uiso   1.00
C94    C     0.14510   0.57131   0.02479   0.00000  Uiso   1.00
C95    C     0.08311   0.57379   0.00428   0.00000  Uiso   1.00
C96    C     0.05430   0.62177   0.00396   0.00000  Uiso   1.00
C97    C     0.98662   0.69036   0.99450   0.00000  Uiso   1.00
C98    C     0.26164   0.55891   0.99203   0.00000  Uiso   1.00
C99    C     0.29762   0.55095   0.94398   0.00000  Uiso   1.00
C100   C     0.36692   0.58848   0.91609   0.00000  Uiso   1.00
C101   C     0.48017   0.63777   0.85580   0.00000  Uiso   1.00
C102   C     0.19043   0.49372   0.09462   0.00000  Uiso   1.00
C103   C     0.16657   0.43094   0.13283   0.00000  Uiso   1.00
C104   C     0.17593   0.41358   0.19131   0.00000  Uiso   1.00
C105   C     0.17864   0.36165   0.29032   0.00000  Uiso   1.00
C106   C     0.24464   0.60365   0.06485   0.00000  Uiso   1.00
C107   C     0.17720   0.61520   0.04429   0.00000  Uiso   1.00
C108   C     0.14848   0.66319   0.04400   0.00000  Uiso   1.00
C109   C     0.08645   0.66574   0.02349   0.00000  Uiso   1.00
C110   C     0.29373   0.60279   0.01153   0.00000  Uiso   1.00
C111   C     0.36299   0.64034   0.98370   0.00000  Uiso   1.00
C112   C     0.39907   0.63244   0.93562   0.00000  Uiso   1.00
C113   C     0.22252   0.53760   0.11413   0.00000  Uiso   1.00
C114   C     0.23193   0.52033   0.17256   0.00000  Uiso   1.00
C115   C     0.20808   0.45754   0.21085   0.00000  Uiso   1.00
H116   H     0.16058   0.48869   0.01376   0.00000  Uiso   1.00
H117   H     0.05829   0.53982   0.98918   0.00000  Uiso   1.00
H118   H     0.27277   0.51698   0.92890   0.00000  Uiso   1.00
H119   H     0.14174   0.39699   0.11773   0.00000  Uiso   1.00
H120   H     0.95905   0.61589   0.97052   0.00000  Uiso   1.00
H121   H     0.41131   0.56769   0.84342   0.00000  Uiso   1.00
H122   H     0.13500   0.31467   0.24159   0.00000  Uiso   1.00
H123   H     0.26963   0.63782   0.08003   0.00000  Uiso   1.00
H124   H     0.17332   0.69714   0.05909   0.00000  Uiso   1.00
H125   H     0.38781   0.67430   0.99881   0.00000  Uiso   1.00
H126   H     0.25677   0.55431   0.18763   0.00000  Uiso   1.00
H127   H     0.05242   0.74357   0.02725   0.00000  Uiso   1.00
H128   H     0.50468   0.69538   0.90016   0.00000  Uiso   1.00
H129   H     0.22836   0.44236   0.29833   0.00000  Uiso   1.00
O130   O     0.94043   0.71607   0.98389   0.00000  Uiso   1.00
O131   O     0.53377   0.65284   0.81716   0.00000  Uiso   1.00
O132   O     0.17126   0.32089   0.33955   0.00000  Uiso   1.00
N133   N     0.99424   0.63779   0.98675   0.00000  Uiso   1.00
N134   N     0.41706   0.59274   0.86792   0.00000  Uiso   1.00
N135   N     0.15875   0.35619   0.24017   0.00000  Uiso   1.00
N136   N     0.04448   0.70650   0.01728   0.00000  Uiso   1.00
N137   N     0.46730   0.66145   0.89845   0.00000  Uiso   1.00
N138   N     0.20899   0.42489   0.27070   0.00000  Uiso   1.00
C139   C     0.50621   0.64598   0.28042   0.00000  Uiso   1.00
C140   C     0.53184   0.66452   0.21288   0.00000  Uiso   1.00
C141   C     0.48840   0.66271   0.17342   0.00000  Uiso   1.00
C142   C     0.52216   0.68160   0.11331   0.00000  Uiso   1.00
C143   C     0.55063   0.70739   0.01146   0.00000  Uiso   1.00
C144   C     0.53908   0.70237   0.29125   0.00000  Uiso   1.00
C145   C     0.50172   0.73237   0.31769   0.00000  Uiso   1.00
C146   C     0.54158   0.78311   0.32356   0.00000  Uiso   1.00
C147   C     0.58129   0.86763   0.34342   0.00000  Uiso   1.00
C148   C     0.54174   0.59624   0.31207   0.00000  Uiso   1.00
C149   C     0.50662   0.53701   0.35602   0.00000  Uiso   1.00
C150   C     0.54873   0.49840   0.37942   0.00000  Uiso   1.00
C151   C     0.59257   0.41814   0.43160   0.00000  Uiso   1.00
C152   C     0.64344   0.68274   0.24385   0.00000  Uiso   1.00
C153   C     0.60638   0.68449   0.19302   0.00000  Uiso   1.00
C154   C     0.64023   0.70339   0.13296   0.00000  Uiso   1.00
C155   C     0.59684   0.70160   0.09341   0.00000  Uiso   1.00
C156   C     0.61362   0.72234   0.27139   0.00000  Uiso   1.00
C157   C     0.65355   0.77304   0.27723   0.00000  Uiso   1.00
C158   C     0.61625   0.80312   0.30366   0.00000  Uiso   1.00
C159   C     0.61628   0.61621   0.29221   0.00000  Uiso   1.00
C160   C     0.65845   0.57769   0.31555   0.00000  Uiso   1.00
C161   C     0.62340   0.51841   0.35952   0.00000  Uiso   1.00
H162   H     0.44818   0.63043   0.29589   0.00000  Uiso   1.00
H163   H     0.43071   0.64726   0.18881   0.00000  Uiso   1.00
H164   H     0.44404   0.71690   0.33306   0.00000  Uiso   1.00
H165   H     0.44894   0.52157   0.37138   0.00000  Uiso   1.00
H166   H     0.44422   0.67474   0.06133   0.00000  Uiso   1.00
H167   H     0.47231   0.82157   0.36551   0.00000  Uiso   1.00
H168   H     0.48265   0.40968   0.44631   0.00000  Uiso   1.00
H169   H     0.70148   0.69829   0.22839   0.00000  Uiso   1.00
H170   H     0.69791   0.71884   0.11760   0.00000  Uiso   1.00
H171   H     0.71123   0.78848   0.26186   0.00000  Uiso   1.00
H172   H     0.71613   0.59316   0.30017   0.00000  Uiso   1.00
H173   H     0.66109   0.73284   0.00353   0.00000  Uiso   1.00
H174   H     0.68918   0.87967   0.30772   0.00000  Uiso   1.00
H175   H     0.69952   0.46779   0.38852   0.00000  Uiso   1.00
O176   O     0.54574   0.71610   0.96076   0.00000  Uiso   1.00
O177   O     0.58259   0.90873   0.35985   0.00000  Uiso   1.00
O178   O     0.59616   0.36835   0.46585   0.00000  Uiso   1.00
N179   N     0.49575   0.68558   0.06293   0.00000  Uiso   1.00
N180   N     0.52201   0.82287   0.34731   0.00000  Uiso   1.00
N181   N     0.53168   0.43779   0.42287   0.00000  Uiso   1.00
N182   N     0.61244   0.71685   0.03183   0.00000  Uiso   1.00
N183   N     0.63871   0.85413   0.31622   0.00000  Uiso   1.00
N184   N     0.64837   0.46906   0.39177   0.00000  Uiso   1.00
C185   C     0.68793   0.19088   0.67710   0.00000  Uiso   1.00
C186   C     0.66988   0.12315   0.72206   0.00000  Uiso   1.00
C187   C     0.61579   0.07498   0.72472   0.00000  Uiso   1.00
C188   C     0.60789   0.01631   0.76915   0.00000  Uiso   1.00
C189   C     0.57310   0.91266   0.83281   0.00000  Uiso   1.00
C190   C     0.76642   0.20867   0.64517   0.00000  Uiso   1.00
C191   C     0.79348   0.23243   0.58317   0.00000  Uiso   1.00
C192   C     0.86685   0.24576   0.56287   0.00000  Uiso   1.00
C193   C     0.98193   0.27495   0.50714   0.00000  Uiso   1.00
C194   C     0.68383   0.22810   0.71492   0.00000  Uiso   1.00
C195   C     0.64147   0.26821   0.71155   0.00000  Uiso   1.00
C196   C     0.64533   0.29791   0.74997   0.00000  Uiso   1.00
C197   C     0.63218   0.35726   0.80255   0.00000  Uiso   1.00
C198   C     0.77012   0.17232   0.75129   0.00000  Uiso   1.00
C199   C     0.71453   0.11307   0.76236   0.00000  Uiso   1.00
C200   C     0.70672   0.05445   0.80680   0.00000  Uiso   1.00
C201   C     0.65261   0.00621   0.80952   0.00000  Uiso   1.00
C202   C     0.81106   0.19860   0.68546   0.00000  Uiso   1.00
C203   C     0.88441   0.21190   0.66525   0.00000  Uiso   1.00
C204   C     0.91157   0.23567   0.60324   0.00000  Uiso   1.00
C205   C     0.72847   0.21802   0.75522   0.00000  Uiso   1.00
C206   C     0.73240   0.24768   0.79364   0.00000  Uiso   1.00
C207   C     0.69005   0.28782   0.79034   0.00000  Uiso   1.00
H208   H     0.65318   0.19873   0.64573   0.00000  Uiso   1.00
H209   H     0.58125   0.08280   0.69352   0.00000  Uiso   1.00
H210   H     0.75892   0.24023   0.55199   0.00000  Uiso   1.00
H211   H     0.60693   0.27600   0.68036   0.00000  Uiso   1.00
H212   H     0.52121   0.94982   0.76426   0.00000  Uiso   1.00
H213   H     0.89583   0.28179   0.46585   0.00000  Uiso   1.00
H214   H     0.57534   0.35722   0.73654   0.00000  Uiso   1.00
H215   H     0.80488   0.16448   0.78267   0.00000  Uiso   1.00
H216   H     0.74127   0.04667   0.83798   0.00000  Uiso   1.00
H217   H     0.91894   0.20410   0.69645   0.00000  Uiso   1.00
H218   H     0.76695   0.23987   0.82482   0.00000  Uiso   1.00
H219   H     0.65109   0.92050   0.88151   0.00000  Uiso   1.00
H220   H     0.02571   0.25247   0.58309   0.00000  Uiso   1.00
H221   H     0.70521   0.32790   0.85379   0.00000  Uiso   1.00
O222   O     0.54158   0.85828   0.85679   0.00000  Uiso   1.00
O223   O     0.03307   0.29382   0.46527   0.00000  Uiso   1.00
O224   O     0.61259   0.39277   0.82042   0.00000  Uiso   1.00
N225   N     0.56050   0.95909   0.78428   0.00000  Uiso   1.00
N226   N     0.91074   0.26946   0.50527   0.00000  Uiso   1.00
N227   N     0.61112   0.33999   0.75834   0.00000  Uiso   1.00
N228   N     0.63038   0.94331   0.84737   0.00000  Uiso   1.00
N229   N     0.98063   0.25367   0.56836   0.00000  Uiso   1.00
N230   N     0.68101   0.32421   0.82143   0.00000  Uiso   1.00
C231   C     0.78999   0.73282   0.67397   0.00000  Uiso   1.00
C232   C     0.75258   0.78141   0.67689   0.00000  Uiso   1.00
C233   C     0.68115   0.77772   0.67757   0.00000  Uiso   1.00
C234   C     0.65715   0.82697   0.68038   0.00000  Uiso   1.00
C235   C     0.59207   0.89463   0.68464   0.00000  Uiso   1.00
C236   C     0.82241   0.71488   0.72882   0.00000  Uiso   1.00
C237   C     0.80970   0.65524   0.77316   0.00000  Uiso   1.00
C238   C     0.84448   0.64848   0.81968   0.00000  Uiso   1.00
C239   C     0.88785   0.61284   0.90454   0.00000  Uiso   1.00
C240   C     0.85281   0.76662   0.61878   0.00000  Uiso   1.00
C241   C     0.86568   0.75049   0.57060   0.00000  Uiso   1.00
C242   C     0.92607   0.78729   0.52448   0.00000  Uiso   1.00
C243   C     0.01666   0.83199   0.43849   0.00000  Uiso   1.00
C244   C     0.87437   0.82687   0.67774   0.00000  Uiso   1.00
C245   C     0.79841   0.83249   0.67895   0.00000  Uiso   1.00
C246   C     0.77450   0.88176   0.68175   0.00000  Uiso   1.00
C247   C     0.70306   0.87814   0.68243   0.00000  Uiso   1.00
C248   C     0.86823   0.76595   0.73088   0.00000  Uiso   1.00
C249   C     0.90305   0.75928   0.77734   0.00000  Uiso   1.00
C250   C     0.89039   0.69965   0.82174   0.00000  Uiso   1.00
C251   C     0.89864   0.81771   0.62083   0.00000  Uiso   1.00
C252   C     0.95903   0.85454   0.57478   0.00000  Uiso   1.00
C253   C     0.97198   0.83846   0.52654   0.00000  Uiso   1.00
H254   H     0.75431   0.69305   0.67237   0.00000  Uiso   1.00
H255   H     0.64570   0.73817   0.67599   0.00000  Uiso   1.00
H256   H     0.77423   0.61572   0.77156   0.00000  Uiso   1.00
H257   H     0.83021   0.71095   0.56903   0.00000  Uiso   1.00
H258   H     0.54549   0.81072   0.68092   0.00000  Uiso   1.00
H259   H     0.81652   0.55250   0.88242   0.00000  Uiso   1.00
H260   H     0.93455   0.75333   0.45536   0.00000  Uiso   1.00
H261   H     0.91005   0.86664   0.67934   0.00000  Uiso   1.00
H262   H     0.80998   0.92129   0.68334   0.00000  Uiso   1.00
H263   H     0.93851   0.79882   0.77891   0.00000  Uiso   1.00
H264   H     0.99448   0.89406   0.57638   0.00000  Uiso   1.00
H265   H     0.67883   0.95933   0.68689   0.00000  Uiso   1.00
H266   H     0.94986   0.70112   0.88839   0.00000  Uiso   1.00
H267   H     0.06788   0.90194   0.46132   0.00000  Uiso   1.00
O268   O     0.54352   0.91783   0.68643   0.00000  Uiso   1.00
O269   O     0.89911   0.57907   0.95078   0.00000  Uiso   1.00
O270   O     0.05395   0.84254   0.39048   0.00000  Uiso   1.00
N271   N     0.59061   0.83820   0.68176   0.00000  Uiso   1.00
N272   N     0.84400   0.59679   0.87016   0.00000  Uiso   1.00
N273   N     0.95435   0.78453   0.47090   0.00000  Uiso   1.00
N274   N     0.66235   0.91817   0.68497   0.00000  Uiso   1.00
N275   N     0.91574   0.67676   0.87337   0.00000  Uiso   1.00
N276   N     0.02610   0.86450   0.47411   0.00000  Uiso   1.00
C277   C     0.06575   0.75950   0.15717   0.00000  Uiso   1.00
C278   C     0.10220   0.80082   0.09088   0.00000  Uiso   1.00
C279   C     0.17381   0.81350   0.06421   0.00000  Uiso   1.00
C280   C     0.19681   0.85242   0.00295   0.00000  Uiso   1.00
C281   C     0.26054   0.91270   0.90509   0.00000  Uiso   1.00
C282   C     0.00410   0.71001   0.15727   0.00000  Uiso   1.00
C283   C     0.99323   0.64635   0.18642   0.00000  Uiso   1.00
C284   C     0.93364   0.60882   0.18106   0.00000  Uiso   1.00
C285   C     0.84504   0.52813   0.18630   0.00000  Uiso   1.00
C286   C     0.03167   0.79956   0.18130   0.00000  Uiso   1.00
C287   C     0.04398   0.81117   0.23068   0.00000  Uiso   1.00
C288   C     0.00759   0.84903   0.24556   0.00000  Uiso   1.00
C289   C     0.96181   0.90737   0.28812   0.00000  Uiso   1.00
C290   C     0.97924   0.80605   0.09581   0.00000  Uiso   1.00
C291   C     0.05520   0.82610   0.05756   0.00000  Uiso   1.00
C292   C     0.07810   0.86501   0.99633   0.00000  Uiso   1.00
C293   C     0.14974   0.87775   0.96957   0.00000  Uiso   1.00
C294   C     0.95711   0.73529   0.12395   0.00000  Uiso   1.00
C295   C     0.89752   0.69785   0.11854   0.00000  Uiso   1.00
C296   C     0.88657   0.63415   0.14767   0.00000  Uiso   1.00
C297   C     0.98468   0.82484   0.14798   0.00000  Uiso   1.00
C298   C     0.94827   0.86268   0.16279   0.00000  Uiso   1.00
C299   C     0.96052   0.87435   0.21217   0.00000  Uiso   1.00
H300   H     0.10233   0.73981   0.18311   0.00000  Uiso   1.00
H301   H     0.21016   0.79392   0.09001   0.00000  Uiso   1.00
H302   H     0.02960   0.62680   0.21221   0.00000  Uiso   1.00
H303   H     0.08035   0.79160   0.25645   0.00000  Uiso   1.00
H304   H     0.30898   0.86505   0.97209   0.00000  Uiso   1.00
H305   H     0.92825   0.51266   0.22978   0.00000  Uiso   1.00
H306   H     0.03525   0.86017   0.32307   0.00000  Uiso   1.00
H307   H     0.94265   0.82573   0.06987   0.00000  Uiso   1.00
H308   H     0.04172   0.88457   0.97055   0.00000  Uiso   1.00
H309   H     0.86116   0.71744   0.09275   0.00000  Uiso   1.00
H310   H     0.91191   0.88224   0.13699   0.00000  Uiso   1.00
H311   H     0.17227   0.93862   0.87513   0.00000  Uiso   1.00
H312   H     0.79154   0.58622   0.13282   0.00000  Uiso   1.00
H313   H     0.89854   0.93374   0.22611   0.00000  Uiso   1.00
O314   O     0.30867   0.93897   0.86031   0.00000  Uiso   1.00
O315   O     0.80916   0.47664   0.19840   0.00000  Uiso   1.00
O316   O     0.94955   0.93257   0.32079   0.00000  Uiso   1.00
N317   N     0.26321   0.87430   0.96290   0.00000  Uiso   1.00
N318   N     0.90726   0.54483   0.20382   0.00000  Uiso   1.00
N319   N     0.00728   0.86971   0.29105   0.00000  Uiso   1.00
N320   N     0.18965   0.91389   0.91073   0.00000  Uiso   1.00
N321   N     0.83370   0.58442   0.15164   0.00000  Uiso   1.00
N322   N     0.93372   0.90930   0.23887   0.00000  Uiso   1.00
C323   C     0.34201   0.72536   0.72198   0.00000  Uiso   1.00
C324   C     0.33201   0.73665   0.77916   0.00000  Uiso   1.00
C325   C     0.38489   0.76876   0.79659   0.00000  Uiso   1.00
C326   C     0.36499   0.77404   0.85046   0.00000  Uiso   1.00
C327   C     0.36015   0.79554   0.93389   0.00000  Uiso   1.00
C328   C     0.28831   0.75150   0.68815   0.00000  Uiso   1.00
C329   C     0.30444   0.79608   0.62906   0.00000  Uiso   1.00
C330   C     0.24774   0.81386   0.60633   0.00000  Uiso   1.00
C331   C     0.17504   0.85838   0.54845   0.00000  Uiso   1.00
C332   C     0.31704   0.65523   0.74296   0.00000  Uiso   1.00
C333   C     0.35732   0.61886   0.72993   0.00000  Uiso   1.00
C334   C     0.32480   0.55558   0.75333   0.00000  Uiso   1.00
C335   C     0.29672   0.45062   0.78055   0.00000  Uiso   1.00
C336   C     0.21263   0.67764   0.78668   0.00000  Uiso   1.00
C337   C     0.26174   0.71073   0.81430   0.00000  Uiso   1.00
C338   C     0.24174   0.71596   0.86816   0.00000  Uiso   1.00
C339   C     0.29458   0.74807   0.88567   0.00000  Uiso   1.00
C340   C     0.21803   0.72558   0.72329   0.00000  Uiso   1.00
C341   C     0.16129   0.74329   0.70064   0.00000  Uiso   1.00
C342   C     0.17734   0.78789   0.64153   0.00000  Uiso   1.00
C343   C     0.24676   0.62931   0.77810   0.00000  Uiso   1.00
C344   C     0.21417   0.56607   0.80152   0.00000  Uiso   1.00
C345   C     0.25440   0.52961   0.78853   0.00000  Uiso   1.00
H346   H     0.39672   0.74554   0.69462   0.00000  Uiso   1.00
H347   H     0.43927   0.78881   0.76937   0.00000  Uiso   1.00
H348   H     0.35883   0.81613   0.60188   0.00000  Uiso   1.00
H349   H     0.41170   0.63893   0.70274   0.00000  Uiso   1.00
H350   H     0.45545   0.82538   0.86774   0.00000  Uiso   1.00
H351   H     0.28583   0.88296   0.51456   0.00000  Uiso   1.00
H352   H     0.39733   0.50931   0.72724   0.00000  Uiso   1.00
H353   H     0.15791   0.65746   0.81403   0.00000  Uiso   1.00
H354   H     0.18736   0.69590   0.89535   0.00000  Uiso   1.00
H355   H     0.10692   0.72322   0.72785   0.00000  Uiso   1.00
H356   H     0.15979   0.54603   0.82871   0.00000  Uiso   1.00
H357   H     0.25098   0.74998   0.96999   0.00000  Uiso   1.00
H358   H     0.08137   0.80755   0.61680   0.00000  Uiso   1.00
H359   H     0.19286   0.43391   0.82948   0.00000  Uiso   1.00
O360   O     0.37689   0.81457   0.97019   0.00000  Uiso   1.00
O361   O     0.15436   0.89011   0.50682   0.00000  Uiso   1.00
O362   O     0.30064   0.39989   0.78586   0.00000  Uiso   1.00
N363   N     0.40329   0.80235   0.88065   0.00000  Uiso   1.00
N364   N     0.24471   0.85619   0.55045   0.00000  Uiso   1.00
N365   N     0.34894   0.50686   0.74927   0.00000  Uiso   1.00
N366   N     0.29327   0.76177   0.93567   0.00000  Uiso   1.00
N367   N     0.13469   0.81561   0.60546   0.00000  Uiso   1.00
N368   N     0.23892   0.46629   0.80429   0.00000  Uiso   1.00
C369   C     0.20312   0.24172   0.67596   0.00000  Uiso   1.00
C370   C     0.24660   0.19560   0.67860   0.00000  Uiso   1.00
C371   C     0.30722   0.19329   0.70123   0.00000  Uiso   1.00
C372   C     0.33932   0.14761   0.69965   0.00000  Uiso   1.00
C373   C     0.41102   0.08233   0.70735   0.00000  Uiso   1.00
C374   C     0.12685   0.20289   0.70991   0.00000  Uiso   1.00
C375   C     0.08678   0.20674   0.75885   0.00000  Uiso   1.00
C376   C     0.01806   0.16720   0.78361   0.00000  Uiso   1.00
C377   C     0.90383   0.11329   0.83989   0.00000  Uiso   1.00
C378   C     0.20108   0.27389   0.60985   0.00000  Uiso   1.00
C379   C     0.22340   0.33743   0.57467   0.00000  Uiso   1.00
C380   C     0.21716   0.35767   0.51519   0.00000  Uiso   1.00
C381   C     0.21817   0.41398   0.41611   0.00000  Uiso   1.00
C382   C     0.15231   0.16470   0.63289   0.00000  Uiso   1.00
C383   C     0.21901   0.15376   0.65521   0.00000  Uiso   1.00
C384   C     0.25102   0.10807   0.65359   0.00000  Uiso   1.00
C385   C     0.31168   0.10570   0.67622   0.00000  Uiso   1.00
C386   C     0.09925   0.16106   0.68652   0.00000  Uiso   1.00
C387   C     0.03058   0.12152   0.71121   0.00000  Uiso   1.00
C388   C     0.99042   0.12529   0.76018   0.00000  Uiso   1.00
C389   C     0.17348   0.23205   0.58646   0.00000  Uiso   1.00
C390   C     0.16720   0.25220   0.52703   0.00000  Uiso   1.00
C391   C     0.18951   0.31576   0.49176   0.00000  Uiso   1.00
H392   H     0.22460   0.27429   0.69417   0.00000  Uiso   1.00
H393   H     0.32856   0.22567   0.71934   0.00000  Uiso   1.00
H394   H     0.10815   0.23912   0.77694   0.00000  Uiso   1.00
H395   H     0.24475   0.36979   0.59279   0.00000  Uiso   1.00
H396   H     0.43164   0.15330   0.73695   0.00000  Uiso   1.00
H397   H     0.96689   0.18167   0.85840   0.00000  Uiso   1.00
H398   H     0.25493   0.45721   0.47007   0.00000  Uiso   1.00
H399   H     0.13083   0.13212   0.61468   0.00000  Uiso   1.00
H400   H     0.22965   0.07570   0.63549   0.00000  Uiso   1.00
H401   H     0.00924   0.08915   0.69310   0.00000  Uiso   1.00
H402   H     0.14584   0.21981   0.50894   0.00000  Uiso   1.00
H403   H     0.35136   0.03158   0.66890   0.00000  Uiso   1.00
H404   H     0.88660   0.05995   0.79035   0.00000  Uiso   1.00
H405   H     0.17465   0.33549   0.40202   0.00000  Uiso   1.00
O406   O     0.45818   0.05788   0.71806   0.00000  Uiso   1.00
O407   O     0.84844   0.09511   0.87739   0.00000  Uiso   1.00
O408   O     0.22636   0.45660   0.36792   0.00000  Uiso   1.00
N409   N     0.39919   0.13241   0.71806   0.00000  Uiso   1.00
N410   N     0.96468   0.15892   0.83162   0.00000  Uiso   1.00
N411   N     0.23396   0.41653   0.46857   0.00000  Uiso   1.00
N412   N     0.35599   0.06691   0.68145   0.00000  Uiso   1.00
N413   N     0.92148   0.09342   0.79500   0.00000  Uiso   1.00
N414   N     0.19076   0.35103   0.43195   0.00000  Uiso   1.00
C415   C     0.92038   0.12981   0.43169   0.00000  Uiso   1.00
C416   C     0.88570   0.10763   0.49850   0.00000  Uiso   1.00
C417   C     0.91845   0.08693   0.54593   0.00000  Uiso   1.00
C418   C     0.87764   0.06862   0.60382   0.00000  Uiso   1.00
C419   C     0.83457   0.03380   0.70603   0.00000  Uiso   1.00
C420   C     0.87296   0.08957   0.40902   0.00000  Uiso   1.00
C421   C     0.89502   0.05370   0.38122   0.00000  Uiso   1.00
C422   C     0.84349   0.02021   0.36377   0.00000  Uiso   1.00
C423   C     0.78067   0.95739   0.32703   0.00000  Uiso   1.00
C424   C     0.91290   0.19518   0.40020   0.00000  Uiso   1.00
C425   C     0.96852   0.24810   0.36496   0.00000  Uiso   1.00
C426   C     0.95061   0.30352   0.34007   0.00000  Uiso   1.00
C427   C     0.94980   0.40467   0.28962   0.00000  Uiso   1.00
C428   C     0.78966   0.13413   0.45014   0.00000  Uiso   1.00
C429   C     0.81470   0.10997   0.50852   0.00000  Uiso   1.00
C430   C     0.77383   0.09170   0.56635   0.00000  Uiso   1.00
C431   C     0.80651   0.07098   0.61386   0.00000  Uiso   1.00
C432   C     0.80197   0.09192   0.41904   0.00000  Uiso   1.00
C433   C     0.75040   0.05848   0.40163   0.00000  Uiso   1.00
C434   C     0.77236   0.02256   0.37381   0.00000  Uiso   1.00
C435   C     0.84190   0.19753   0.41022   0.00000  Uiso   1.00
C436   C     0.82390   0.25287   0.38537   0.00000  Uiso   1.00
C437   C     0.87949   0.30587   0.35010   0.00000  Uiso   1.00
H438   H     0.97565   0.12798   0.42389   0.00000  Uiso   1.00
H439   H     0.97339   0.08511   0.53816   0.00000  Uiso   1.00
H440   H     0.94996   0.05190   0.37347   0.00000  Uiso   1.00
H441   H     0.02346   0.24627   0.35721   0.00000  Uiso   1.00
H442   H     0.93956   0.03859   0.66927   0.00000  Uiso   1.00
H443   H     0.89017   0.96858   0.32199   0.00000  Uiso   1.00
H444   H     0.04515   0.37844   0.28771   0.00000  Uiso   1.00
H445   H     0.73439   0.13595   0.45794   0.00000  Uiso   1.00
H446   H     0.71888   0.09352   0.57409   0.00000  Uiso   1.00
H447   H     0.69546   0.06030   0.40939   0.00000  Uiso   1.00
H448   H     0.76895   0.25467   0.39314   0.00000  Uiso   1.00
H449   H     0.73300   0.04542   0.69843   0.00000  Uiso   1.00
H450   H     0.68361   0.97540   0.35114   0.00000  Uiso   1.00
H451   H     0.83858   0.38526   0.31686   0.00000  Uiso   1.00
O452   O     0.83043   0.01393   0.75964   0.00000  Uiso   1.00
O453   O     0.76563   0.92208   0.30400   0.00000  Uiso   1.00
O454   O     0.96896   0.45981   0.25904   0.00000  Uiso   1.00
N455   N     0.89308   0.04604   0.66020   0.00000  Uiso   1.00
N456   N     0.84690   0.98057   0.33551   0.00000  Uiso   1.00
N457   N     0.99179   0.36375   0.30345   0.00000  Uiso   1.00
N458   N     0.78193   0.04971   0.67589   0.00000  Uiso   1.00
N459   N     0.73575   0.98424   0.35120   0.00000  Uiso   1.00
N460   N     0.88064   0.36742   0.31914   0.00000  Uiso   1.00
C461   C     0.69868   0.56244   0.03062   0.00000  Uiso   1.00
C462   C     0.72026   0.62853   0.98145   0.00000  Uiso   1.00
C463   C     0.77898   0.67568   0.97386   0.00000  Uiso   1.00
C464   C     0.78953   0.73289   0.92614   0.00000  Uiso   1.00
C465   C     0.83010   0.83405   0.85570   0.00000  Uiso   1.00
C466   C     0.62218   0.55096   0.06379   0.00000  Uiso   1.00
C467   C     0.59842   0.53288   0.12544   0.00000  Uiso   1.00
C468   C     0.52641   0.52478   0.14704   0.00000  Uiso   1.00
C469   C     0.41469   0.50546   0.20444   0.00000  Uiso   1.00
C470   C     0.69490   0.52003   0.99780   0.00000  Uiso   1.00
C471   C     0.73227   0.47592   0.00397   0.00000  Uiso   1.00
C472   C     0.72147   0.44178   0.97002   0.00000  Uiso   1.00
C473   C     0.72265   0.37443   0.92495   0.00000  Uiso   1.00
C474   C     0.61302   0.58021   0.95938   0.00000  Uiso   1.00
C475   C     0.67373   0.63818   0.94275   0.00000  Uiso   1.00
C476   C     0.68420   0.69534   0.89503   0.00000  Uiso   1.00
C477   C     0.74292   0.74256   0.88737   0.00000  Uiso   1.00
C478   C     0.57565   0.56061   0.02510   0.00000  Uiso   1.00
C479   C     0.50365   0.55253   0.04661   0.00000  Uiso   1.00
C480   C     0.47979   0.53445   0.10827   0.00000  Uiso   1.00
C481   C     0.64837   0.52968   0.95910   0.00000  Uiso   1.00
C482   C     0.63750   0.49559   0.92514   0.00000  Uiso   1.00
C483   C     0.67485   0.45144   0.93125   0.00000  Uiso   1.00
H484   H     0.73490   0.55493   0.06075   0.00000  Uiso   1.00
H485   H     0.81497   0.66819   0.00382   0.00000  Uiso   1.00
H486   H     0.63444   0.52541   0.15538   0.00000  Uiso   1.00
H487   H     0.76827   0.46847   0.03392   0.00000  Uiso   1.00
H488   H     0.88320   0.79803   0.92365   0.00000  Uiso   1.00
H489   H     0.50255   0.49693   0.24321   0.00000  Uiso   1.00
H490   H     0.78475   0.37686   0.98710   0.00000  Uiso   1.00
H491   H     0.57679   0.58772   0.92925   0.00000  Uiso   1.00
H492   H     0.64819   0.70279   0.86509   0.00000  Uiso   1.00
H493   H     0.46766   0.56000   0.01665   0.00000  Uiso   1.00
H494   H     0.60149   0.50307   0.89520   0.00000  Uiso   1.00
H495   H     0.74784   0.82611   0.81106   0.00000  Uiso   1.00
H496   H     0.36718   0.52501   0.13062   0.00000  Uiso   1.00
H497   H     0.64939   0.40495   0.87451   0.00000  Uiso   1.00
O498   O     0.86532   0.88718   0.82754   0.00000  Uiso   1.00
O499   O     0.36592   0.49214   0.24679   0.00000  Uiso   1.00
O500   O     0.73617   0.33462   0.91078   0.00000  Uiso   1.00
N501   N     0.84156   0.78884   0.90595   0.00000  Uiso   1.00
N502   N     0.48567   0.50735   0.20472   0.00000  Uiso   1.00
N503   N     0.74949   0.39508   0.96529   0.00000  Uiso   1.00
N504   N     0.76872   0.80395   0.84536   0.00000  Uiso   1.00
N505   N     0.41283   0.52246   0.14413   0.00000  Uiso   1.00
N506   N     0.67665   0.41019   0.90470   0.00000  Uiso   1.00
C507   C     0.58893   0.98363   0.03994   0.00000  Uiso   1.00
C508   C     0.64076   0.95020   0.02328   0.00000  Uiso   1.00
C509   C     0.71230   0.96172   0.02470   0.00000  Uiso   1.00
C510   C     0.75069   0.92615   0.00776   0.00000  Uiso   1.00
C511   C     0.83605   0.88117   0.98455   0.00000  Uiso   1.00
C512   C     0.55868   0.01014   0.98483   0.00000  Uiso   1.00
C513   C     0.56121   0.07205   0.95392   0.00000  Uiso   1.00
C514   C     0.53050   0.08694   0.90463   0.00000  Uiso   1.00
C515   C     0.48839   0.13501   0.82175   0.00000  Uiso   1.00
C516   C     0.52689   0.93323   0.08938   0.00000  Uiso   1.00
C517   C     0.50267   0.93050   0.14638   0.00000  Uiso   1.00
C518   C     0.44519   0.88064   0.18511   0.00000  Uiso   1.00
C519   C     0.35372   0.80931   0.26456   0.00000  Uiso   1.00
C520   C     0.52988   0.89997   0.00735   0.00000  Uiso   1.00
C521   C     0.60868   0.90476   0.00558   0.00000  Uiso   1.00
C522   C     0.64697   0.86916   0.98864   0.00000  Uiso   1.00
C523   C     0.71856   0.88063   0.99003   0.00000  Uiso   1.00
C524   C     0.52661   0.96470   0.96712   0.00000  Uiso   1.00
C525   C     0.49589   0.97949   0.91787   0.00000  Uiso   1.00
C526   C     0.49837   0.04142   0.88689   0.00000  Uiso   1.00
C527   C     0.49482   0.88779   0.07168   0.00000  Uiso   1.00
C528   C     0.43735   0.83794   0.11032   0.00000  Uiso   1.00
C529   C     0.41306   0.83512   0.16737   0.00000  Uiso   1.00
H530   H     0.61390   0.01901   0.05372   0.00000  Uiso   1.00
H531   H     0.73710   0.99690   0.03839   0.00000  Uiso   1.00
H532   H     0.58603   0.10721   0.96764   0.00000  Uiso   1.00
H533   H     0.52751   0.96567   0.16006   0.00000  Uiso   1.00
H534   H     0.85956   0.95235   0.01357   0.00000  Uiso   1.00
H535   H     0.54099   0.18495   0.86439   0.00000  Uiso   1.00
H536   H     0.41758   0.88649   0.27016   0.00000  Uiso   1.00
H537   H     0.50491   0.86460   0.99357   0.00000  Uiso   1.00
H538   H     0.62214   0.83400   0.97494   0.00000  Uiso   1.00
H539   H     0.47107   0.94432   0.90418   0.00000  Uiso   1.00
H540   H     0.41255   0.80278   0.09661   0.00000  Uiso   1.00
H541   H     0.76626   0.82014   0.96207   0.00000  Uiso   1.00
H542   H     0.44768   0.05274   0.81289   0.00000  Uiso   1.00
H543   H     0.32428   0.75428   0.21866   0.00000  Uiso   1.00
O544   O     0.89200   0.86892   0.97663   0.00000  Uiso   1.00
O545   O     0.47404   0.17408   0.78092   0.00000  Uiso   1.00
O546   O     0.31213   0.78251   0.31328   0.00000  Uiso   1.00
N547   N     0.82151   0.92542   0.00402   0.00000  Uiso   1.00
N548   N     0.52368   0.14289   0.86454   0.00000  Uiso   1.00
N549   N     0.40829   0.86387   0.24389   0.00000  Uiso   1.00
N550   N     0.77130   0.85428   0.97631   0.00000  Uiso   1.00
N551   N     0.47347   0.07175   0.83682   0.00000  Uiso   1.00
N552   N     0.35808   0.79273   0.21618   0.00000  Uiso   1.00
