data_job_05572
_audit_creation_date              2018-12-19
_audit_creation_method            'Materials Studio'
_symmetry_space_group_name_H-M    'P1'
_symmetry_Int_Tables_number       1
_symmetry_cell_setting            triclinic
loop_
_symmetry_equiv_pos_as_xyz
  x,y,z
_cell_length_a                    13.2199
_cell_length_b                    13.2199
_cell_length_c                    61.0856
_cell_angle_alpha                 90.0000
_cell_angle_beta                  90.0000
_cell_angle_gamma                 120.0000
loop_
_atom_site_label
_atom_site_type_symbol
_atom_site_fract_x
_atom_site_fract_y
_atom_site_fract_z
_atom_site_U_iso_or_equiv
_atom_site_adp_type
_atom_site_occupancy
C1     C     0.24584   0.01686   0.20988   0.00000  Uiso   1.00
C2     C     0.11614   0.93093   0.21327   0.00000  Uiso   1.00
C3     C     0.02601   0.95412   0.20973   0.00000  Uiso   1.00
C4     C     0.91328   0.86390   0.21378   0.00000  Uiso   1.00
C5     C     0.71520   0.74713   0.21794   0.00000  Uiso   1.00
C6     C     0.30484   0.02339   0.23170   0.00000  Uiso   1.00
C7     C     0.37337   0.12434   0.24366   0.00000  Uiso   1.00
C8     C     0.41949   0.11194   0.26323   0.00000  Uiso   1.00
C9     C     0.51443   0.13875   0.29600   0.00000  Uiso   1.00
C10    C     0.28918   0.95817   0.19391   0.00000  Uiso   1.00
C11    C     0.34457   0.00429   0.17410   0.00000  Uiso   1.00
C12    C     0.37754   0.93700   0.16186   0.00000  Uiso   1.00
C13    C     0.44816   0.86254   0.13597   0.00000  Uiso   1.00
C14    C     0.20590   0.81536   0.22337   0.00000  Uiso   1.00
C15    C     0.09445   0.82148   0.22060   0.00000  Uiso   1.00
C16    C     0.98183   0.73119   0.22466   0.00000  Uiso   1.00
C17    C     0.89154   0.75425   0.22112   0.00000  Uiso   1.00
C18    C     0.28315   0.91395   0.23903   0.00000  Uiso   1.00
C19    C     0.32918   0.90141   0.25859   0.00000  Uiso   1.00
C20    C     0.39776   0.00230   0.27057   0.00000  Uiso   1.00
C21    C     0.26748   0.84872   0.20124   0.00000  Uiso   1.00
C22    C     0.30038   0.78135   0.18903   0.00000  Uiso   1.00
C23    C     0.35581   0.82736   0.16921   0.00000  Uiso   1.00
H24    H     0.26274   0.10207   0.20417   0.00000  Uiso   1.00
H25    H     0.04284   0.03884   0.20406   0.00000  Uiso   1.00
H26    H     0.39015   0.20902   0.23798   0.00000  Uiso   1.00
H27    H     0.36135   0.08899   0.16844   0.00000  Uiso   1.00
H28    H     0.78948   0.92048   0.20717   0.00000  Uiso   1.00
H29    H     0.52184   0.27933   0.27869   0.00000  Uiso   1.00
H30    H     0.46111   0.02622   0.13205   0.00000  Uiso   1.00
H31    H     0.18902   0.73015   0.22908   0.00000  Uiso   1.00
H32    H     0.96507   0.64651   0.23033   0.00000  Uiso   1.00
H33    H     0.31238   0.81670   0.26425   0.00000  Uiso   1.00
H34    H     0.28358   0.69666   0.19471   0.00000  Uiso   1.00
H35    H     0.72636   0.60206   0.22850   0.00000  Uiso   1.00
H36    H     0.45872   0.96091   0.30002   0.00000  Uiso   1.00
H37    H     0.39798   0.70780   0.15338   0.00000  Uiso   1.00
O38    O     0.61193   0.71297   0.21821   0.00000  Uiso   1.00
O39    O     0.57277   0.18377   0.31205   0.00000  Uiso   1.00
O40    O     0.49309   0.85169   0.11966   0.00000  Uiso   1.00
N41    N     0.80535   0.85701   0.21201   0.00000  Uiso   1.00
N42    N     0.49005   0.19252   0.27888   0.00000  Uiso   1.00
N43    N     0.43330   0.95589   0.14179   0.00000  Uiso   1.00
N44    N     0.77139   0.68567   0.22349   0.00000  Uiso   1.00
N45    N     0.45609   0.02117   0.29036   0.00000  Uiso   1.00
N46    N     0.39934   0.78455   0.15326   0.00000  Uiso   1.00
C47    C     0.98314   0.22899   0.87654   0.00000  Uiso   1.00
C48    C     0.06907   0.18522   0.87993   0.00000  Uiso   1.00
C49    C     0.04588   0.07189   0.87639   0.00000  Uiso   1.00
C50    C     0.13610   0.04938   0.88045   0.00000  Uiso   1.00
C51    C     0.25287   0.96806   0.88461   0.00000  Uiso   1.00
C52    C     0.97661   0.28145   0.89837   0.00000  Uiso   1.00
C53    C     0.87566   0.24903   0.91032   0.00000  Uiso   1.00
C54    C     0.88806   0.30755   0.92989   0.00000  Uiso   1.00
C55    C     0.86125   0.37568   0.96266   0.00000  Uiso   1.00
C56    C     0.04183   0.33100   0.86058   0.00000  Uiso   1.00
C57    C     0.99571   0.34028   0.84077   0.00000  Uiso   1.00
C58    C     0.06300   0.44054   0.82853   0.00000  Uiso   1.00
C59    C     0.13746   0.58562   0.80263   0.00000  Uiso   1.00
C60    C     0.18464   0.39054   0.89004   0.00000  Uiso   1.00
C61    C     0.17852   0.27297   0.88726   0.00000  Uiso   1.00
C62    C     0.26881   0.25063   0.89132   0.00000  Uiso   1.00
C63    C     0.24575   0.13729   0.88779   0.00000  Uiso   1.00
C64    C     0.08605   0.36919   0.90570   0.00000  Uiso   1.00
C65    C     0.09859   0.42778   0.92525   0.00000  Uiso   1.00
C66    C     0.99770   0.39546   0.93724   0.00000  Uiso   1.00
C67    C     0.15128   0.41876   0.86791   0.00000  Uiso   1.00
C68    C     0.21865   0.51902   0.85570   0.00000  Uiso   1.00
C69    C     0.17264   0.52845   0.83587   0.00000  Uiso   1.00
H70    H     0.89793   0.16067   0.87084   0.00000  Uiso   1.00
H71    H     0.96116   0.00400   0.87072   0.00000  Uiso   1.00
H72    H     0.79098   0.18113   0.90464   0.00000  Uiso   1.00
H73    H     0.91101   0.27236   0.83510   0.00000  Uiso   1.00
H74    H     0.07952   0.86899   0.87384   0.00000  Uiso   1.00
H75    H     0.72067   0.24250   0.94536   0.00000  Uiso   1.00
H76    H     0.97378   0.43488   0.79872   0.00000  Uiso   1.00
H77    H     0.26985   0.45887   0.89575   0.00000  Uiso   1.00
H78    H     0.35349   0.31856   0.89700   0.00000  Uiso   1.00
H79    H     0.18330   0.49568   0.93092   0.00000  Uiso   1.00
H80    H     0.30334   0.58691   0.86138   0.00000  Uiso   1.00
H81    H     0.39794   0.12430   0.89516   0.00000  Uiso   1.00
H82    H     0.03909   0.49781   0.96669   0.00000  Uiso   1.00
H83    H     0.29220   0.69019   0.82004   0.00000  Uiso   1.00
O84    O     0.28703   0.89896   0.88488   0.00000  Uiso   1.00
O85    O     0.81623   0.38900   0.97871   0.00000  Uiso   1.00
O86    O     0.14831   0.64139   0.78632   0.00000  Uiso   1.00
N87    N     0.14299   0.94834   0.87868   0.00000  Uiso   1.00
N88    N     0.80748   0.29754   0.94555   0.00000  Uiso   1.00
N89    N     0.04411   0.47741   0.80845   0.00000  Uiso   1.00
N90    N     0.31433   0.08572   0.89015   0.00000  Uiso   1.00
N91    N     0.97883   0.43491   0.95703   0.00000  Uiso   1.00
N92    N     0.21545   0.61479   0.81993   0.00000  Uiso   1.00
C93    C     0.77101   0.75416   0.54321   0.00000  Uiso   1.00
C94    C     0.81478   0.88386   0.54660   0.00000  Uiso   1.00
C95    C     0.92811   0.97399   0.54306   0.00000  Uiso   1.00
C96    C     0.95062   0.08672   0.54712   0.00000  Uiso   1.00
C97    C     0.03194   0.28480   0.55127   0.00000  Uiso   1.00
C98    C     0.71855   0.69516   0.56503   0.00000  Uiso   1.00
C99    C     0.75097   0.62663   0.57699   0.00000  Uiso   1.00
C100   C     0.69245   0.58051   0.59656   0.00000  Uiso   1.00
C101   C     0.62432   0.48557   0.62933   0.00000  Uiso   1.00
C102   C     0.66900   0.71082   0.52725   0.00000  Uiso   1.00
C103   C     0.65972   0.65543   0.50744   0.00000  Uiso   1.00
C104   C     0.55946   0.62246   0.49520   0.00000  Uiso   1.00
C105   C     0.41438   0.55184   0.46930   0.00000  Uiso   1.00
C106   C     0.60946   0.79410   0.55670   0.00000  Uiso   1.00
C107   C     0.72703   0.90555   0.55393   0.00000  Uiso   1.00
C108   C     0.74937   0.01817   0.55799   0.00000  Uiso   1.00
C109   C     0.86271   0.10846   0.55446   0.00000  Uiso   1.00
C110   C     0.63081   0.71685   0.57236   0.00000  Uiso   1.00
C111   C     0.57222   0.67082   0.59192   0.00000  Uiso   1.00
C112   C     0.60454   0.60224   0.60390   0.00000  Uiso   1.00
C113   C     0.58124   0.73252   0.53458   0.00000  Uiso   1.00
C114   C     0.48098   0.69962   0.52237   0.00000  Uiso   1.00
C115   C     0.47155   0.64419   0.50254   0.00000  Uiso   1.00
H116   H     0.83933   0.73726   0.53750   0.00000  Uiso   1.00
H117   H     0.99600   0.95716   0.53739   0.00000  Uiso   1.00
H118   H     0.81887   0.60985   0.57131   0.00000  Uiso   1.00
H119   H     0.72764   0.63865   0.50177   0.00000  Uiso   1.00
H120   H     0.13101   0.21052   0.54050   0.00000  Uiso   1.00
H121   H     0.75750   0.47816   0.61203   0.00000  Uiso   1.00
H122   H     0.56512   0.53889   0.46538   0.00000  Uiso   1.00
H123   H     0.54113   0.81098   0.56241   0.00000  Uiso   1.00
H124   H     0.68144   0.03493   0.56366   0.00000  Uiso   1.00
H125   H     0.50432   0.68762   0.59759   0.00000  Uiso   1.00
H126   H     0.41309   0.71642   0.52805   0.00000  Uiso   1.00
H127   H     0.87570   0.27364   0.56183   0.00000  Uiso   1.00
H128   H     0.50219   0.54128   0.63335   0.00000  Uiso   1.00
H129   H     0.30981   0.60202   0.48671   0.00000  Uiso   1.00
O130   O     0.10104   0.38807   0.55155   0.00000  Uiso   1.00
O131   O     0.61100   0.42723   0.64538   0.00000  Uiso   1.00
O132   O     0.35861   0.50691   0.45299   0.00000  Uiso   1.00
N133   N     0.05166   0.19465   0.54535   0.00000  Uiso   1.00
N134   N     0.70246   0.50995   0.61222   0.00000  Uiso   1.00
N135   N     0.52259   0.56670   0.47512   0.00000  Uiso   1.00
N136   N     0.91428   0.22861   0.55682   0.00000  Uiso   1.00
N137   N     0.56509   0.54391   0.62369   0.00000  Uiso   1.00
N138   N     0.38521   0.60066   0.48660   0.00000  Uiso   1.00
C139   C     0.75416   0.98314   0.70988   0.00000  Uiso   1.00
C140   C     0.88386   0.06907   0.71327   0.00000  Uiso   1.00
C141   C     0.97399   0.04588   0.70973   0.00000  Uiso   1.00
C142   C     0.08672   0.13610   0.71378   0.00000  Uiso   1.00
C143   C     0.28480   0.25287   0.71794   0.00000  Uiso   1.00
C144   C     0.69516   0.97661   0.73170   0.00000  Uiso   1.00
C145   C     0.62663   0.87566   0.74366   0.00000  Uiso   1.00
C146   C     0.58051   0.88806   0.76323   0.00000  Uiso   1.00
C147   C     0.48557   0.86125   0.79600   0.00000  Uiso   1.00
C148   C     0.71082   0.04183   0.69391   0.00000  Uiso   1.00
C149   C     0.65543   0.99571   0.67410   0.00000  Uiso   1.00
C150   C     0.62246   0.06300   0.66186   0.00000  Uiso   1.00
C151   C     0.55184   0.13746   0.63597   0.00000  Uiso   1.00
C152   C     0.79410   0.18464   0.72337   0.00000  Uiso   1.00
C153   C     0.90555   0.17852   0.72060   0.00000  Uiso   1.00
C154   C     0.01817   0.26881   0.72466   0.00000  Uiso   1.00
C155   C     0.10846   0.24575   0.72112   0.00000  Uiso   1.00
C156   C     0.71685   0.08605   0.73903   0.00000  Uiso   1.00
C157   C     0.67082   0.09859   0.75859   0.00000  Uiso   1.00
C158   C     0.60224   0.99770   0.77057   0.00000  Uiso   1.00
C159   C     0.73252   0.15128   0.70124   0.00000  Uiso   1.00
C160   C     0.69962   0.21865   0.68903   0.00000  Uiso   1.00
C161   C     0.64419   0.17264   0.66921   0.00000  Uiso   1.00
H162   H     0.73726   0.89793   0.70417   0.00000  Uiso   1.00
H163   H     0.95716   0.96116   0.70406   0.00000  Uiso   1.00
H164   H     0.60985   0.79098   0.73798   0.00000  Uiso   1.00
H165   H     0.63865   0.91101   0.66844   0.00000  Uiso   1.00
H166   H     0.21052   0.07952   0.70717   0.00000  Uiso   1.00
H167   H     0.47816   0.72067   0.77869   0.00000  Uiso   1.00
H168   H     0.53889   0.97378   0.63205   0.00000  Uiso   1.00
H169   H     0.81098   0.26985   0.72908   0.00000  Uiso   1.00
H170   H     0.03493   0.35349   0.73033   0.00000  Uiso   1.00
H171   H     0.68762   0.18330   0.76425   0.00000  Uiso   1.00
H172   H     0.71642   0.30334   0.69471   0.00000  Uiso   1.00
H173   H     0.27364   0.39794   0.72850   0.00000  Uiso   1.00
H174   H     0.54128   0.03909   0.80002   0.00000  Uiso   1.00
H175   H     0.60202   0.29220   0.65338   0.00000  Uiso   1.00
O176   O     0.38807   0.28703   0.71821   0.00000  Uiso   1.00
O177   O     0.42723   0.81623   0.81205   0.00000  Uiso   1.00
O178   O     0.50691   0.14831   0.61966   0.00000  Uiso   1.00
N179   N     0.19465   0.14299   0.71201   0.00000  Uiso   1.00
N180   N     0.50995   0.80748   0.77888   0.00000  Uiso   1.00
N181   N     0.56670   0.04411   0.64179   0.00000  Uiso   1.00
N182   N     0.22861   0.31433   0.72349   0.00000  Uiso   1.00
N183   N     0.54391   0.97883   0.79036   0.00000  Uiso   1.00
N184   N     0.60066   0.21545   0.65326   0.00000  Uiso   1.00
C185   C     0.01686   0.77101   0.37654   0.00000  Uiso   1.00
C186   C     0.93093   0.81478   0.37993   0.00000  Uiso   1.00
C187   C     0.95412   0.92811   0.37639   0.00000  Uiso   1.00
C188   C     0.86390   0.95062   0.38045   0.00000  Uiso   1.00
C189   C     0.74713   0.03194   0.38461   0.00000  Uiso   1.00
C190   C     0.02339   0.71855   0.39837   0.00000  Uiso   1.00
C191   C     0.12434   0.75097   0.41032   0.00000  Uiso   1.00
C192   C     0.11194   0.69245   0.42989   0.00000  Uiso   1.00
C193   C     0.13875   0.62432   0.46266   0.00000  Uiso   1.00
C194   C     0.95817   0.66900   0.36058   0.00000  Uiso   1.00
C195   C     0.00429   0.65972   0.34077   0.00000  Uiso   1.00
C196   C     0.93700   0.55946   0.32853   0.00000  Uiso   1.00
C197   C     0.86254   0.41438   0.30263   0.00000  Uiso   1.00
C198   C     0.81536   0.60946   0.39004   0.00000  Uiso   1.00
C199   C     0.82148   0.72703   0.38726   0.00000  Uiso   1.00
C200   C     0.73119   0.74937   0.39132   0.00000  Uiso   1.00
C201   C     0.75425   0.86271   0.38779   0.00000  Uiso   1.00
C202   C     0.91395   0.63081   0.40570   0.00000  Uiso   1.00
C203   C     0.90141   0.57222   0.42525   0.00000  Uiso   1.00
C204   C     0.00230   0.60454   0.43724   0.00000  Uiso   1.00
C205   C     0.84872   0.58124   0.36791   0.00000  Uiso   1.00
C206   C     0.78135   0.48098   0.35570   0.00000  Uiso   1.00
C207   C     0.82736   0.47155   0.33587   0.00000  Uiso   1.00
H208   H     0.10207   0.83933   0.37084   0.00000  Uiso   1.00
H209   H     0.03884   0.99600   0.37072   0.00000  Uiso   1.00
H210   H     0.20902   0.81887   0.40464   0.00000  Uiso   1.00
H211   H     0.08899   0.72764   0.33510   0.00000  Uiso   1.00
H212   H     0.92048   0.13101   0.37384   0.00000  Uiso   1.00
H213   H     0.27933   0.75750   0.44536   0.00000  Uiso   1.00
H214   H     0.02622   0.56512   0.29872   0.00000  Uiso   1.00
H215   H     0.73015   0.54113   0.39575   0.00000  Uiso   1.00
H216   H     0.64651   0.68144   0.39700   0.00000  Uiso   1.00
H217   H     0.81670   0.50432   0.43092   0.00000  Uiso   1.00
H218   H     0.69666   0.41309   0.36138   0.00000  Uiso   1.00
H219   H     0.60206   0.87570   0.39516   0.00000  Uiso   1.00
H220   H     0.96091   0.50219   0.46669   0.00000  Uiso   1.00
H221   H     0.70780   0.30981   0.32004   0.00000  Uiso   1.00
O222   O     0.71297   0.10104   0.38488   0.00000  Uiso   1.00
O223   O     0.18377   0.61100   0.47871   0.00000  Uiso   1.00
O224   O     0.85169   0.35861   0.28632   0.00000  Uiso   1.00
N225   N     0.85701   0.05166   0.37868   0.00000  Uiso   1.00
N226   N     0.19252   0.70246   0.44555   0.00000  Uiso   1.00
N227   N     0.95589   0.52259   0.30845   0.00000  Uiso   1.00
N228   N     0.68567   0.91428   0.39015   0.00000  Uiso   1.00
N229   N     0.02117   0.56509   0.45703   0.00000  Uiso   1.00
N230   N     0.78455   0.38521   0.31993   0.00000  Uiso   1.00
C231   C     0.22899   0.24584   0.04321   0.00000  Uiso   1.00
C232   C     0.18522   0.11614   0.04660   0.00000  Uiso   1.00
C233   C     0.07189   0.02601   0.04306   0.00000  Uiso   1.00
C234   C     0.04938   0.91328   0.04712   0.00000  Uiso   1.00
C235   C     0.96806   0.71520   0.05127   0.00000  Uiso   1.00
C236   C     0.28145   0.30484   0.06503   0.00000  Uiso   1.00
C237   C     0.24903   0.37337   0.07699   0.00000  Uiso   1.00
C238   C     0.30755   0.41949   0.09656   0.00000  Uiso   1.00
C239   C     0.37568   0.51443   0.12933   0.00000  Uiso   1.00
C240   C     0.33100   0.28918   0.02725   0.00000  Uiso   1.00
C241   C     0.34028   0.34457   0.00744   0.00000  Uiso   1.00
C242   C     0.44054   0.37754   0.99520   0.00000  Uiso   1.00
C243   C     0.58562   0.44816   0.96930   0.00000  Uiso   1.00
C244   C     0.39054   0.20590   0.05670   0.00000  Uiso   1.00
C245   C     0.27297   0.09445   0.05393   0.00000  Uiso   1.00
C246   C     0.25063   0.98183   0.05799   0.00000  Uiso   1.00
C247   C     0.13729   0.89154   0.05446   0.00000  Uiso   1.00
C248   C     0.36919   0.28315   0.07236   0.00000  Uiso   1.00
C249   C     0.42778   0.32918   0.09192   0.00000  Uiso   1.00
C250   C     0.39546   0.39776   0.10390   0.00000  Uiso   1.00
C251   C     0.41876   0.26748   0.03458   0.00000  Uiso   1.00
C252   C     0.51902   0.30038   0.02237   0.00000  Uiso   1.00
C253   C     0.52845   0.35581   0.00254   0.00000  Uiso   1.00
H254   H     0.16067   0.26274   0.03750   0.00000  Uiso   1.00
H255   H     0.00400   0.04284   0.03739   0.00000  Uiso   1.00
H256   H     0.18113   0.39015   0.07131   0.00000  Uiso   1.00
H257   H     0.27236   0.36135   0.00177   0.00000  Uiso   1.00
H258   H     0.86899   0.78948   0.04050   0.00000  Uiso   1.00
H259   H     0.24250   0.52184   0.11203   0.00000  Uiso   1.00
H260   H     0.43488   0.46111   0.96538   0.00000  Uiso   1.00
H261   H     0.45887   0.18902   0.06241   0.00000  Uiso   1.00
H262   H     0.31856   0.96507   0.06366   0.00000  Uiso   1.00
H263   H     0.49568   0.31238   0.09759   0.00000  Uiso   1.00
H264   H     0.58691   0.28358   0.02805   0.00000  Uiso   1.00
H265   H     0.12430   0.72636   0.06183   0.00000  Uiso   1.00
H266   H     0.49781   0.45872   0.13335   0.00000  Uiso   1.00
H267   H     0.69019   0.39798   0.98671   0.00000  Uiso   1.00
O268   O     0.89896   0.61193   0.05155   0.00000  Uiso   1.00
O269   O     0.38900   0.57277   0.14538   0.00000  Uiso   1.00
O270   O     0.64139   0.49309   0.95299   0.00000  Uiso   1.00
N271   N     0.94834   0.80535   0.04535   0.00000  Uiso   1.00
N272   N     0.29754   0.49005   0.11222   0.00000  Uiso   1.00
N273   N     0.47741   0.43330   0.97512   0.00000  Uiso   1.00
N274   N     0.08572   0.77139   0.05682   0.00000  Uiso   1.00
N275   N     0.43491   0.45609   0.12369   0.00000  Uiso   1.00
N276   N     0.61479   0.39934   0.98660   0.00000  Uiso   1.00
C277   C     0.01686   0.24584   0.45679   0.00000  Uiso   1.00
C278   C     0.93093   0.11614   0.45340   0.00000  Uiso   1.00
C279   C     0.95412   0.02601   0.45694   0.00000  Uiso   1.00
C280   C     0.86390   0.91328   0.45288   0.00000  Uiso   1.00
C281   C     0.74713   0.71520   0.44873   0.00000  Uiso   1.00
C282   C     0.02339   0.30484   0.43497   0.00000  Uiso   1.00
C283   C     0.12434   0.37337   0.42301   0.00000  Uiso   1.00
C284   C     0.11194   0.41949   0.40344   0.00000  Uiso   1.00
C285   C     0.13875   0.51443   0.37067   0.00000  Uiso   1.00
C286   C     0.95817   0.28918   0.47275   0.00000  Uiso   1.00
C287   C     0.00429   0.34457   0.49256   0.00000  Uiso   1.00
C288   C     0.93700   0.37754   0.50480   0.00000  Uiso   1.00
C289   C     0.86254   0.44816   0.53070   0.00000  Uiso   1.00
C290   C     0.81536   0.20590   0.44330   0.00000  Uiso   1.00
C291   C     0.82148   0.09445   0.44607   0.00000  Uiso   1.00
C292   C     0.73119   0.98183   0.44201   0.00000  Uiso   1.00
C293   C     0.75425   0.89154   0.44554   0.00000  Uiso   1.00
C294   C     0.91395   0.28315   0.42764   0.00000  Uiso   1.00
C295   C     0.90141   0.32918   0.40808   0.00000  Uiso   1.00
C296   C     0.00230   0.39776   0.39610   0.00000  Uiso   1.00
C297   C     0.84872   0.26748   0.46542   0.00000  Uiso   1.00
C298   C     0.78135   0.30038   0.47763   0.00000  Uiso   1.00
C299   C     0.82736   0.35581   0.49746   0.00000  Uiso   1.00
H300   H     0.10207   0.26274   0.46250   0.00000  Uiso   1.00
H301   H     0.03884   0.04284   0.46261   0.00000  Uiso   1.00
H302   H     0.20902   0.39015   0.42869   0.00000  Uiso   1.00
H303   H     0.08899   0.36135   0.49823   0.00000  Uiso   1.00
H304   H     0.92048   0.78948   0.45950   0.00000  Uiso   1.00
H305   H     0.27933   0.52184   0.38797   0.00000  Uiso   1.00
H306   H     0.02622   0.46111   0.53462   0.00000  Uiso   1.00
H307   H     0.73015   0.18902   0.43759   0.00000  Uiso   1.00
H308   H     0.64651   0.96507   0.43634   0.00000  Uiso   1.00
H309   H     0.81670   0.31238   0.40241   0.00000  Uiso   1.00
H310   H     0.69666   0.28358   0.47195   0.00000  Uiso   1.00
H311   H     0.60206   0.72636   0.43817   0.00000  Uiso   1.00
H312   H     0.96091   0.45872   0.36665   0.00000  Uiso   1.00
H313   H     0.70780   0.39798   0.51329   0.00000  Uiso   1.00
O314   O     0.71297   0.61193   0.44845   0.00000  Uiso   1.00
O315   O     0.18377   0.57277   0.35462   0.00000  Uiso   1.00
O316   O     0.85169   0.49309   0.54701   0.00000  Uiso   1.00
N317   N     0.85701   0.80535   0.45465   0.00000  Uiso   1.00
N318   N     0.19252   0.49005   0.38778   0.00000  Uiso   1.00
N319   N     0.95589   0.43330   0.52488   0.00000  Uiso   1.00
N320   N     0.68567   0.77139   0.44318   0.00000  Uiso   1.00
N321   N     0.02117   0.45609   0.37631   0.00000  Uiso   1.00
N322   N     0.78455   0.39934   0.51340   0.00000  Uiso   1.00
C323   C     0.22899   0.98314   0.79012   0.00000  Uiso   1.00
C324   C     0.18522   0.06907   0.78673   0.00000  Uiso   1.00
C325   C     0.07189   0.04588   0.79027   0.00000  Uiso   1.00
C326   C     0.04938   0.13610   0.78622   0.00000  Uiso   1.00
C327   C     0.96806   0.25287   0.78206   0.00000  Uiso   1.00
C328   C     0.28145   0.97661   0.76830   0.00000  Uiso   1.00
C329   C     0.24903   0.87566   0.75634   0.00000  Uiso   1.00
C330   C     0.30755   0.88806   0.73677   0.00000  Uiso   1.00
C331   C     0.37568   0.86125   0.70400   0.00000  Uiso   1.00
C332   C     0.33100   0.04183   0.80609   0.00000  Uiso   1.00
C333   C     0.34028   0.99571   0.82590   0.00000  Uiso   1.00
C334   C     0.44054   0.06300   0.83814   0.00000  Uiso   1.00
C335   C     0.58562   0.13746   0.86403   0.00000  Uiso   1.00
C336   C     0.39054   0.18464   0.77663   0.00000  Uiso   1.00
C337   C     0.27297   0.17852   0.77940   0.00000  Uiso   1.00
C338   C     0.25063   0.26881   0.77534   0.00000  Uiso   1.00
C339   C     0.13729   0.24575   0.77888   0.00000  Uiso   1.00
C340   C     0.36919   0.08605   0.76097   0.00000  Uiso   1.00
C341   C     0.42778   0.09859   0.74141   0.00000  Uiso   1.00
C342   C     0.39546   0.99770   0.72943   0.00000  Uiso   1.00
C343   C     0.41876   0.15128   0.79876   0.00000  Uiso   1.00
C344   C     0.51902   0.21865   0.81097   0.00000  Uiso   1.00
C345   C     0.52845   0.17264   0.83079   0.00000  Uiso   1.00
H346   H     0.16067   0.89793   0.79583   0.00000  Uiso   1.00
H347   H     0.00400   0.96116   0.79594   0.00000  Uiso   1.00
H348   H     0.18113   0.79098   0.76202   0.00000  Uiso   1.00
H349   H     0.27236   0.91101   0.83156   0.00000  Uiso   1.00
H350   H     0.86899   0.07952   0.79283   0.00000  Uiso   1.00
H351   H     0.24250   0.72067   0.72131   0.00000  Uiso   1.00
H352   H     0.43488   0.97378   0.86795   0.00000  Uiso   1.00
H353   H     0.45887   0.26985   0.77092   0.00000  Uiso   1.00
H354   H     0.31856   0.35349   0.76967   0.00000  Uiso   1.00
H355   H     0.49568   0.18330   0.73575   0.00000  Uiso   1.00
H356   H     0.58691   0.30334   0.80529   0.00000  Uiso   1.00
H357   H     0.12430   0.39794   0.77150   0.00000  Uiso   1.00
H358   H     0.49781   0.03909   0.69998   0.00000  Uiso   1.00
H359   H     0.69019   0.29220   0.84662   0.00000  Uiso   1.00
O360   O     0.89896   0.28703   0.78179   0.00000  Uiso   1.00
O361   O     0.38900   0.81623   0.68795   0.00000  Uiso   1.00
O362   O     0.64139   0.14831   0.88034   0.00000  Uiso   1.00
N363   N     0.94834   0.14299   0.78799   0.00000  Uiso   1.00
N364   N     0.29754   0.80748   0.72112   0.00000  Uiso   1.00
N365   N     0.47741   0.04411   0.85821   0.00000  Uiso   1.00
N366   N     0.08572   0.31433   0.77651   0.00000  Uiso   1.00
N367   N     0.43491   0.97883   0.70964   0.00000  Uiso   1.00
N368   N     0.61479   0.21545   0.84674   0.00000  Uiso   1.00
C369   C     0.75416   0.77101   0.12346   0.00000  Uiso   1.00
C370   C     0.88386   0.81478   0.12007   0.00000  Uiso   1.00
C371   C     0.97399   0.92811   0.12361   0.00000  Uiso   1.00
C372   C     0.08672   0.95062   0.11955   0.00000  Uiso   1.00
C373   C     0.28480   0.03194   0.11539   0.00000  Uiso   1.00
C374   C     0.69516   0.71855   0.10163   0.00000  Uiso   1.00
C375   C     0.62663   0.75097   0.08968   0.00000  Uiso   1.00
C376   C     0.58051   0.69245   0.07011   0.00000  Uiso   1.00
C377   C     0.48557   0.62432   0.03734   0.00000  Uiso   1.00
C378   C     0.71082   0.66900   0.13942   0.00000  Uiso   1.00
C379   C     0.65543   0.65972   0.15923   0.00000  Uiso   1.00
C380   C     0.62246   0.55946   0.17147   0.00000  Uiso   1.00
C381   C     0.55184   0.41438   0.19737   0.00000  Uiso   1.00
C382   C     0.79410   0.60946   0.10996   0.00000  Uiso   1.00
C383   C     0.90555   0.72703   0.11274   0.00000  Uiso   1.00
C384   C     0.01817   0.74937   0.10868   0.00000  Uiso   1.00
C385   C     0.10846   0.86271   0.11221   0.00000  Uiso   1.00
C386   C     0.71685   0.63081   0.09430   0.00000  Uiso   1.00
C387   C     0.67082   0.57222   0.07475   0.00000  Uiso   1.00
C388   C     0.60224   0.60454   0.06276   0.00000  Uiso   1.00
C389   C     0.73252   0.58124   0.13209   0.00000  Uiso   1.00
C390   C     0.69962   0.48098   0.14430   0.00000  Uiso   1.00
C391   C     0.64419   0.47155   0.16413   0.00000  Uiso   1.00
H392   H     0.73726   0.83933   0.12916   0.00000  Uiso   1.00
H393   H     0.95716   0.99600   0.12928   0.00000  Uiso   1.00
H394   H     0.60985   0.81887   0.09536   0.00000  Uiso   1.00
H395   H     0.63865   0.72764   0.16490   0.00000  Uiso   1.00
H396   H     0.21052   0.13101   0.12616   0.00000  Uiso   1.00
H397   H     0.47816   0.75750   0.05464   0.00000  Uiso   1.00
H398   H     0.53889   0.56512   0.20128   0.00000  Uiso   1.00
H399   H     0.81098   0.54113   0.10425   0.00000  Uiso   1.00
H400   H     0.03493   0.68144   0.10300   0.00000  Uiso   1.00
H401   H     0.68762   0.50432   0.06908   0.00000  Uiso   1.00
H402   H     0.71642   0.41309   0.13862   0.00000  Uiso   1.00
H403   H     0.27364   0.87570   0.10484   0.00000  Uiso   1.00
H404   H     0.54128   0.50219   0.03331   0.00000  Uiso   1.00
H405   H     0.60202   0.30981   0.17996   0.00000  Uiso   1.00
O406   O     0.38807   0.10104   0.11512   0.00000  Uiso   1.00
O407   O     0.42723   0.61100   0.02129   0.00000  Uiso   1.00
O408   O     0.50691   0.35861   0.21368   0.00000  Uiso   1.00
N409   N     0.19465   0.05166   0.12132   0.00000  Uiso   1.00
N410   N     0.50995   0.70246   0.05445   0.00000  Uiso   1.00
N411   N     0.56670   0.52259   0.19155   0.00000  Uiso   1.00
N412   N     0.22861   0.91428   0.10985   0.00000  Uiso   1.00
N413   N     0.54391   0.56509   0.04297   0.00000  Uiso   1.00
N414   N     0.60066   0.38521   0.18007   0.00000  Uiso   1.00
C415   C     0.98314   0.75416   0.95679   0.00000  Uiso   1.00
C416   C     0.06907   0.88386   0.95340   0.00000  Uiso   1.00
C417   C     0.04588   0.97399   0.95694   0.00000  Uiso   1.00
C418   C     0.13610   0.08672   0.95288   0.00000  Uiso   1.00
C419   C     0.25287   0.28480   0.94873   0.00000  Uiso   1.00
C420   C     0.97661   0.69516   0.93497   0.00000  Uiso   1.00
C421   C     0.87566   0.62663   0.92301   0.00000  Uiso   1.00
C422   C     0.88806   0.58051   0.90344   0.00000  Uiso   1.00
C423   C     0.86125   0.48557   0.87067   0.00000  Uiso   1.00
C424   C     0.04183   0.71082   0.97275   0.00000  Uiso   1.00
C425   C     0.99571   0.65543   0.99256   0.00000  Uiso   1.00
C426   C     0.06300   0.62246   0.00480   0.00000  Uiso   1.00
C427   C     0.13746   0.55184   0.03070   0.00000  Uiso   1.00
C428   C     0.18464   0.79410   0.94330   0.00000  Uiso   1.00
C429   C     0.17852   0.90555   0.94607   0.00000  Uiso   1.00
C430   C     0.26881   0.01817   0.94201   0.00000  Uiso   1.00
C431   C     0.24575   0.10846   0.94554   0.00000  Uiso   1.00
C432   C     0.08605   0.71685   0.92764   0.00000  Uiso   1.00
C433   C     0.09859   0.67082   0.90808   0.00000  Uiso   1.00
C434   C     0.99770   0.60224   0.89610   0.00000  Uiso   1.00
C435   C     0.15128   0.73252   0.96542   0.00000  Uiso   1.00
C436   C     0.21865   0.69962   0.97763   0.00000  Uiso   1.00
C437   C     0.17264   0.64419   0.99746   0.00000  Uiso   1.00
H438   H     0.89793   0.73726   0.96250   0.00000  Uiso   1.00
H439   H     0.96116   0.95716   0.96261   0.00000  Uiso   1.00
H440   H     0.79098   0.60985   0.92869   0.00000  Uiso   1.00
H441   H     0.91101   0.63865   0.99823   0.00000  Uiso   1.00
H442   H     0.07952   0.21052   0.95950   0.00000  Uiso   1.00
H443   H     0.72067   0.47816   0.88797   0.00000  Uiso   1.00
H444   H     0.97378   0.53889   0.03462   0.00000  Uiso   1.00
H445   H     0.26985   0.81098   0.93759   0.00000  Uiso   1.00
H446   H     0.35349   0.03493   0.93634   0.00000  Uiso   1.00
H447   H     0.18330   0.68762   0.90241   0.00000  Uiso   1.00
H448   H     0.30334   0.71642   0.97195   0.00000  Uiso   1.00
H449   H     0.39794   0.27364   0.93817   0.00000  Uiso   1.00
H450   H     0.03909   0.54128   0.86665   0.00000  Uiso   1.00
H451   H     0.29220   0.60202   0.01329   0.00000  Uiso   1.00
O452   O     0.28703   0.38807   0.94845   0.00000  Uiso   1.00
O453   O     0.81623   0.42723   0.85462   0.00000  Uiso   1.00
O454   O     0.14831   0.50691   0.04701   0.00000  Uiso   1.00
N455   N     0.14299   0.19465   0.95465   0.00000  Uiso   1.00
N456   N     0.80748   0.50995   0.88778   0.00000  Uiso   1.00
N457   N     0.04411   0.56670   0.02488   0.00000  Uiso   1.00
N458   N     0.31433   0.22861   0.94318   0.00000  Uiso   1.00
N459   N     0.97883   0.54391   0.87631   0.00000  Uiso   1.00
N460   N     0.21545   0.60066   0.01340   0.00000  Uiso   1.00
C461   C     0.77101   0.01686   0.29012   0.00000  Uiso   1.00
C462   C     0.81478   0.93093   0.28673   0.00000  Uiso   1.00
C463   C     0.92811   0.95412   0.29027   0.00000  Uiso   1.00
C464   C     0.95062   0.86390   0.28622   0.00000  Uiso   1.00
C465   C     0.03194   0.74713   0.28206   0.00000  Uiso   1.00
C466   C     0.71855   0.02339   0.26830   0.00000  Uiso   1.00
C467   C     0.75097   0.12434   0.25634   0.00000  Uiso   1.00
C468   C     0.69245   0.11194   0.23677   0.00000  Uiso   1.00
C469   C     0.62432   0.13875   0.20400   0.00000  Uiso   1.00
C470   C     0.66900   0.95817   0.30609   0.00000  Uiso   1.00
C471   C     0.65972   0.00429   0.32590   0.00000  Uiso   1.00
C472   C     0.55946   0.93700   0.33814   0.00000  Uiso   1.00
C473   C     0.41438   0.86254   0.36403   0.00000  Uiso   1.00
C474   C     0.60946   0.81536   0.27663   0.00000  Uiso   1.00
C475   C     0.72703   0.82148   0.27940   0.00000  Uiso   1.00
C476   C     0.74937   0.73119   0.27534   0.00000  Uiso   1.00
C477   C     0.86271   0.75425   0.27888   0.00000  Uiso   1.00
C478   C     0.63081   0.91395   0.26097   0.00000  Uiso   1.00
C479   C     0.57222   0.90141   0.24141   0.00000  Uiso   1.00
C480   C     0.60454   0.00230   0.22943   0.00000  Uiso   1.00
C481   C     0.58124   0.84872   0.29876   0.00000  Uiso   1.00
C482   C     0.48098   0.78135   0.31097   0.00000  Uiso   1.00
C483   C     0.47155   0.82736   0.33079   0.00000  Uiso   1.00
H484   H     0.83933   0.10207   0.29583   0.00000  Uiso   1.00
H485   H     0.99600   0.03884   0.29594   0.00000  Uiso   1.00
H486   H     0.81887   0.20902   0.26202   0.00000  Uiso   1.00
H487   H     0.72764   0.08899   0.33156   0.00000  Uiso   1.00
H488   H     0.13101   0.92048   0.29283   0.00000  Uiso   1.00
H489   H     0.75750   0.27933   0.22131   0.00000  Uiso   1.00
H490   H     0.56512   0.02622   0.36795   0.00000  Uiso   1.00
H491   H     0.54113   0.73015   0.27092   0.00000  Uiso   1.00
H492   H     0.68144   0.64651   0.26967   0.00000  Uiso   1.00
H493   H     0.50432   0.81670   0.23575   0.00000  Uiso   1.00
H494   H     0.41309   0.69666   0.30529   0.00000  Uiso   1.00
H495   H     0.87570   0.60206   0.27150   0.00000  Uiso   1.00
H496   H     0.50219   0.96091   0.19998   0.00000  Uiso   1.00
H497   H     0.30981   0.70780   0.34662   0.00000  Uiso   1.00
O498   O     0.10104   0.71297   0.28179   0.00000  Uiso   1.00
O499   O     0.61100   0.18377   0.18795   0.00000  Uiso   1.00
O500   O     0.35861   0.85169   0.38034   0.00000  Uiso   1.00
N501   N     0.05166   0.85701   0.28799   0.00000  Uiso   1.00
N502   N     0.70246   0.19252   0.22112   0.00000  Uiso   1.00
N503   N     0.52259   0.95589   0.35821   0.00000  Uiso   1.00
N504   N     0.91428   0.68567   0.27651   0.00000  Uiso   1.00
N505   N     0.56509   0.02117   0.20964   0.00000  Uiso   1.00
N506   N     0.38521   0.78455   0.34674   0.00000  Uiso   1.00
C507   C     0.24584   0.22899   0.62346   0.00000  Uiso   1.00
C508   C     0.11614   0.18522   0.62007   0.00000  Uiso   1.00
C509   C     0.02601   0.07189   0.62361   0.00000  Uiso   1.00
C510   C     0.91328   0.04938   0.61955   0.00000  Uiso   1.00
C511   C     0.71520   0.96806   0.61539   0.00000  Uiso   1.00
C512   C     0.30484   0.28145   0.60163   0.00000  Uiso   1.00
C513   C     0.37337   0.24903   0.58968   0.00000  Uiso   1.00
C514   C     0.41949   0.30755   0.57011   0.00000  Uiso   1.00
C515   C     0.51443   0.37568   0.53734   0.00000  Uiso   1.00
C516   C     0.28918   0.33100   0.63942   0.00000  Uiso   1.00
C517   C     0.34457   0.34028   0.65923   0.00000  Uiso   1.00
C518   C     0.37754   0.44054   0.67147   0.00000  Uiso   1.00
C519   C     0.44816   0.58562   0.69737   0.00000  Uiso   1.00
C520   C     0.20590   0.39054   0.60996   0.00000  Uiso   1.00
C521   C     0.09445   0.27297   0.61274   0.00000  Uiso   1.00
C522   C     0.98183   0.25063   0.60868   0.00000  Uiso   1.00
C523   C     0.89154   0.13729   0.61221   0.00000  Uiso   1.00
C524   C     0.28315   0.36919   0.59430   0.00000  Uiso   1.00
C525   C     0.32918   0.42778   0.57475   0.00000  Uiso   1.00
C526   C     0.39776   0.39546   0.56276   0.00000  Uiso   1.00
C527   C     0.26748   0.41876   0.63209   0.00000  Uiso   1.00
C528   C     0.30038   0.51902   0.64430   0.00000  Uiso   1.00
C529   C     0.35581   0.52845   0.66413   0.00000  Uiso   1.00
H530   H     0.26274   0.16067   0.62916   0.00000  Uiso   1.00
H531   H     0.04284   0.00400   0.62928   0.00000  Uiso   1.00
H532   H     0.39015   0.18113   0.59536   0.00000  Uiso   1.00
H533   H     0.36135   0.27236   0.66490   0.00000  Uiso   1.00
H534   H     0.78948   0.86899   0.62616   0.00000  Uiso   1.00
H535   H     0.52184   0.24250   0.55464   0.00000  Uiso   1.00
H536   H     0.46111   0.43488   0.70128   0.00000  Uiso   1.00
H537   H     0.18902   0.45887   0.60425   0.00000  Uiso   1.00
H538   H     0.96507   0.31856   0.60300   0.00000  Uiso   1.00
H539   H     0.31238   0.49568   0.56908   0.00000  Uiso   1.00
H540   H     0.28358   0.58691   0.63862   0.00000  Uiso   1.00
H541   H     0.72636   0.12430   0.60484   0.00000  Uiso   1.00
H542   H     0.45872   0.49781   0.53331   0.00000  Uiso   1.00
H543   H     0.39798   0.69019   0.67996   0.00000  Uiso   1.00
O544   O     0.61193   0.89896   0.61512   0.00000  Uiso   1.00
O545   O     0.57277   0.38900   0.52129   0.00000  Uiso   1.00
O546   O     0.49309   0.64139   0.71368   0.00000  Uiso   1.00
N547   N     0.80535   0.94834   0.62132   0.00000  Uiso   1.00
N548   N     0.49005   0.29754   0.55445   0.00000  Uiso   1.00
N549   N     0.43330   0.47741   0.69155   0.00000  Uiso   1.00
N550   N     0.77139   0.08572   0.60985   0.00000  Uiso   1.00
N551   N     0.45609   0.43491   0.54297   0.00000  Uiso   1.00
N552   N     0.39934   0.61479   0.68007   0.00000  Uiso   1.00
