data_job_03556
_audit_creation_date              2018-12-19
_audit_creation_method            'Materials Studio'
_symmetry_space_group_name_H-M    'P1'
_symmetry_Int_Tables_number       1
_symmetry_cell_setting            triclinic
loop_
_symmetry_equiv_pos_as_xyz
  x,y,z
_cell_length_a                    24.9126
_cell_length_b                    24.9126
_cell_length_c                    12.4086
_cell_angle_alpha                 90.0000
_cell_angle_beta                  90.0000
_cell_angle_gamma                 90.0000
loop_
_atom_site_label
_atom_site_type_symbol
_atom_site_fract_x
_atom_site_fract_y
_atom_site_fract_z
_atom_site_U_iso_or_equiv
_atom_site_adp_type
_atom_site_occupancy
C1     C     0.09515   0.68485   0.53780   0.00000  Uiso   1.00
C2     C     0.10750   0.65456   0.43392   0.00000  Uiso   1.00
C3     C     0.07094   0.62509   0.37376   0.00000  Uiso   1.00
C4     C     0.09014   0.60034   0.28122   0.00000  Uiso   1.00
C5     C     0.10114   0.55259   0.12469   0.00000  Uiso   1.00
C6     C     0.13383   0.66293   0.62226   0.00000  Uiso   1.00
C7     C     0.11941   0.64049   0.72045   0.00000  Uiso   1.00
C8     C     0.16078   0.62279   0.78646   0.00000  Uiso   1.00
C9     C     0.21266   0.58806   0.92237   0.00000  Uiso   1.00
C10    C     0.11203   0.74284   0.51791   0.00000  Uiso   1.00
C11    C     0.07929   0.78761   0.52841   0.00000  Uiso   1.00
C12    C     0.10231   0.83719   0.50659   0.00000  Uiso   1.00
C13    C     0.12034   0.92654   0.48049   0.00000  Uiso   1.00
C14    C     0.19426   0.69330   0.48044   0.00000  Uiso   1.00
C15    C     0.16134   0.65916   0.40277   0.00000  Uiso   1.00
C16    C     0.18060   0.63444   0.31029   0.00000  Uiso   1.00
C17    C     0.14407   0.60494   0.25000   0.00000  Uiso   1.00
C18    C     0.18767   0.66752   0.59110   0.00000  Uiso   1.00
C19    C     0.22907   0.64984   0.65699   0.00000  Uiso   1.00
C20    C     0.21472   0.62739   0.75525   0.00000  Uiso   1.00
C21    C     0.16587   0.74744   0.48675   0.00000  Uiso   1.00
C22    C     0.18894   0.79696   0.46493   0.00000  Uiso   1.00
C23    C     0.15624   0.84179   0.47538   0.00000  Uiso   1.00
H24    H     0.05324   0.68127   0.56206   0.00000  Uiso   1.00
H25    H     0.02929   0.62154   0.39790   0.00000  Uiso   1.00
H26    H     0.07775   0.63695   0.74455   0.00000  Uiso   1.00
H27    H     0.03763   0.78404   0.55252   0.00000  Uiso   1.00
H28    H     0.02648   0.55733   0.20218   0.00000  Uiso   1.00
H29    H     0.12867   0.58983   0.93312   0.00000  Uiso   1.00
H30    H     0.04407   0.90000   0.52820   0.00000  Uiso   1.00
H31    H     0.23618   0.69688   0.45618   0.00000  Uiso   1.00
H32    H     0.22226   0.63800   0.28620   0.00000  Uiso   1.00
H33    H     0.27072   0.65341   0.63285   0.00000  Uiso   1.00
H34    H     0.23061   0.80050   0.44082   0.00000  Uiso   1.00
H35    H     0.18310   0.57069   0.11152   0.00000  Uiso   1.00
H36    H     0.28529   0.60319   0.84247   0.00000  Uiso   1.00
H37    H     0.20069   0.91336   0.43754   0.00000  Uiso   1.00
O38    O     0.09234   0.52498   0.04697   0.00000  Uiso   1.00
O39    O     0.22641   0.56763   0.00594   0.00000  Uiso   1.00
O40    O     0.11541   0.97456   0.47468   0.00000  Uiso   1.00
N41    N     0.06524   0.56856   0.20416   0.00000  Uiso   1.00
N42    N     0.16079   0.59894   0.88754   0.00000  Uiso   1.00
N43    N     0.08170   0.88892   0.50899   0.00000  Uiso   1.00
N44    N     0.14952   0.57575   0.15538   0.00000  Uiso   1.00
N45    N     0.24506   0.60613   0.83875   0.00000  Uiso   1.00
N46    N     0.16598   0.89611   0.46021   0.00000  Uiso   1.00
C47    C     0.90485   0.31515   0.53780   0.00000  Uiso   1.00
C48    C     0.89250   0.34544   0.43392   0.00000  Uiso   1.00
C49    C     0.92906   0.37491   0.37376   0.00000  Uiso   1.00
C50    C     0.90986   0.39966   0.28122   0.00000  Uiso   1.00
C51    C     0.89886   0.44741   0.12469   0.00000  Uiso   1.00
C52    C     0.86617   0.33707   0.62226   0.00000  Uiso   1.00
C53    C     0.88059   0.35951   0.72045   0.00000  Uiso   1.00
C54    C     0.83922   0.37721   0.78646   0.00000  Uiso   1.00
C55    C     0.78734   0.41194   0.92237   0.00000  Uiso   1.00
C56    C     0.88797   0.25716   0.51791   0.00000  Uiso   1.00
C57    C     0.92071   0.21239   0.52841   0.00000  Uiso   1.00
C58    C     0.89769   0.16281   0.50659   0.00000  Uiso   1.00
C59    C     0.87966   0.07346   0.48049   0.00000  Uiso   1.00
C60    C     0.80574   0.30670   0.48044   0.00000  Uiso   1.00
C61    C     0.83866   0.34084   0.40277   0.00000  Uiso   1.00
C62    C     0.81940   0.36556   0.31029   0.00000  Uiso   1.00
C63    C     0.85593   0.39506   0.25000   0.00000  Uiso   1.00
C64    C     0.81233   0.33248   0.59110   0.00000  Uiso   1.00
C65    C     0.77093   0.35016   0.65699   0.00000  Uiso   1.00
C66    C     0.78528   0.37261   0.75525   0.00000  Uiso   1.00
C67    C     0.83413   0.25256   0.48675   0.00000  Uiso   1.00
C68    C     0.81106   0.20304   0.46493   0.00000  Uiso   1.00
C69    C     0.84376   0.15821   0.47538   0.00000  Uiso   1.00
H70    H     0.94676   0.31873   0.56206   0.00000  Uiso   1.00
H71    H     0.97071   0.37846   0.39790   0.00000  Uiso   1.00
H72    H     0.92225   0.36305   0.74455   0.00000  Uiso   1.00
H73    H     0.96237   0.21596   0.55252   0.00000  Uiso   1.00
H74    H     0.97352   0.44267   0.20218   0.00000  Uiso   1.00
H75    H     0.87133   0.41017   0.93312   0.00000  Uiso   1.00
H76    H     0.95593   0.10000   0.52820   0.00000  Uiso   1.00
H77    H     0.76382   0.30312   0.45618   0.00000  Uiso   1.00
H78    H     0.77774   0.36200   0.28620   0.00000  Uiso   1.00
H79    H     0.72928   0.34659   0.63285   0.00000  Uiso   1.00
H80    H     0.76939   0.19950   0.44082   0.00000  Uiso   1.00
H81    H     0.81690   0.42931   0.11152   0.00000  Uiso   1.00
H82    H     0.71471   0.39681   0.84247   0.00000  Uiso   1.00
H83    H     0.79931   0.08664   0.43754   0.00000  Uiso   1.00
O84    O     0.90766   0.47502   0.04697   0.00000  Uiso   1.00
O85    O     0.77359   0.43237   0.00594   0.00000  Uiso   1.00
O86    O     0.88459   0.02544   0.47468   0.00000  Uiso   1.00
N87    N     0.93476   0.43144   0.20416   0.00000  Uiso   1.00
N88    N     0.83921   0.40106   0.88754   0.00000  Uiso   1.00
N89    N     0.91830   0.11108   0.50899   0.00000  Uiso   1.00
N90    N     0.85048   0.42425   0.15538   0.00000  Uiso   1.00
N91    N     0.75494   0.39387   0.83875   0.00000  Uiso   1.00
N92    N     0.83402   0.10389   0.46021   0.00000  Uiso   1.00
C93    C     0.81515   0.59515   0.03780   0.00000  Uiso   1.00
C94    C     0.84544   0.60750   0.93392   0.00000  Uiso   1.00
C95    C     0.87491   0.57094   0.87376   0.00000  Uiso   1.00
C96    C     0.89966   0.59014   0.78122   0.00000  Uiso   1.00
C97    C     0.94741   0.60114   0.62469   0.00000  Uiso   1.00
C98    C     0.83707   0.63383   0.12226   0.00000  Uiso   1.00
C99    C     0.85951   0.61941   0.22045   0.00000  Uiso   1.00
C100   C     0.87721   0.66078   0.28646   0.00000  Uiso   1.00
C101   C     0.91194   0.71266   0.42237   0.00000  Uiso   1.00
C102   C     0.75716   0.61203   0.01791   0.00000  Uiso   1.00
C103   C     0.71239   0.57929   0.02841   0.00000  Uiso   1.00
C104   C     0.66281   0.60231   0.00659   0.00000  Uiso   1.00
C105   C     0.57346   0.62034   0.98049   0.00000  Uiso   1.00
C106   C     0.80670   0.69426   0.98044   0.00000  Uiso   1.00
C107   C     0.84084   0.66134   0.90277   0.00000  Uiso   1.00
C108   C     0.86556   0.68060   0.81029   0.00000  Uiso   1.00
C109   C     0.89506   0.64407   0.75000   0.00000  Uiso   1.00
C110   C     0.83248   0.68767   0.09110   0.00000  Uiso   1.00
C111   C     0.85016   0.72907   0.15699   0.00000  Uiso   1.00
C112   C     0.87261   0.71472   0.25525   0.00000  Uiso   1.00
C113   C     0.75256   0.66587   0.98675   0.00000  Uiso   1.00
C114   C     0.70304   0.68894   0.96493   0.00000  Uiso   1.00
C115   C     0.65821   0.65624   0.97538   0.00000  Uiso   1.00
H116   H     0.81873   0.55324   0.06206   0.00000  Uiso   1.00
H117   H     0.87846   0.52929   0.89790   0.00000  Uiso   1.00
H118   H     0.86305   0.57775   0.24455   0.00000  Uiso   1.00
H119   H     0.71596   0.53763   0.05252   0.00000  Uiso   1.00
H120   H     0.94267   0.52648   0.70218   0.00000  Uiso   1.00
H121   H     0.91017   0.62867   0.43312   0.00000  Uiso   1.00
H122   H     0.60000   0.54407   0.02820   0.00000  Uiso   1.00
H123   H     0.80312   0.73618   0.95618   0.00000  Uiso   1.00
H124   H     0.86200   0.72226   0.78620   0.00000  Uiso   1.00
H125   H     0.84659   0.77072   0.13285   0.00000  Uiso   1.00
H126   H     0.69950   0.73061   0.94082   0.00000  Uiso   1.00
H127   H     0.92931   0.68310   0.61152   0.00000  Uiso   1.00
H128   H     0.89681   0.78529   0.34247   0.00000  Uiso   1.00
H129   H     0.58664   0.70069   0.93754   0.00000  Uiso   1.00
O130   O     0.97502   0.59234   0.54697   0.00000  Uiso   1.00
O131   O     0.93237   0.72641   0.50594   0.00000  Uiso   1.00
O132   O     0.52544   0.61541   0.97468   0.00000  Uiso   1.00
N133   N     0.93144   0.56524   0.70416   0.00000  Uiso   1.00
N134   N     0.90106   0.66079   0.38754   0.00000  Uiso   1.00
N135   N     0.61108   0.58170   0.00899   0.00000  Uiso   1.00
N136   N     0.92425   0.64952   0.65538   0.00000  Uiso   1.00
N137   N     0.89387   0.74506   0.33875   0.00000  Uiso   1.00
N138   N     0.60389   0.66598   0.96021   0.00000  Uiso   1.00
C139   C     0.18485   0.40485   0.03780   0.00000  Uiso   1.00
C140   C     0.15456   0.39250   0.93392   0.00000  Uiso   1.00
C141   C     0.12509   0.42906   0.87376   0.00000  Uiso   1.00
C142   C     0.10034   0.40986   0.78122   0.00000  Uiso   1.00
C143   C     0.05259   0.39886   0.62469   0.00000  Uiso   1.00
C144   C     0.16293   0.36617   0.12226   0.00000  Uiso   1.00
C145   C     0.14049   0.38059   0.22045   0.00000  Uiso   1.00
C146   C     0.12279   0.33922   0.28646   0.00000  Uiso   1.00
C147   C     0.08806   0.28734   0.42237   0.00000  Uiso   1.00
C148   C     0.24284   0.38797   0.01791   0.00000  Uiso   1.00
C149   C     0.28761   0.42071   0.02841   0.00000  Uiso   1.00
C150   C     0.33719   0.39769   0.00659   0.00000  Uiso   1.00
C151   C     0.42654   0.37966   0.98049   0.00000  Uiso   1.00
C152   C     0.19330   0.30574   0.98044   0.00000  Uiso   1.00
C153   C     0.15916   0.33866   0.90277   0.00000  Uiso   1.00
C154   C     0.13444   0.31940   0.81029   0.00000  Uiso   1.00
C155   C     0.10494   0.35593   0.75000   0.00000  Uiso   1.00
C156   C     0.16752   0.31233   0.09110   0.00000  Uiso   1.00
C157   C     0.14984   0.27093   0.15699   0.00000  Uiso   1.00
C158   C     0.12739   0.28528   0.25525   0.00000  Uiso   1.00
C159   C     0.24744   0.33413   0.98675   0.00000  Uiso   1.00
C160   C     0.29696   0.31106   0.96493   0.00000  Uiso   1.00
C161   C     0.34179   0.34376   0.97538   0.00000  Uiso   1.00
H162   H     0.18127   0.44676   0.06206   0.00000  Uiso   1.00
H163   H     0.12154   0.47071   0.89790   0.00000  Uiso   1.00
H164   H     0.13695   0.42225   0.24455   0.00000  Uiso   1.00
H165   H     0.28404   0.46237   0.05252   0.00000  Uiso   1.00
H166   H     0.05733   0.47352   0.70218   0.00000  Uiso   1.00
H167   H     0.08983   0.37133   0.43312   0.00000  Uiso   1.00
H168   H     0.40000   0.45593   0.02820   0.00000  Uiso   1.00
H169   H     0.19688   0.26382   0.95618   0.00000  Uiso   1.00
H170   H     0.13800   0.27774   0.78620   0.00000  Uiso   1.00
H171   H     0.15341   0.22928   0.13285   0.00000  Uiso   1.00
H172   H     0.30050   0.26939   0.94082   0.00000  Uiso   1.00
H173   H     0.07069   0.31690   0.61152   0.00000  Uiso   1.00
H174   H     0.10319   0.21471   0.34247   0.00000  Uiso   1.00
H175   H     0.41336   0.29931   0.93754   0.00000  Uiso   1.00
O176   O     0.02498   0.40766   0.54697   0.00000  Uiso   1.00
O177   O     0.06763   0.27359   0.50594   0.00000  Uiso   1.00
O178   O     0.47456   0.38459   0.97468   0.00000  Uiso   1.00
N179   N     0.06856   0.43476   0.70416   0.00000  Uiso   1.00
N180   N     0.09894   0.33921   0.38754   0.00000  Uiso   1.00
N181   N     0.38892   0.41830   0.00899   0.00000  Uiso   1.00
N182   N     0.07575   0.35048   0.65538   0.00000  Uiso   1.00
N183   N     0.10613   0.25494   0.33875   0.00000  Uiso   1.00
N184   N     0.39611   0.33402   0.96021   0.00000  Uiso   1.00
C185   C     0.40485   0.81515   0.96220   0.00000  Uiso   1.00
C186   C     0.39250   0.84544   0.06608   0.00000  Uiso   1.00
C187   C     0.42906   0.87491   0.12624   0.00000  Uiso   1.00
C188   C     0.40986   0.89966   0.21878   0.00000  Uiso   1.00
C189   C     0.39886   0.94741   0.37531   0.00000  Uiso   1.00
C190   C     0.36617   0.83707   0.87774   0.00000  Uiso   1.00
C191   C     0.38059   0.85951   0.77955   0.00000  Uiso   1.00
C192   C     0.33922   0.87721   0.71354   0.00000  Uiso   1.00
C193   C     0.28734   0.91194   0.57763   0.00000  Uiso   1.00
C194   C     0.38797   0.75716   0.98209   0.00000  Uiso   1.00
C195   C     0.42071   0.71239   0.97159   0.00000  Uiso   1.00
C196   C     0.39769   0.66281   0.99341   0.00000  Uiso   1.00
C197   C     0.37966   0.57346   0.01951   0.00000  Uiso   1.00
C198   C     0.30574   0.80670   0.01956   0.00000  Uiso   1.00
C199   C     0.33866   0.84084   0.09723   0.00000  Uiso   1.00
C200   C     0.31940   0.86556   0.18971   0.00000  Uiso   1.00
C201   C     0.35593   0.89506   0.25000   0.00000  Uiso   1.00
C202   C     0.31233   0.83248   0.90890   0.00000  Uiso   1.00
C203   C     0.27093   0.85016   0.84301   0.00000  Uiso   1.00
C204   C     0.28528   0.87261   0.74475   0.00000  Uiso   1.00
C205   C     0.33413   0.75256   0.01325   0.00000  Uiso   1.00
C206   C     0.31106   0.70304   0.03507   0.00000  Uiso   1.00
C207   C     0.34376   0.65821   0.02462   0.00000  Uiso   1.00
H208   H     0.44676   0.81873   0.93794   0.00000  Uiso   1.00
H209   H     0.47071   0.87846   0.10210   0.00000  Uiso   1.00
H210   H     0.42225   0.86305   0.75545   0.00000  Uiso   1.00
H211   H     0.46237   0.71596   0.94748   0.00000  Uiso   1.00
H212   H     0.47352   0.94267   0.29782   0.00000  Uiso   1.00
H213   H     0.37133   0.91017   0.56688   0.00000  Uiso   1.00
H214   H     0.45593   0.60000   0.97180   0.00000  Uiso   1.00
H215   H     0.26382   0.80312   0.04382   0.00000  Uiso   1.00
H216   H     0.27774   0.86200   0.21380   0.00000  Uiso   1.00
H217   H     0.22928   0.84659   0.86715   0.00000  Uiso   1.00
H218   H     0.26939   0.69950   0.05918   0.00000  Uiso   1.00
H219   H     0.31690   0.92931   0.38848   0.00000  Uiso   1.00
H220   H     0.21471   0.89681   0.65753   0.00000  Uiso   1.00
H221   H     0.29931   0.58664   0.06246   0.00000  Uiso   1.00
O222   O     0.40766   0.97502   0.45303   0.00000  Uiso   1.00
O223   O     0.27359   0.93237   0.49406   0.00000  Uiso   1.00
O224   O     0.38459   0.52544   0.02532   0.00000  Uiso   1.00
N225   N     0.43476   0.93144   0.29584   0.00000  Uiso   1.00
N226   N     0.33921   0.90106   0.61246   0.00000  Uiso   1.00
N227   N     0.41830   0.61108   0.99101   0.00000  Uiso   1.00
N228   N     0.35048   0.92425   0.34462   0.00000  Uiso   1.00
N229   N     0.25494   0.89387   0.66125   0.00000  Uiso   1.00
N230   N     0.33402   0.60389   0.03979   0.00000  Uiso   1.00
C231   C     0.59515   0.18485   0.96220   0.00000  Uiso   1.00
C232   C     0.60750   0.15456   0.06608   0.00000  Uiso   1.00
C233   C     0.57094   0.12509   0.12624   0.00000  Uiso   1.00
C234   C     0.59014   0.10034   0.21878   0.00000  Uiso   1.00
C235   C     0.60114   0.05259   0.37531   0.00000  Uiso   1.00
C236   C     0.63383   0.16293   0.87774   0.00000  Uiso   1.00
C237   C     0.61941   0.14049   0.77955   0.00000  Uiso   1.00
C238   C     0.66078   0.12279   0.71354   0.00000  Uiso   1.00
C239   C     0.71266   0.08806   0.57763   0.00000  Uiso   1.00
C240   C     0.61203   0.24284   0.98209   0.00000  Uiso   1.00
C241   C     0.57929   0.28761   0.97159   0.00000  Uiso   1.00
C242   C     0.60231   0.33719   0.99341   0.00000  Uiso   1.00
C243   C     0.62034   0.42654   0.01951   0.00000  Uiso   1.00
C244   C     0.69426   0.19330   0.01956   0.00000  Uiso   1.00
C245   C     0.66134   0.15916   0.09723   0.00000  Uiso   1.00
C246   C     0.68060   0.13444   0.18971   0.00000  Uiso   1.00
C247   C     0.64407   0.10494   0.25000   0.00000  Uiso   1.00
C248   C     0.68767   0.16752   0.90890   0.00000  Uiso   1.00
C249   C     0.72907   0.14984   0.84301   0.00000  Uiso   1.00
C250   C     0.71472   0.12739   0.74475   0.00000  Uiso   1.00
C251   C     0.66587   0.24744   0.01325   0.00000  Uiso   1.00
C252   C     0.68894   0.29696   0.03507   0.00000  Uiso   1.00
C253   C     0.65624   0.34179   0.02462   0.00000  Uiso   1.00
H254   H     0.55324   0.18127   0.93794   0.00000  Uiso   1.00
H255   H     0.52929   0.12154   0.10210   0.00000  Uiso   1.00
H256   H     0.57775   0.13695   0.75545   0.00000  Uiso   1.00
H257   H     0.53763   0.28404   0.94748   0.00000  Uiso   1.00
H258   H     0.52648   0.05733   0.29782   0.00000  Uiso   1.00
H259   H     0.62867   0.08983   0.56688   0.00000  Uiso   1.00
H260   H     0.54407   0.40000   0.97180   0.00000  Uiso   1.00
H261   H     0.73618   0.19688   0.04382   0.00000  Uiso   1.00
H262   H     0.72226   0.13800   0.21380   0.00000  Uiso   1.00
H263   H     0.77072   0.15341   0.86715   0.00000  Uiso   1.00
H264   H     0.73061   0.30050   0.05918   0.00000  Uiso   1.00
H265   H     0.68310   0.07069   0.38848   0.00000  Uiso   1.00
H266   H     0.78529   0.10319   0.65753   0.00000  Uiso   1.00
H267   H     0.70069   0.41336   0.06246   0.00000  Uiso   1.00
O268   O     0.59234   0.02498   0.45303   0.00000  Uiso   1.00
O269   O     0.72641   0.06763   0.49406   0.00000  Uiso   1.00
O270   O     0.61541   0.47456   0.02532   0.00000  Uiso   1.00
N271   N     0.56524   0.06856   0.29584   0.00000  Uiso   1.00
N272   N     0.66079   0.09894   0.61246   0.00000  Uiso   1.00
N273   N     0.58170   0.38892   0.99101   0.00000  Uiso   1.00
N274   N     0.64952   0.07575   0.34462   0.00000  Uiso   1.00
N275   N     0.74506   0.10613   0.66125   0.00000  Uiso   1.00
N276   N     0.66598   0.39611   0.03979   0.00000  Uiso   1.00
C277   C     0.68485   0.90485   0.46220   0.00000  Uiso   1.00
C278   C     0.65456   0.89250   0.56608   0.00000  Uiso   1.00
C279   C     0.62509   0.92906   0.62624   0.00000  Uiso   1.00
C280   C     0.60034   0.90986   0.71878   0.00000  Uiso   1.00
C281   C     0.55259   0.89886   0.87531   0.00000  Uiso   1.00
C282   C     0.66293   0.86617   0.37774   0.00000  Uiso   1.00
C283   C     0.64049   0.88059   0.27955   0.00000  Uiso   1.00
C284   C     0.62279   0.83922   0.21354   0.00000  Uiso   1.00
C285   C     0.58806   0.78734   0.07763   0.00000  Uiso   1.00
C286   C     0.74284   0.88797   0.48209   0.00000  Uiso   1.00
C287   C     0.78761   0.92071   0.47159   0.00000  Uiso   1.00
C288   C     0.83719   0.89769   0.49341   0.00000  Uiso   1.00
C289   C     0.92654   0.87966   0.51951   0.00000  Uiso   1.00
C290   C     0.69330   0.80574   0.51956   0.00000  Uiso   1.00
C291   C     0.65916   0.83866   0.59723   0.00000  Uiso   1.00
C292   C     0.63444   0.81940   0.68971   0.00000  Uiso   1.00
C293   C     0.60494   0.85593   0.75000   0.00000  Uiso   1.00
C294   C     0.66752   0.81233   0.40890   0.00000  Uiso   1.00
C295   C     0.64984   0.77093   0.34301   0.00000  Uiso   1.00
C296   C     0.62739   0.78528   0.24475   0.00000  Uiso   1.00
C297   C     0.74744   0.83413   0.51325   0.00000  Uiso   1.00
C298   C     0.79696   0.81106   0.53507   0.00000  Uiso   1.00
C299   C     0.84179   0.84376   0.52462   0.00000  Uiso   1.00
H300   H     0.68127   0.94676   0.43794   0.00000  Uiso   1.00
H301   H     0.62154   0.97071   0.60210   0.00000  Uiso   1.00
H302   H     0.63695   0.92225   0.25545   0.00000  Uiso   1.00
H303   H     0.78404   0.96237   0.44748   0.00000  Uiso   1.00
H304   H     0.55733   0.97352   0.79782   0.00000  Uiso   1.00
H305   H     0.58983   0.87133   0.06688   0.00000  Uiso   1.00
H306   H     0.90000   0.95593   0.47180   0.00000  Uiso   1.00
H307   H     0.69688   0.76382   0.54382   0.00000  Uiso   1.00
H308   H     0.63800   0.77774   0.71380   0.00000  Uiso   1.00
H309   H     0.65341   0.72928   0.36715   0.00000  Uiso   1.00
H310   H     0.80050   0.76939   0.55918   0.00000  Uiso   1.00
H311   H     0.57069   0.81690   0.88848   0.00000  Uiso   1.00
H312   H     0.60319   0.71471   0.15753   0.00000  Uiso   1.00
H313   H     0.91336   0.79931   0.56246   0.00000  Uiso   1.00
O314   O     0.52498   0.90766   0.95303   0.00000  Uiso   1.00
O315   O     0.56763   0.77359   0.99406   0.00000  Uiso   1.00
O316   O     0.97456   0.88459   0.52532   0.00000  Uiso   1.00
N317   N     0.56856   0.93476   0.79584   0.00000  Uiso   1.00
N318   N     0.59894   0.83921   0.11246   0.00000  Uiso   1.00
N319   N     0.88892   0.91830   0.49101   0.00000  Uiso   1.00
N320   N     0.57575   0.85048   0.84462   0.00000  Uiso   1.00
N321   N     0.60613   0.75494   0.16125   0.00000  Uiso   1.00
N322   N     0.89611   0.83402   0.53979   0.00000  Uiso   1.00
C323   C     0.31515   0.09515   0.46220   0.00000  Uiso   1.00
C324   C     0.34544   0.10750   0.56608   0.00000  Uiso   1.00
C325   C     0.37491   0.07094   0.62624   0.00000  Uiso   1.00
C326   C     0.39966   0.09014   0.71878   0.00000  Uiso   1.00
C327   C     0.44741   0.10114   0.87531   0.00000  Uiso   1.00
C328   C     0.33707   0.13383   0.37774   0.00000  Uiso   1.00
C329   C     0.35951   0.11941   0.27955   0.00000  Uiso   1.00
C330   C     0.37721   0.16078   0.21354   0.00000  Uiso   1.00
C331   C     0.41194   0.21266   0.07763   0.00000  Uiso   1.00
C332   C     0.25716   0.11203   0.48209   0.00000  Uiso   1.00
C333   C     0.21239   0.07929   0.47159   0.00000  Uiso   1.00
C334   C     0.16281   0.10231   0.49341   0.00000  Uiso   1.00
C335   C     0.07346   0.12034   0.51951   0.00000  Uiso   1.00
C336   C     0.30670   0.19426   0.51956   0.00000  Uiso   1.00
C337   C     0.34084   0.16134   0.59723   0.00000  Uiso   1.00
C338   C     0.36556   0.18060   0.68971   0.00000  Uiso   1.00
C339   C     0.39506   0.14407   0.75000   0.00000  Uiso   1.00
C340   C     0.33248   0.18767   0.40890   0.00000  Uiso   1.00
C341   C     0.35016   0.22907   0.34301   0.00000  Uiso   1.00
C342   C     0.37261   0.21472   0.24475   0.00000  Uiso   1.00
C343   C     0.25256   0.16587   0.51325   0.00000  Uiso   1.00
C344   C     0.20304   0.18894   0.53507   0.00000  Uiso   1.00
C345   C     0.15821   0.15624   0.52462   0.00000  Uiso   1.00
H346   H     0.31873   0.05324   0.43794   0.00000  Uiso   1.00
H347   H     0.37846   0.02929   0.60210   0.00000  Uiso   1.00
H348   H     0.36305   0.07775   0.25545   0.00000  Uiso   1.00
H349   H     0.21596   0.03763   0.44748   0.00000  Uiso   1.00
H350   H     0.44267   0.02648   0.79782   0.00000  Uiso   1.00
H351   H     0.41017   0.12867   0.06688   0.00000  Uiso   1.00
H352   H     0.10000   0.04407   0.47180   0.00000  Uiso   1.00
H353   H     0.30312   0.23618   0.54382   0.00000  Uiso   1.00
H354   H     0.36200   0.22226   0.71380   0.00000  Uiso   1.00
H355   H     0.34659   0.27072   0.36715   0.00000  Uiso   1.00
H356   H     0.19950   0.23061   0.55918   0.00000  Uiso   1.00
H357   H     0.42931   0.18310   0.88848   0.00000  Uiso   1.00
H358   H     0.39681   0.28529   0.15753   0.00000  Uiso   1.00
H359   H     0.08664   0.20069   0.56246   0.00000  Uiso   1.00
O360   O     0.47502   0.09234   0.95303   0.00000  Uiso   1.00
O361   O     0.43237   0.22641   0.99406   0.00000  Uiso   1.00
O362   O     0.02544   0.11541   0.52532   0.00000  Uiso   1.00
N363   N     0.43144   0.06524   0.79584   0.00000  Uiso   1.00
N364   N     0.40106   0.16079   0.11246   0.00000  Uiso   1.00
N365   N     0.11108   0.08170   0.49101   0.00000  Uiso   1.00
N366   N     0.42425   0.14952   0.84462   0.00000  Uiso   1.00
N367   N     0.39387   0.24506   0.16125   0.00000  Uiso   1.00
N368   N     0.10389   0.16598   0.53979   0.00000  Uiso   1.00
