data_job_03804
_audit_creation_date              2018-12-19
_audit_creation_method            'Materials Studio'
_symmetry_space_group_name_H-M    'P1'
_symmetry_Int_Tables_number       1
_symmetry_cell_setting            triclinic
loop_
_symmetry_equiv_pos_as_xyz
  x,y,z
_cell_length_a                    14.8769
_cell_length_b                    13.9094
_cell_length_c                    13.9837
_cell_angle_alpha                 90.0000
_cell_angle_beta                  90.0000
_cell_angle_gamma                 90.0000
loop_
_atom_site_label
_atom_site_type_symbol
_atom_site_fract_x
_atom_site_fract_y
_atom_site_fract_z
_atom_site_U_iso_or_equiv
_atom_site_adp_type
_atom_site_occupancy
C1     C     0.94613   0.50765   0.08842   0.00000  Uiso   1.00
C2     C     0.02435   0.43726   0.09644   0.00000  Uiso   1.00
C3     C     0.04544   0.38251   0.17631   0.00000  Uiso   1.00
C4     C     0.11969   0.32244   0.16936   0.00000  Uiso   1.00
C5     C     0.23339   0.21395   0.19459   0.00000  Uiso   1.00
C6     C     0.98740   0.60411   0.06090   0.00000  Uiso   1.00
C7     C     0.97739   0.68964   0.11089   0.00000  Uiso   1.00
C8     C     0.02052   0.77003   0.07401   0.00000  Uiso   1.00
C9     C     0.07678   0.92060   0.04402   0.00000  Uiso   1.00
C10    C     0.89130   0.47519   0.00213   0.00000  Uiso   1.00
C11    C     0.80049   0.45234   0.00269   0.00000  Uiso   1.00
C12    C     0.76270   0.42420   0.91632   0.00000  Uiso   1.00
C13    C     0.66976   0.37459   0.79509   0.00000  Uiso   1.00
C14    C     0.04048   0.49833   0.93404   0.00000  Uiso   1.00
C15    C     0.07560   0.43220   0.01259   0.00000  Uiso   1.00
C16    C     0.14984   0.37220   0.00551   0.00000  Uiso   1.00
C17    C     0.17103   0.31736   0.08536   0.00000  Uiso   1.00
C18    C     0.03864   0.59905   0.97705   0.00000  Uiso   1.00
C19    C     0.08179   0.67933   0.94009   0.00000  Uiso   1.00
C20    C     0.07186   0.76496   0.99001   0.00000  Uiso   1.00
C21    C     0.94255   0.47012   0.91828   0.00000  Uiso   1.00
C22    C     0.90489   0.44202   0.83189   0.00000  Uiso   1.00
C23    C     0.81404   0.41913   0.83232   0.00000  Uiso   1.00
H24    H     0.90623   0.51159   0.15370   0.00000  Uiso   1.00
H25    H     0.00577   0.38645   0.24120   0.00000  Uiso   1.00
H26    H     0.93772   0.69354   0.17577   0.00000  Uiso   1.00
H27    H     0.76085   0.45627   0.06759   0.00000  Uiso   1.00
H28    H     0.13875   0.24550   0.30123   0.00000  Uiso   1.00
H29    H     0.99525   0.89302   0.16326   0.00000  Uiso   1.00
H30    H     0.62228   0.39269   0.93515   0.00000  Uiso   1.00
H31    H     0.08038   0.49439   0.86876   0.00000  Uiso   1.00
H32    H     0.18948   0.36829   0.94061   0.00000  Uiso   1.00
H33    H     0.12144   0.67539   0.87519   0.00000  Uiso   1.00
H34    H     0.94457   0.43811   0.76701   0.00000  Uiso   1.00
H35    H     0.28786   0.23077   0.05727   0.00000  Uiso   1.00
H36    H     0.14436   0.87830   0.91930   0.00000  Uiso   1.00
H37    H     0.77139   0.37796   0.69119   0.00000  Uiso   1.00
O38    O     0.28195   0.15553   0.23167   0.00000  Uiso   1.00
O39    O     0.09366   0.00505   0.05065   0.00000  Uiso   1.00
O40    O     0.60434   0.34862   0.75138   0.00000  Uiso   1.00
N41    N     0.15886   0.25933   0.23394   0.00000  Uiso   1.00
N42    N     0.02471   0.86472   0.10496   0.00000  Uiso   1.00
N43    N     0.67600   0.39697   0.89169   0.00000  Uiso   1.00
N44    N     0.23909   0.25140   0.10267   0.00000  Uiso   1.00
N45    N     0.10494   0.85679   0.97369   0.00000  Uiso   1.00
N46    N     0.75624   0.38904   0.76042   0.00000  Uiso   1.00
C47    C     0.05387   0.49235   0.58842   0.00000  Uiso   1.00
C48    C     0.97565   0.56274   0.59644   0.00000  Uiso   1.00
C49    C     0.95456   0.61749   0.67631   0.00000  Uiso   1.00
C50    C     0.88031   0.67756   0.66936   0.00000  Uiso   1.00
C51    C     0.76661   0.78605   0.69459   0.00000  Uiso   1.00
C52    C     0.01260   0.39589   0.56090   0.00000  Uiso   1.00
C53    C     0.02261   0.31036   0.61089   0.00000  Uiso   1.00
C54    C     0.97948   0.22997   0.57401   0.00000  Uiso   1.00
C55    C     0.92322   0.07940   0.54402   0.00000  Uiso   1.00
C56    C     0.10870   0.52481   0.50213   0.00000  Uiso   1.00
C57    C     0.19951   0.54766   0.50269   0.00000  Uiso   1.00
C58    C     0.23730   0.57580   0.41632   0.00000  Uiso   1.00
C59    C     0.33024   0.62541   0.29509   0.00000  Uiso   1.00
C60    C     0.95952   0.50167   0.43404   0.00000  Uiso   1.00
C61    C     0.92440   0.56780   0.51259   0.00000  Uiso   1.00
C62    C     0.85016   0.62780   0.50551   0.00000  Uiso   1.00
C63    C     0.82897   0.68264   0.58536   0.00000  Uiso   1.00
C64    C     0.96136   0.40095   0.47705   0.00000  Uiso   1.00
C65    C     0.91821   0.32067   0.44009   0.00000  Uiso   1.00
C66    C     0.92814   0.23504   0.49001   0.00000  Uiso   1.00
C67    C     0.05745   0.52988   0.41828   0.00000  Uiso   1.00
C68    C     0.09511   0.55798   0.33189   0.00000  Uiso   1.00
C69    C     0.18596   0.58087   0.33232   0.00000  Uiso   1.00
H70    H     0.09377   0.48841   0.65370   0.00000  Uiso   1.00
H71    H     0.99423   0.61355   0.74120   0.00000  Uiso   1.00
H72    H     0.06228   0.30646   0.67577   0.00000  Uiso   1.00
H73    H     0.23915   0.54373   0.56759   0.00000  Uiso   1.00
H74    H     0.86125   0.75450   0.80123   0.00000  Uiso   1.00
H75    H     0.00475   0.10698   0.66326   0.00000  Uiso   1.00
H76    H     0.37772   0.60731   0.43515   0.00000  Uiso   1.00
H77    H     0.91962   0.50561   0.36876   0.00000  Uiso   1.00
H78    H     0.81052   0.63171   0.44061   0.00000  Uiso   1.00
H79    H     0.87856   0.32461   0.37519   0.00000  Uiso   1.00
H80    H     0.05543   0.56189   0.26701   0.00000  Uiso   1.00
H81    H     0.71214   0.76923   0.55727   0.00000  Uiso   1.00
H82    H     0.85564   0.12170   0.41930   0.00000  Uiso   1.00
H83    H     0.22861   0.62204   0.19119   0.00000  Uiso   1.00
O84    O     0.71805   0.84447   0.73167   0.00000  Uiso   1.00
O85    O     0.90634   0.99495   0.55065   0.00000  Uiso   1.00
O86    O     0.39566   0.65138   0.25138   0.00000  Uiso   1.00
N87    N     0.84114   0.74067   0.73394   0.00000  Uiso   1.00
N88    N     0.97529   0.13528   0.60496   0.00000  Uiso   1.00
N89    N     0.32400   0.60303   0.39169   0.00000  Uiso   1.00
N90    N     0.76091   0.74860   0.60267   0.00000  Uiso   1.00
N91    N     0.89506   0.14321   0.47369   0.00000  Uiso   1.00
N92    N     0.24376   0.61096   0.26042   0.00000  Uiso   1.00
C93    C     0.44613   0.99235   0.08842   0.00000  Uiso   1.00
C94    C     0.52435   0.06274   0.09644   0.00000  Uiso   1.00
C95    C     0.54544   0.11749   0.17631   0.00000  Uiso   1.00
C96    C     0.61969   0.17756   0.16936   0.00000  Uiso   1.00
C97    C     0.73339   0.28605   0.19459   0.00000  Uiso   1.00
C98    C     0.48740   0.89589   0.06090   0.00000  Uiso   1.00
C99    C     0.47739   0.81036   0.11089   0.00000  Uiso   1.00
C100   C     0.52052   0.72997   0.07401   0.00000  Uiso   1.00
C101   C     0.57678   0.57940   0.04402   0.00000  Uiso   1.00
C102   C     0.39130   0.02481   0.00213   0.00000  Uiso   1.00
C103   C     0.30049   0.04766   0.00269   0.00000  Uiso   1.00
C104   C     0.26270   0.07580   0.91632   0.00000  Uiso   1.00
C105   C     0.16976   0.12541   0.79509   0.00000  Uiso   1.00
C106   C     0.54048   0.00167   0.93404   0.00000  Uiso   1.00
C107   C     0.57560   0.06780   0.01259   0.00000  Uiso   1.00
C108   C     0.64984   0.12780   0.00551   0.00000  Uiso   1.00
C109   C     0.67103   0.18264   0.08536   0.00000  Uiso   1.00
C110   C     0.53864   0.90095   0.97705   0.00000  Uiso   1.00
C111   C     0.58179   0.82067   0.94009   0.00000  Uiso   1.00
C112   C     0.57186   0.73504   0.99001   0.00000  Uiso   1.00
C113   C     0.44255   0.02988   0.91828   0.00000  Uiso   1.00
C114   C     0.40489   0.05798   0.83189   0.00000  Uiso   1.00
C115   C     0.31404   0.08087   0.83232   0.00000  Uiso   1.00
H116   H     0.40623   0.98841   0.15370   0.00000  Uiso   1.00
H117   H     0.50577   0.11355   0.24120   0.00000  Uiso   1.00
H118   H     0.43772   0.80646   0.17577   0.00000  Uiso   1.00
H119   H     0.26085   0.04373   0.06759   0.00000  Uiso   1.00
H120   H     0.63875   0.25450   0.30123   0.00000  Uiso   1.00
H121   H     0.49525   0.60698   0.16326   0.00000  Uiso   1.00
H122   H     0.12228   0.10731   0.93515   0.00000  Uiso   1.00
H123   H     0.58038   0.00561   0.86876   0.00000  Uiso   1.00
H124   H     0.68948   0.13171   0.94061   0.00000  Uiso   1.00
H125   H     0.62144   0.82461   0.87519   0.00000  Uiso   1.00
H126   H     0.44457   0.06189   0.76701   0.00000  Uiso   1.00
H127   H     0.78786   0.26923   0.05727   0.00000  Uiso   1.00
H128   H     0.64436   0.62170   0.91930   0.00000  Uiso   1.00
H129   H     0.27139   0.12204   0.69119   0.00000  Uiso   1.00
O130   O     0.78195   0.34447   0.23167   0.00000  Uiso   1.00
O131   O     0.59366   0.49495   0.05065   0.00000  Uiso   1.00
O132   O     0.10434   0.15138   0.75138   0.00000  Uiso   1.00
N133   N     0.65886   0.24067   0.23394   0.00000  Uiso   1.00
N134   N     0.52471   0.63528   0.10496   0.00000  Uiso   1.00
N135   N     0.17600   0.10303   0.89169   0.00000  Uiso   1.00
N136   N     0.73909   0.24860   0.10267   0.00000  Uiso   1.00
N137   N     0.60494   0.64321   0.97369   0.00000  Uiso   1.00
N138   N     0.25624   0.11096   0.76042   0.00000  Uiso   1.00
C139   C     0.55387   0.00765   0.58842   0.00000  Uiso   1.00
C140   C     0.47565   0.93726   0.59644   0.00000  Uiso   1.00
C141   C     0.45456   0.88251   0.67631   0.00000  Uiso   1.00
C142   C     0.38031   0.82244   0.66936   0.00000  Uiso   1.00
C143   C     0.26661   0.71395   0.69459   0.00000  Uiso   1.00
C144   C     0.51260   0.10411   0.56090   0.00000  Uiso   1.00
C145   C     0.52261   0.18964   0.61089   0.00000  Uiso   1.00
C146   C     0.47948   0.27003   0.57401   0.00000  Uiso   1.00
C147   C     0.42322   0.42060   0.54402   0.00000  Uiso   1.00
C148   C     0.60870   0.97519   0.50213   0.00000  Uiso   1.00
C149   C     0.69951   0.95234   0.50269   0.00000  Uiso   1.00
C150   C     0.73730   0.92420   0.41632   0.00000  Uiso   1.00
C151   C     0.83024   0.87459   0.29509   0.00000  Uiso   1.00
C152   C     0.45952   0.99833   0.43404   0.00000  Uiso   1.00
C153   C     0.42440   0.93220   0.51259   0.00000  Uiso   1.00
C154   C     0.35016   0.87220   0.50551   0.00000  Uiso   1.00
C155   C     0.32897   0.81736   0.58536   0.00000  Uiso   1.00
C156   C     0.46136   0.09905   0.47705   0.00000  Uiso   1.00
C157   C     0.41821   0.17933   0.44009   0.00000  Uiso   1.00
C158   C     0.42814   0.26496   0.49001   0.00000  Uiso   1.00
C159   C     0.55745   0.97012   0.41828   0.00000  Uiso   1.00
C160   C     0.59511   0.94202   0.33189   0.00000  Uiso   1.00
C161   C     0.68596   0.91913   0.33232   0.00000  Uiso   1.00
H162   H     0.59377   0.01159   0.65370   0.00000  Uiso   1.00
H163   H     0.49423   0.88645   0.74120   0.00000  Uiso   1.00
H164   H     0.56228   0.19354   0.67577   0.00000  Uiso   1.00
H165   H     0.73915   0.95627   0.56759   0.00000  Uiso   1.00
H166   H     0.36125   0.74550   0.80123   0.00000  Uiso   1.00
H167   H     0.50475   0.39302   0.66326   0.00000  Uiso   1.00
H168   H     0.87772   0.89269   0.43515   0.00000  Uiso   1.00
H169   H     0.41962   0.99439   0.36876   0.00000  Uiso   1.00
H170   H     0.31052   0.86829   0.44061   0.00000  Uiso   1.00
H171   H     0.37856   0.17539   0.37519   0.00000  Uiso   1.00
H172   H     0.55543   0.93811   0.26701   0.00000  Uiso   1.00
H173   H     0.21214   0.73077   0.55727   0.00000  Uiso   1.00
H174   H     0.35564   0.37830   0.41930   0.00000  Uiso   1.00
H175   H     0.72861   0.87796   0.19119   0.00000  Uiso   1.00
O176   O     0.21805   0.65553   0.73167   0.00000  Uiso   1.00
O177   O     0.40634   0.50505   0.55065   0.00000  Uiso   1.00
O178   O     0.89566   0.84862   0.25138   0.00000  Uiso   1.00
N179   N     0.34114   0.75933   0.73394   0.00000  Uiso   1.00
N180   N     0.47529   0.36472   0.60496   0.00000  Uiso   1.00
N181   N     0.82400   0.89697   0.39169   0.00000  Uiso   1.00
N182   N     0.26091   0.75140   0.60267   0.00000  Uiso   1.00
N183   N     0.39506   0.35679   0.47369   0.00000  Uiso   1.00
N184   N     0.74376   0.88904   0.26042   0.00000  Uiso   1.00
