data_job_04929
_audit_creation_date              2018-12-19
_audit_creation_method            'Materials Studio'
_symmetry_space_group_name_H-M    'P1'
_symmetry_Int_Tables_number       1
_symmetry_cell_setting            triclinic
loop_
_symmetry_equiv_pos_as_xyz
  x,y,z
_cell_length_a                    13.4045
_cell_length_b                    13.4045
_cell_length_c                    13.1531
_cell_angle_alpha                 90.0000
_cell_angle_beta                  90.0000
_cell_angle_gamma                 90.0000
loop_
_atom_site_label
_atom_site_type_symbol
_atom_site_fract_x
_atom_site_fract_y
_atom_site_fract_z
_atom_site_U_iso_or_equiv
_atom_site_adp_type
_atom_site_occupancy
C1     C     0.19929   0.76577   0.29346   0.00000  Uiso   1.00
C2     C     0.24193   0.77730   0.18663   0.00000  Uiso   1.00
C3     C     0.25935   0.70031   0.11835   0.00000  Uiso   1.00
C4     C     0.29872   0.72627   0.02437   0.00000  Uiso   1.00
C5     C     0.36176   0.72905   0.86225   0.00000  Uiso   1.00
C6     C     0.27538   0.81289   0.36504   0.00000  Uiso   1.00
C7     C     0.32090   0.76582   0.44677   0.00000  Uiso   1.00
C8     C     0.38842   0.82175   0.50299   0.00000  Uiso   1.00
C9     C     0.50333   0.87980   0.61790   0.00000  Uiso   1.00
C10    C     0.10726   0.83252   0.29756   0.00000  Uiso   1.00
C11    C     0.01143   0.80198   0.32260   0.00000  Uiso   1.00
C12    C     0.93741   0.87444   0.32203   0.00000  Uiso   1.00
C13    C     0.79130   0.96297   0.33218   0.00000  Uiso   1.00
C14    C     0.23824   0.94876   0.24798   0.00000  Uiso   1.00
C15    C     0.26309   0.87669   0.16192   0.00000  Uiso   1.00
C16    C     0.30245   0.90277   0.06802   0.00000  Uiso   1.00
C17    C     0.31991   0.82584   0.99961   0.00000  Uiso   1.00
C18    C     0.29654   0.91228   0.34033   0.00000  Uiso   1.00
C19    C     0.36400   0.96829   0.39644   0.00000  Uiso   1.00
C20    C     0.40962   0.92132   0.47824   0.00000  Uiso   1.00
C21    C     0.12842   0.93192   0.27285   0.00000  Uiso   1.00
C22    C     0.05454   0.00444   0.27226   0.00000  Uiso   1.00
C23    C     0.95861   0.97401   0.29728   0.00000  Uiso   1.00
H24    H     0.18282   0.68839   0.31271   0.00000  Uiso   1.00
H25    H     0.24297   0.62340   0.13750   0.00000  Uiso   1.00
H26    H     0.30450   0.68891   0.46588   0.00000  Uiso   1.00
H27    H     0.99509   0.72505   0.34171   0.00000  Uiso   1.00
H28    H     0.31902   0.59518   0.93237   0.00000  Uiso   1.00
H29    H     0.44875   0.73332   0.62480   0.00000  Uiso   1.00
H30    H     0.79628   0.80954   0.36297   0.00000  Uiso   1.00
H31    H     0.25472   0.02615   0.22874   0.00000  Uiso   1.00
H32    H     0.31881   0.97970   0.04892   0.00000  Uiso   1.00
H33    H     0.38035   0.04520   0.37730   0.00000  Uiso   1.00
H34    H     0.07094   0.08135   0.25313   0.00000  Uiso   1.00
H35    H     0.38059   0.88437   0.86048   0.00000  Uiso   1.00
H36    H     0.51031   0.02250   0.55291   0.00000  Uiso   1.00
H37    H     0.85784   0.09872   0.29108   0.00000  Uiso   1.00
O38    O     0.39070   0.70312   0.77966   0.00000  Uiso   1.00
O39    O     0.56088   0.88435   0.68811   0.00000  Uiso   1.00
O40    O     0.70486   0.98435   0.34459   0.00000  Uiso   1.00
N41    N     0.32470   0.66962   0.94012   0.00000  Uiso   1.00
N42    N     0.44600   0.79876   0.58749   0.00000  Uiso   1.00
N43    N     0.83600   0.87003   0.34273   0.00000  Uiso   1.00
N44    N     0.35782   0.82523   0.90144   0.00000  Uiso   1.00
N45    N     0.47912   0.95437   0.54880   0.00000  Uiso   1.00
N46    N     0.86912   0.02563   0.30404   0.00000  Uiso   1.00
C47    C     0.80071   0.23423   0.79346   0.00000  Uiso   1.00
C48    C     0.75807   0.22270   0.68663   0.00000  Uiso   1.00
C49    C     0.74065   0.29969   0.61835   0.00000  Uiso   1.00
C50    C     0.70128   0.27373   0.52437   0.00000  Uiso   1.00
C51    C     0.63824   0.27095   0.36225   0.00000  Uiso   1.00
C52    C     0.72462   0.18711   0.86504   0.00000  Uiso   1.00
C53    C     0.67910   0.23418   0.94677   0.00000  Uiso   1.00
C54    C     0.61158   0.17825   0.00299   0.00000  Uiso   1.00
C55    C     0.49667   0.12020   0.11790   0.00000  Uiso   1.00
C56    C     0.89274   0.16748   0.79756   0.00000  Uiso   1.00
C57    C     0.98857   0.19802   0.82260   0.00000  Uiso   1.00
C58    C     0.06259   0.12556   0.82203   0.00000  Uiso   1.00
C59    C     0.20870   0.03703   0.83218   0.00000  Uiso   1.00
C60    C     0.76176   0.05124   0.74798   0.00000  Uiso   1.00
C61    C     0.73691   0.12331   0.66192   0.00000  Uiso   1.00
C62    C     0.69755   0.09723   0.56802   0.00000  Uiso   1.00
C63    C     0.68009   0.17416   0.49961   0.00000  Uiso   1.00
C64    C     0.70346   0.08772   0.84033   0.00000  Uiso   1.00
C65    C     0.63600   0.03171   0.89644   0.00000  Uiso   1.00
C66    C     0.59038   0.07868   0.97824   0.00000  Uiso   1.00
C67    C     0.87158   0.06808   0.77285   0.00000  Uiso   1.00
C68    C     0.94546   0.99556   0.77226   0.00000  Uiso   1.00
C69    C     0.04139   0.02599   0.79728   0.00000  Uiso   1.00
H70    H     0.81718   0.31161   0.81271   0.00000  Uiso   1.00
H71    H     0.75703   0.37660   0.63750   0.00000  Uiso   1.00
H72    H     0.69550   0.31109   0.96588   0.00000  Uiso   1.00
H73    H     0.00491   0.27495   0.84171   0.00000  Uiso   1.00
H74    H     0.68098   0.40482   0.43237   0.00000  Uiso   1.00
H75    H     0.55125   0.26668   0.12480   0.00000  Uiso   1.00
H76    H     0.20372   0.19046   0.86297   0.00000  Uiso   1.00
H77    H     0.74528   0.97385   0.72874   0.00000  Uiso   1.00
H78    H     0.68119   0.02030   0.54892   0.00000  Uiso   1.00
H79    H     0.61965   0.95480   0.87730   0.00000  Uiso   1.00
H80    H     0.92906   0.91865   0.75313   0.00000  Uiso   1.00
H81    H     0.61941   0.11563   0.36048   0.00000  Uiso   1.00
H82    H     0.48969   0.97750   0.05291   0.00000  Uiso   1.00
H83    H     0.14216   0.90128   0.79108   0.00000  Uiso   1.00
O84    O     0.60930   0.29688   0.27966   0.00000  Uiso   1.00
O85    O     0.43912   0.11565   0.18811   0.00000  Uiso   1.00
O86    O     0.29514   0.01565   0.84459   0.00000  Uiso   1.00
N87    N     0.67530   0.33038   0.44012   0.00000  Uiso   1.00
N88    N     0.55400   0.20124   0.08749   0.00000  Uiso   1.00
N89    N     0.16400   0.12997   0.84273   0.00000  Uiso   1.00
N90    N     0.64218   0.17477   0.40144   0.00000  Uiso   1.00
N91    N     0.52088   0.04563   0.04880   0.00000  Uiso   1.00
N92    N     0.13088   0.97437   0.80404   0.00000  Uiso   1.00
C93    C     0.23423   0.19929   0.54346   0.00000  Uiso   1.00
C94    C     0.22270   0.24193   0.43663   0.00000  Uiso   1.00
C95    C     0.29969   0.25935   0.36835   0.00000  Uiso   1.00
C96    C     0.27373   0.29872   0.27437   0.00000  Uiso   1.00
C97    C     0.27095   0.36176   0.11225   0.00000  Uiso   1.00
C98    C     0.18711   0.27538   0.61504   0.00000  Uiso   1.00
C99    C     0.23418   0.32090   0.69677   0.00000  Uiso   1.00
C100   C     0.17825   0.38842   0.75299   0.00000  Uiso   1.00
C101   C     0.12020   0.50333   0.86790   0.00000  Uiso   1.00
C102   C     0.16748   0.10726   0.54756   0.00000  Uiso   1.00
C103   C     0.19802   0.01143   0.57260   0.00000  Uiso   1.00
C104   C     0.12556   0.93741   0.57203   0.00000  Uiso   1.00
C105   C     0.03703   0.79130   0.58218   0.00000  Uiso   1.00
C106   C     0.05124   0.23824   0.49798   0.00000  Uiso   1.00
C107   C     0.12331   0.26309   0.41192   0.00000  Uiso   1.00
C108   C     0.09723   0.30245   0.31802   0.00000  Uiso   1.00
C109   C     0.17416   0.31991   0.24961   0.00000  Uiso   1.00
C110   C     0.08772   0.29654   0.59033   0.00000  Uiso   1.00
C111   C     0.03171   0.36400   0.64644   0.00000  Uiso   1.00
C112   C     0.07868   0.40962   0.72824   0.00000  Uiso   1.00
C113   C     0.06808   0.12842   0.52285   0.00000  Uiso   1.00
C114   C     0.99556   0.05454   0.52226   0.00000  Uiso   1.00
C115   C     0.02599   0.95861   0.54728   0.00000  Uiso   1.00
H116   H     0.31161   0.18282   0.56271   0.00000  Uiso   1.00
H117   H     0.37660   0.24297   0.38750   0.00000  Uiso   1.00
H118   H     0.31109   0.30450   0.71588   0.00000  Uiso   1.00
H119   H     0.27495   0.99509   0.59171   0.00000  Uiso   1.00
H120   H     0.40482   0.31902   0.18237   0.00000  Uiso   1.00
H121   H     0.26668   0.44875   0.87480   0.00000  Uiso   1.00
H122   H     0.19046   0.79628   0.61297   0.00000  Uiso   1.00
H123   H     0.97385   0.25472   0.47874   0.00000  Uiso   1.00
H124   H     0.02030   0.31881   0.29892   0.00000  Uiso   1.00
H125   H     0.95480   0.38035   0.62730   0.00000  Uiso   1.00
H126   H     0.91865   0.07094   0.50313   0.00000  Uiso   1.00
H127   H     0.11563   0.38059   0.11048   0.00000  Uiso   1.00
H128   H     0.97750   0.51031   0.80291   0.00000  Uiso   1.00
H129   H     0.90128   0.85784   0.54108   0.00000  Uiso   1.00
O130   O     0.29688   0.39070   0.02966   0.00000  Uiso   1.00
O131   O     0.11565   0.56088   0.93811   0.00000  Uiso   1.00
O132   O     0.01565   0.70486   0.59459   0.00000  Uiso   1.00
N133   N     0.33038   0.32470   0.19012   0.00000  Uiso   1.00
N134   N     0.20124   0.44600   0.83749   0.00000  Uiso   1.00
N135   N     0.12997   0.83600   0.59273   0.00000  Uiso   1.00
N136   N     0.17477   0.35782   0.15144   0.00000  Uiso   1.00
N137   N     0.04563   0.47912   0.79880   0.00000  Uiso   1.00
N138   N     0.97437   0.86912   0.55404   0.00000  Uiso   1.00
C139   C     0.76577   0.80071   0.04346   0.00000  Uiso   1.00
C140   C     0.77730   0.75807   0.93663   0.00000  Uiso   1.00
C141   C     0.70031   0.74065   0.86835   0.00000  Uiso   1.00
C142   C     0.72627   0.70128   0.77437   0.00000  Uiso   1.00
C143   C     0.72905   0.63824   0.61225   0.00000  Uiso   1.00
C144   C     0.81289   0.72462   0.11504   0.00000  Uiso   1.00
C145   C     0.76582   0.67910   0.19677   0.00000  Uiso   1.00
C146   C     0.82175   0.61158   0.25299   0.00000  Uiso   1.00
C147   C     0.87980   0.49667   0.36790   0.00000  Uiso   1.00
C148   C     0.83252   0.89274   0.04756   0.00000  Uiso   1.00
C149   C     0.80198   0.98857   0.07260   0.00000  Uiso   1.00
C150   C     0.87444   0.06259   0.07203   0.00000  Uiso   1.00
C151   C     0.96297   0.20870   0.08218   0.00000  Uiso   1.00
C152   C     0.94876   0.76176   0.99798   0.00000  Uiso   1.00
C153   C     0.87669   0.73691   0.91192   0.00000  Uiso   1.00
C154   C     0.90277   0.69755   0.81802   0.00000  Uiso   1.00
C155   C     0.82584   0.68009   0.74961   0.00000  Uiso   1.00
C156   C     0.91228   0.70346   0.09033   0.00000  Uiso   1.00
C157   C     0.96829   0.63600   0.14644   0.00000  Uiso   1.00
C158   C     0.92132   0.59038   0.22824   0.00000  Uiso   1.00
C159   C     0.93192   0.87158   0.02285   0.00000  Uiso   1.00
C160   C     0.00444   0.94546   0.02226   0.00000  Uiso   1.00
C161   C     0.97401   0.04139   0.04728   0.00000  Uiso   1.00
H162   H     0.68839   0.81718   0.06271   0.00000  Uiso   1.00
H163   H     0.62340   0.75703   0.88750   0.00000  Uiso   1.00
H164   H     0.68891   0.69550   0.21588   0.00000  Uiso   1.00
H165   H     0.72505   0.00491   0.09171   0.00000  Uiso   1.00
H166   H     0.59518   0.68098   0.68237   0.00000  Uiso   1.00
H167   H     0.73332   0.55125   0.37480   0.00000  Uiso   1.00
H168   H     0.80954   0.20372   0.11297   0.00000  Uiso   1.00
H169   H     0.02615   0.74528   0.97874   0.00000  Uiso   1.00
H170   H     0.97970   0.68119   0.79892   0.00000  Uiso   1.00
H171   H     0.04520   0.61965   0.12730   0.00000  Uiso   1.00
H172   H     0.08135   0.92906   0.00313   0.00000  Uiso   1.00
H173   H     0.88437   0.61941   0.61048   0.00000  Uiso   1.00
H174   H     0.02250   0.48969   0.30291   0.00000  Uiso   1.00
H175   H     0.09872   0.14216   0.04108   0.00000  Uiso   1.00
O176   O     0.70312   0.60930   0.52966   0.00000  Uiso   1.00
O177   O     0.88435   0.43912   0.43811   0.00000  Uiso   1.00
O178   O     0.98435   0.29514   0.09459   0.00000  Uiso   1.00
N179   N     0.66962   0.67530   0.69012   0.00000  Uiso   1.00
N180   N     0.79876   0.55400   0.33749   0.00000  Uiso   1.00
N181   N     0.87003   0.16400   0.09273   0.00000  Uiso   1.00
N182   N     0.82523   0.64218   0.65144   0.00000  Uiso   1.00
N183   N     0.95437   0.52088   0.29880   0.00000  Uiso   1.00
N184   N     0.02563   0.13088   0.05404   0.00000  Uiso   1.00
