data_job_04069
_audit_creation_date              2018-12-19
_audit_creation_method            'Materials Studio'
_symmetry_space_group_name_H-M    'P1'
_symmetry_Int_Tables_number       1
_symmetry_cell_setting            triclinic
loop_
_symmetry_equiv_pos_as_xyz
  x,y,z
_cell_length_a                    15.8676
_cell_length_b                    15.8676
_cell_length_c                    18.8165
_cell_angle_alpha                 90.0000
_cell_angle_beta                  90.0000
_cell_angle_gamma                 90.0000
loop_
_atom_site_label
_atom_site_type_symbol
_atom_site_fract_x
_atom_site_fract_y
_atom_site_fract_z
_atom_site_U_iso_or_equiv
_atom_site_adp_type
_atom_site_occupancy
C1     C     0.72272   0.79193   0.75297   0.00000  Uiso   1.00
C2     C     0.65022   0.81652   0.70397   0.00000  Uiso   1.00
C3     C     0.56918   0.78375   0.70630   0.00000  Uiso   1.00
C4     C     0.51191   0.81445   0.65689   0.00000  Uiso   1.00
C5     C     0.39585   0.84327   0.58838   0.00000  Uiso   1.00
C6     C     0.79414   0.76305   0.70453   0.00000  Uiso   1.00
C7     C     0.83412   0.68532   0.70734   0.00000  Uiso   1.00
C8     C     0.89802   0.67102   0.65839   0.00000  Uiso   1.00
C9     C     0.00544   0.61685   0.59078   0.00000  Uiso   1.00
C10    C     0.75285   0.87353   0.78741   0.00000  Uiso   1.00
C11    C     0.75814   0.88870   0.85991   0.00000  Uiso   1.00
C12    C     0.78729   0.96742   0.88075   0.00000  Uiso   1.00
C13    C     0.83061   0.08479   0.94183   0.00000  Uiso   1.00
C14    C     0.76513   0.90474   0.66106   0.00000  Uiso   1.00
C15    C     0.67326   0.87779   0.65405   0.00000  Uiso   1.00
C16    C     0.61610   0.90855   0.60462   0.00000  Uiso   1.00
C17    C     0.53499   0.87583   0.60688   0.00000  Uiso   1.00
C18    C     0.81718   0.82431   0.65461   0.00000  Uiso   1.00
C19    C     0.88104   0.81013   0.60565   0.00000  Uiso   1.00
C20    C     0.92110   0.73240   0.60838   0.00000  Uiso   1.00
C21    C     0.77589   0.93480   0.73749   0.00000  Uiso   1.00
C22    C     0.80505   0.01351   0.75822   0.00000  Uiso   1.00
C23    C     0.81037   0.02880   0.83074   0.00000  Uiso   1.00
H24    H     0.70479   0.74423   0.79183   0.00000  Uiso   1.00
H25    H     0.55138   0.73633   0.74494   0.00000  Uiso   1.00
H26    H     0.81628   0.63792   0.74598   0.00000  Uiso   1.00
H27    H     0.74030   0.84127   0.89853   0.00000  Uiso   1.00
H28    H     0.39146   0.75456   0.67093   0.00000  Uiso   1.00
H29    H     0.95004   0.54708   0.67312   0.00000  Uiso   1.00
H30    H     0.78984   0.97588   0.99481   0.00000  Uiso   1.00
H31    H     0.78307   0.95244   0.62219   0.00000  Uiso   1.00
H32    H     0.63395   0.95597   0.56599   0.00000  Uiso   1.00
H33    H     0.89885   0.85756   0.56703   0.00000  Uiso   1.00
H34    H     0.82288   0.06091   0.71958   0.00000  Uiso   1.00
H35    H     0.45848   0.93283   0.52568   0.00000  Uiso   1.00
H36    H     0.01707   0.72535   0.52788   0.00000  Uiso   1.00
H37    H     0.85686   0.15415   0.84956   0.00000  Uiso   1.00
O38    O     0.32547   0.84224   0.56438   0.00000  Uiso   1.00
O39    O     0.05832   0.57004   0.56728   0.00000  Uiso   1.00
O40    O     0.84813   0.13261   0.98932   0.00000  Uiso   1.00
N41    N     0.42770   0.79605   0.64446   0.00000  Uiso   1.00
N42    N     0.94993   0.60206   0.64651   0.00000  Uiso   1.00
N43    N     0.80017   0.00294   0.94726   0.00000  Uiso   1.00
N44    N     0.46376   0.89197   0.56631   0.00000  Uiso   1.00
N45    N     0.98599   0.69798   0.56836   0.00000  Uiso   1.00
N46    N     0.83623   0.09887   0.86911   0.00000  Uiso   1.00
C47    C     0.27728   0.20807   0.75297   0.00000  Uiso   1.00
C48    C     0.34978   0.18348   0.70397   0.00000  Uiso   1.00
C49    C     0.43082   0.21625   0.70630   0.00000  Uiso   1.00
C50    C     0.48809   0.18555   0.65689   0.00000  Uiso   1.00
C51    C     0.60415   0.15673   0.58838   0.00000  Uiso   1.00
C52    C     0.20586   0.23695   0.70453   0.00000  Uiso   1.00
C53    C     0.16588   0.31468   0.70734   0.00000  Uiso   1.00
C54    C     0.10198   0.32898   0.65839   0.00000  Uiso   1.00
C55    C     0.99456   0.38315   0.59078   0.00000  Uiso   1.00
C56    C     0.24715   0.12647   0.78741   0.00000  Uiso   1.00
C57    C     0.24186   0.11130   0.85991   0.00000  Uiso   1.00
C58    C     0.21271   0.03258   0.88075   0.00000  Uiso   1.00
C59    C     0.16939   0.91521   0.94183   0.00000  Uiso   1.00
C60    C     0.23487   0.09526   0.66106   0.00000  Uiso   1.00
C61    C     0.32674   0.12221   0.65405   0.00000  Uiso   1.00
C62    C     0.38390   0.09145   0.60462   0.00000  Uiso   1.00
C63    C     0.46501   0.12417   0.60688   0.00000  Uiso   1.00
C64    C     0.18282   0.17569   0.65461   0.00000  Uiso   1.00
C65    C     0.11896   0.18987   0.60565   0.00000  Uiso   1.00
C66    C     0.07890   0.26760   0.60838   0.00000  Uiso   1.00
C67    C     0.22411   0.06520   0.73749   0.00000  Uiso   1.00
C68    C     0.19495   0.98649   0.75822   0.00000  Uiso   1.00
C69    C     0.18963   0.97120   0.83074   0.00000  Uiso   1.00
H70    H     0.29521   0.25577   0.79183   0.00000  Uiso   1.00
H71    H     0.44862   0.26367   0.74494   0.00000  Uiso   1.00
H72    H     0.18372   0.36208   0.74598   0.00000  Uiso   1.00
H73    H     0.25970   0.15873   0.89853   0.00000  Uiso   1.00
H74    H     0.60854   0.24544   0.67093   0.00000  Uiso   1.00
H75    H     0.04996   0.45292   0.67312   0.00000  Uiso   1.00
H76    H     0.21016   0.02412   0.99481   0.00000  Uiso   1.00
H77    H     0.21693   0.04756   0.62219   0.00000  Uiso   1.00
H78    H     0.36605   0.04403   0.56599   0.00000  Uiso   1.00
H79    H     0.10115   0.14244   0.56703   0.00000  Uiso   1.00
H80    H     0.17712   0.93909   0.71958   0.00000  Uiso   1.00
H81    H     0.54152   0.06717   0.52568   0.00000  Uiso   1.00
H82    H     0.98293   0.27465   0.52788   0.00000  Uiso   1.00
H83    H     0.14314   0.84585   0.84956   0.00000  Uiso   1.00
O84    O     0.67453   0.15776   0.56438   0.00000  Uiso   1.00
O85    O     0.94168   0.42996   0.56728   0.00000  Uiso   1.00
O86    O     0.15187   0.86739   0.98932   0.00000  Uiso   1.00
N87    N     0.57230   0.20395   0.64446   0.00000  Uiso   1.00
N88    N     0.05007   0.39794   0.64651   0.00000  Uiso   1.00
N89    N     0.19983   0.99706   0.94726   0.00000  Uiso   1.00
N90    N     0.53624   0.10803   0.56631   0.00000  Uiso   1.00
N91    N     0.01401   0.30202   0.56836   0.00000  Uiso   1.00
N92    N     0.16377   0.90113   0.86911   0.00000  Uiso   1.00
C93    C     0.79193   0.27728   0.24703   0.00000  Uiso   1.00
C94    C     0.81652   0.34978   0.29603   0.00000  Uiso   1.00
C95    C     0.78375   0.43082   0.29370   0.00000  Uiso   1.00
C96    C     0.81445   0.48809   0.34311   0.00000  Uiso   1.00
C97    C     0.84327   0.60415   0.41162   0.00000  Uiso   1.00
C98    C     0.76305   0.20586   0.29547   0.00000  Uiso   1.00
C99    C     0.68532   0.16588   0.29266   0.00000  Uiso   1.00
C100   C     0.67102   0.10198   0.34161   0.00000  Uiso   1.00
C101   C     0.61685   0.99456   0.40922   0.00000  Uiso   1.00
C102   C     0.87353   0.24715   0.21259   0.00000  Uiso   1.00
C103   C     0.88870   0.24186   0.14009   0.00000  Uiso   1.00
C104   C     0.96742   0.21271   0.11925   0.00000  Uiso   1.00
C105   C     0.08479   0.16939   0.05817   0.00000  Uiso   1.00
C106   C     0.90474   0.23487   0.33894   0.00000  Uiso   1.00
C107   C     0.87779   0.32674   0.34595   0.00000  Uiso   1.00
C108   C     0.90855   0.38390   0.39538   0.00000  Uiso   1.00
C109   C     0.87583   0.46501   0.39312   0.00000  Uiso   1.00
C110   C     0.82431   0.18282   0.34539   0.00000  Uiso   1.00
C111   C     0.81013   0.11896   0.39435   0.00000  Uiso   1.00
C112   C     0.73240   0.07890   0.39162   0.00000  Uiso   1.00
C113   C     0.93480   0.22411   0.26251   0.00000  Uiso   1.00
C114   C     0.01351   0.19495   0.24178   0.00000  Uiso   1.00
C115   C     0.02880   0.18963   0.16926   0.00000  Uiso   1.00
H116   H     0.74423   0.29521   0.20817   0.00000  Uiso   1.00
H117   H     0.73633   0.44862   0.25506   0.00000  Uiso   1.00
H118   H     0.63792   0.18372   0.25402   0.00000  Uiso   1.00
H119   H     0.84127   0.25970   0.10147   0.00000  Uiso   1.00
H120   H     0.75456   0.60854   0.32907   0.00000  Uiso   1.00
H121   H     0.54708   0.04996   0.32688   0.00000  Uiso   1.00
H122   H     0.97588   0.21016   0.00519   0.00000  Uiso   1.00
H123   H     0.95244   0.21693   0.37781   0.00000  Uiso   1.00
H124   H     0.95597   0.36605   0.43401   0.00000  Uiso   1.00
H125   H     0.85756   0.10115   0.43297   0.00000  Uiso   1.00
H126   H     0.06091   0.17712   0.28042   0.00000  Uiso   1.00
H127   H     0.93283   0.54152   0.47432   0.00000  Uiso   1.00
H128   H     0.72535   0.98293   0.47212   0.00000  Uiso   1.00
H129   H     0.15415   0.14314   0.15044   0.00000  Uiso   1.00
O130   O     0.84224   0.67453   0.43562   0.00000  Uiso   1.00
O131   O     0.57004   0.94168   0.43272   0.00000  Uiso   1.00
O132   O     0.13261   0.15187   0.01068   0.00000  Uiso   1.00
N133   N     0.79605   0.57230   0.35554   0.00000  Uiso   1.00
N134   N     0.60206   0.05007   0.35349   0.00000  Uiso   1.00
N135   N     0.00294   0.19983   0.05274   0.00000  Uiso   1.00
N136   N     0.89197   0.53624   0.43369   0.00000  Uiso   1.00
N137   N     0.69798   0.01401   0.43164   0.00000  Uiso   1.00
N138   N     0.09887   0.16377   0.13089   0.00000  Uiso   1.00
C139   C     0.20807   0.72272   0.24703   0.00000  Uiso   1.00
C140   C     0.18348   0.65022   0.29603   0.00000  Uiso   1.00
C141   C     0.21625   0.56918   0.29370   0.00000  Uiso   1.00
C142   C     0.18555   0.51191   0.34311   0.00000  Uiso   1.00
C143   C     0.15673   0.39585   0.41162   0.00000  Uiso   1.00
C144   C     0.23695   0.79414   0.29547   0.00000  Uiso   1.00
C145   C     0.31468   0.83412   0.29266   0.00000  Uiso   1.00
C146   C     0.32898   0.89802   0.34161   0.00000  Uiso   1.00
C147   C     0.38315   0.00544   0.40922   0.00000  Uiso   1.00
C148   C     0.12647   0.75285   0.21259   0.00000  Uiso   1.00
C149   C     0.11130   0.75814   0.14009   0.00000  Uiso   1.00
C150   C     0.03258   0.78729   0.11925   0.00000  Uiso   1.00
C151   C     0.91521   0.83061   0.05817   0.00000  Uiso   1.00
C152   C     0.09526   0.76513   0.33894   0.00000  Uiso   1.00
C153   C     0.12221   0.67326   0.34595   0.00000  Uiso   1.00
C154   C     0.09145   0.61610   0.39538   0.00000  Uiso   1.00
C155   C     0.12417   0.53499   0.39312   0.00000  Uiso   1.00
C156   C     0.17569   0.81718   0.34539   0.00000  Uiso   1.00
C157   C     0.18987   0.88104   0.39435   0.00000  Uiso   1.00
C158   C     0.26760   0.92110   0.39162   0.00000  Uiso   1.00
C159   C     0.06520   0.77589   0.26251   0.00000  Uiso   1.00
C160   C     0.98649   0.80505   0.24178   0.00000  Uiso   1.00
C161   C     0.97120   0.81037   0.16926   0.00000  Uiso   1.00
H162   H     0.25577   0.70479   0.20817   0.00000  Uiso   1.00
H163   H     0.26367   0.55138   0.25506   0.00000  Uiso   1.00
H164   H     0.36208   0.81628   0.25402   0.00000  Uiso   1.00
H165   H     0.15873   0.74030   0.10147   0.00000  Uiso   1.00
H166   H     0.24544   0.39146   0.32907   0.00000  Uiso   1.00
H167   H     0.45292   0.95004   0.32688   0.00000  Uiso   1.00
H168   H     0.02412   0.78984   0.00519   0.00000  Uiso   1.00
H169   H     0.04756   0.78307   0.37781   0.00000  Uiso   1.00
H170   H     0.04403   0.63395   0.43401   0.00000  Uiso   1.00
H171   H     0.14244   0.89885   0.43297   0.00000  Uiso   1.00
H172   H     0.93909   0.82288   0.28042   0.00000  Uiso   1.00
H173   H     0.06717   0.45848   0.47432   0.00000  Uiso   1.00
H174   H     0.27465   0.01707   0.47212   0.00000  Uiso   1.00
H175   H     0.84585   0.85686   0.15044   0.00000  Uiso   1.00
O176   O     0.15776   0.32547   0.43562   0.00000  Uiso   1.00
O177   O     0.42996   0.05832   0.43272   0.00000  Uiso   1.00
O178   O     0.86739   0.84813   0.01068   0.00000  Uiso   1.00
N179   N     0.20395   0.42770   0.35554   0.00000  Uiso   1.00
N180   N     0.39794   0.94993   0.35349   0.00000  Uiso   1.00
N181   N     0.99706   0.80017   0.05274   0.00000  Uiso   1.00
N182   N     0.10803   0.46376   0.43369   0.00000  Uiso   1.00
N183   N     0.30202   0.98599   0.43164   0.00000  Uiso   1.00
N184   N     0.90113   0.83623   0.13089   0.00000  Uiso   1.00
C185   C     0.77728   0.29193   0.74703   0.00000  Uiso   1.00
C186   C     0.84978   0.31652   0.79603   0.00000  Uiso   1.00
C187   C     0.93082   0.28375   0.79370   0.00000  Uiso   1.00
C188   C     0.98809   0.31445   0.84311   0.00000  Uiso   1.00
C189   C     0.10415   0.34327   0.91162   0.00000  Uiso   1.00
C190   C     0.70586   0.26305   0.79547   0.00000  Uiso   1.00
C191   C     0.66588   0.18532   0.79266   0.00000  Uiso   1.00
C192   C     0.60198   0.17102   0.84161   0.00000  Uiso   1.00
C193   C     0.49456   0.11685   0.90922   0.00000  Uiso   1.00
C194   C     0.74715   0.37353   0.71259   0.00000  Uiso   1.00
C195   C     0.74186   0.38870   0.64009   0.00000  Uiso   1.00
C196   C     0.71271   0.46742   0.61925   0.00000  Uiso   1.00
C197   C     0.66939   0.58479   0.55817   0.00000  Uiso   1.00
C198   C     0.73487   0.40474   0.83894   0.00000  Uiso   1.00
C199   C     0.82674   0.37779   0.84595   0.00000  Uiso   1.00
C200   C     0.88390   0.40855   0.89538   0.00000  Uiso   1.00
C201   C     0.96501   0.37583   0.89312   0.00000  Uiso   1.00
C202   C     0.68282   0.32431   0.84539   0.00000  Uiso   1.00
C203   C     0.61896   0.31013   0.89435   0.00000  Uiso   1.00
C204   C     0.57890   0.23240   0.89162   0.00000  Uiso   1.00
C205   C     0.72411   0.43480   0.76251   0.00000  Uiso   1.00
C206   C     0.69495   0.51351   0.74178   0.00000  Uiso   1.00
C207   C     0.68963   0.52880   0.66926   0.00000  Uiso   1.00
H208   H     0.79521   0.24423   0.70817   0.00000  Uiso   1.00
H209   H     0.94862   0.23633   0.75506   0.00000  Uiso   1.00
H210   H     0.68372   0.13792   0.75402   0.00000  Uiso   1.00
H211   H     0.75970   0.34127   0.60147   0.00000  Uiso   1.00
H212   H     0.10854   0.25456   0.82907   0.00000  Uiso   1.00
H213   H     0.54996   0.04708   0.82688   0.00000  Uiso   1.00
H214   H     0.71016   0.47588   0.50519   0.00000  Uiso   1.00
H215   H     0.71693   0.45244   0.87781   0.00000  Uiso   1.00
H216   H     0.86605   0.45597   0.93401   0.00000  Uiso   1.00
H217   H     0.60115   0.35756   0.93297   0.00000  Uiso   1.00
H218   H     0.67712   0.56091   0.78042   0.00000  Uiso   1.00
H219   H     0.04152   0.43283   0.97432   0.00000  Uiso   1.00
H220   H     0.48293   0.22535   0.97212   0.00000  Uiso   1.00
H221   H     0.64314   0.65415   0.65044   0.00000  Uiso   1.00
O222   O     0.17453   0.34224   0.93562   0.00000  Uiso   1.00
O223   O     0.44168   0.07004   0.93272   0.00000  Uiso   1.00
O224   O     0.65187   0.63261   0.51068   0.00000  Uiso   1.00
N225   N     0.07230   0.29605   0.85554   0.00000  Uiso   1.00
N226   N     0.55007   0.10206   0.85349   0.00000  Uiso   1.00
N227   N     0.69983   0.50294   0.55274   0.00000  Uiso   1.00
N228   N     0.03624   0.39197   0.93369   0.00000  Uiso   1.00
N229   N     0.51401   0.19798   0.93164   0.00000  Uiso   1.00
N230   N     0.66377   0.59887   0.63089   0.00000  Uiso   1.00
C231   C     0.22272   0.70807   0.74703   0.00000  Uiso   1.00
C232   C     0.15022   0.68348   0.79603   0.00000  Uiso   1.00
C233   C     0.06918   0.71625   0.79370   0.00000  Uiso   1.00
C234   C     0.01191   0.68555   0.84311   0.00000  Uiso   1.00
C235   C     0.89585   0.65673   0.91162   0.00000  Uiso   1.00
C236   C     0.29414   0.73695   0.79547   0.00000  Uiso   1.00
C237   C     0.33412   0.81468   0.79266   0.00000  Uiso   1.00
C238   C     0.39802   0.82898   0.84161   0.00000  Uiso   1.00
C239   C     0.50544   0.88315   0.90922   0.00000  Uiso   1.00
C240   C     0.25285   0.62647   0.71259   0.00000  Uiso   1.00
C241   C     0.25814   0.61130   0.64009   0.00000  Uiso   1.00
C242   C     0.28729   0.53258   0.61925   0.00000  Uiso   1.00
C243   C     0.33061   0.41521   0.55817   0.00000  Uiso   1.00
C244   C     0.26513   0.59526   0.83894   0.00000  Uiso   1.00
C245   C     0.17326   0.62221   0.84595   0.00000  Uiso   1.00
C246   C     0.11610   0.59145   0.89538   0.00000  Uiso   1.00
C247   C     0.03499   0.62417   0.89312   0.00000  Uiso   1.00
C248   C     0.31718   0.67569   0.84539   0.00000  Uiso   1.00
C249   C     0.38104   0.68987   0.89435   0.00000  Uiso   1.00
C250   C     0.42110   0.76760   0.89162   0.00000  Uiso   1.00
C251   C     0.27589   0.56520   0.76251   0.00000  Uiso   1.00
C252   C     0.30505   0.48649   0.74178   0.00000  Uiso   1.00
C253   C     0.31037   0.47120   0.66926   0.00000  Uiso   1.00
H254   H     0.20479   0.75577   0.70817   0.00000  Uiso   1.00
H255   H     0.05138   0.76367   0.75506   0.00000  Uiso   1.00
H256   H     0.31628   0.86208   0.75402   0.00000  Uiso   1.00
H257   H     0.24030   0.65873   0.60147   0.00000  Uiso   1.00
H258   H     0.89146   0.74544   0.82907   0.00000  Uiso   1.00
H259   H     0.45004   0.95292   0.82688   0.00000  Uiso   1.00
H260   H     0.28984   0.52412   0.50519   0.00000  Uiso   1.00
H261   H     0.28307   0.54756   0.87781   0.00000  Uiso   1.00
H262   H     0.13395   0.54403   0.93401   0.00000  Uiso   1.00
H263   H     0.39885   0.64244   0.93297   0.00000  Uiso   1.00
H264   H     0.32288   0.43909   0.78042   0.00000  Uiso   1.00
H265   H     0.95848   0.56717   0.97432   0.00000  Uiso   1.00
H266   H     0.51707   0.77465   0.97212   0.00000  Uiso   1.00
H267   H     0.35686   0.34585   0.65044   0.00000  Uiso   1.00
O268   O     0.82547   0.65776   0.93562   0.00000  Uiso   1.00
O269   O     0.55832   0.92996   0.93272   0.00000  Uiso   1.00
O270   O     0.34813   0.36739   0.51068   0.00000  Uiso   1.00
N271   N     0.92770   0.70395   0.85554   0.00000  Uiso   1.00
N272   N     0.44993   0.89794   0.85349   0.00000  Uiso   1.00
N273   N     0.30017   0.49706   0.55274   0.00000  Uiso   1.00
N274   N     0.96376   0.60803   0.93369   0.00000  Uiso   1.00
N275   N     0.48599   0.80202   0.93164   0.00000  Uiso   1.00
N276   N     0.33623   0.40113   0.63089   0.00000  Uiso   1.00
C277   C     0.70807   0.77728   0.25297   0.00000  Uiso   1.00
C278   C     0.68348   0.84978   0.20397   0.00000  Uiso   1.00
C279   C     0.71625   0.93082   0.20630   0.00000  Uiso   1.00
C280   C     0.68555   0.98809   0.15689   0.00000  Uiso   1.00
C281   C     0.65673   0.10415   0.08838   0.00000  Uiso   1.00
C282   C     0.73695   0.70586   0.20453   0.00000  Uiso   1.00
C283   C     0.81468   0.66588   0.20734   0.00000  Uiso   1.00
C284   C     0.82898   0.60198   0.15839   0.00000  Uiso   1.00
C285   C     0.88315   0.49456   0.09078   0.00000  Uiso   1.00
C286   C     0.62647   0.74715   0.28741   0.00000  Uiso   1.00
C287   C     0.61130   0.74186   0.35991   0.00000  Uiso   1.00
C288   C     0.53258   0.71271   0.38075   0.00000  Uiso   1.00
C289   C     0.41521   0.66939   0.44183   0.00000  Uiso   1.00
C290   C     0.59526   0.73487   0.16106   0.00000  Uiso   1.00
C291   C     0.62221   0.82674   0.15405   0.00000  Uiso   1.00
C292   C     0.59145   0.88390   0.10462   0.00000  Uiso   1.00
C293   C     0.62417   0.96501   0.10688   0.00000  Uiso   1.00
C294   C     0.67569   0.68282   0.15461   0.00000  Uiso   1.00
C295   C     0.68987   0.61896   0.10565   0.00000  Uiso   1.00
C296   C     0.76760   0.57890   0.10838   0.00000  Uiso   1.00
C297   C     0.56520   0.72411   0.23749   0.00000  Uiso   1.00
C298   C     0.48649   0.69495   0.25822   0.00000  Uiso   1.00
C299   C     0.47120   0.68963   0.33074   0.00000  Uiso   1.00
H300   H     0.75577   0.79521   0.29183   0.00000  Uiso   1.00
H301   H     0.76367   0.94862   0.24494   0.00000  Uiso   1.00
H302   H     0.86208   0.68372   0.24598   0.00000  Uiso   1.00
H303   H     0.65873   0.75970   0.39853   0.00000  Uiso   1.00
H304   H     0.74544   0.10854   0.17093   0.00000  Uiso   1.00
H305   H     0.95292   0.54996   0.17312   0.00000  Uiso   1.00
H306   H     0.52412   0.71016   0.49481   0.00000  Uiso   1.00
H307   H     0.54756   0.71693   0.12219   0.00000  Uiso   1.00
H308   H     0.54403   0.86605   0.06599   0.00000  Uiso   1.00
H309   H     0.64244   0.60115   0.06703   0.00000  Uiso   1.00
H310   H     0.43909   0.67712   0.21958   0.00000  Uiso   1.00
H311   H     0.56717   0.04152   0.02568   0.00000  Uiso   1.00
H312   H     0.77465   0.48293   0.02788   0.00000  Uiso   1.00
H313   H     0.34585   0.64314   0.34956   0.00000  Uiso   1.00
O314   O     0.65776   0.17453   0.06438   0.00000  Uiso   1.00
O315   O     0.92996   0.44168   0.06728   0.00000  Uiso   1.00
O316   O     0.36739   0.65187   0.48932   0.00000  Uiso   1.00
N317   N     0.70395   0.07230   0.14446   0.00000  Uiso   1.00
N318   N     0.89794   0.55007   0.14651   0.00000  Uiso   1.00
N319   N     0.49706   0.69983   0.44726   0.00000  Uiso   1.00
N320   N     0.60803   0.03624   0.06631   0.00000  Uiso   1.00
N321   N     0.80202   0.51401   0.06836   0.00000  Uiso   1.00
N322   N     0.40113   0.66377   0.36911   0.00000  Uiso   1.00
C323   C     0.29193   0.22272   0.25297   0.00000  Uiso   1.00
C324   C     0.31652   0.15022   0.20397   0.00000  Uiso   1.00
C325   C     0.28375   0.06918   0.20630   0.00000  Uiso   1.00
C326   C     0.31445   0.01191   0.15689   0.00000  Uiso   1.00
C327   C     0.34327   0.89585   0.08838   0.00000  Uiso   1.00
C328   C     0.26305   0.29414   0.20453   0.00000  Uiso   1.00
C329   C     0.18532   0.33412   0.20734   0.00000  Uiso   1.00
C330   C     0.17102   0.39802   0.15839   0.00000  Uiso   1.00
C331   C     0.11685   0.50544   0.09078   0.00000  Uiso   1.00
C332   C     0.37353   0.25285   0.28741   0.00000  Uiso   1.00
C333   C     0.38870   0.25814   0.35991   0.00000  Uiso   1.00
C334   C     0.46742   0.28729   0.38075   0.00000  Uiso   1.00
C335   C     0.58479   0.33061   0.44183   0.00000  Uiso   1.00
C336   C     0.40474   0.26513   0.16106   0.00000  Uiso   1.00
C337   C     0.37779   0.17326   0.15405   0.00000  Uiso   1.00
C338   C     0.40855   0.11610   0.10462   0.00000  Uiso   1.00
C339   C     0.37583   0.03499   0.10688   0.00000  Uiso   1.00
C340   C     0.32431   0.31718   0.15461   0.00000  Uiso   1.00
C341   C     0.31013   0.38104   0.10565   0.00000  Uiso   1.00
C342   C     0.23240   0.42110   0.10838   0.00000  Uiso   1.00
C343   C     0.43480   0.27589   0.23749   0.00000  Uiso   1.00
C344   C     0.51351   0.30505   0.25822   0.00000  Uiso   1.00
C345   C     0.52880   0.31037   0.33074   0.00000  Uiso   1.00
H346   H     0.24423   0.20479   0.29183   0.00000  Uiso   1.00
H347   H     0.23633   0.05138   0.24494   0.00000  Uiso   1.00
H348   H     0.13792   0.31628   0.24598   0.00000  Uiso   1.00
H349   H     0.34127   0.24030   0.39853   0.00000  Uiso   1.00
H350   H     0.25456   0.89146   0.17093   0.00000  Uiso   1.00
H351   H     0.04708   0.45004   0.17312   0.00000  Uiso   1.00
H352   H     0.47588   0.28984   0.49481   0.00000  Uiso   1.00
H353   H     0.45244   0.28307   0.12219   0.00000  Uiso   1.00
H354   H     0.45597   0.13395   0.06599   0.00000  Uiso   1.00
H355   H     0.35756   0.39885   0.06703   0.00000  Uiso   1.00
H356   H     0.56091   0.32288   0.21958   0.00000  Uiso   1.00
H357   H     0.43283   0.95848   0.02568   0.00000  Uiso   1.00
H358   H     0.22535   0.51707   0.02788   0.00000  Uiso   1.00
H359   H     0.65415   0.35686   0.34956   0.00000  Uiso   1.00
O360   O     0.34224   0.82547   0.06438   0.00000  Uiso   1.00
O361   O     0.07004   0.55832   0.06728   0.00000  Uiso   1.00
O362   O     0.63261   0.34813   0.48932   0.00000  Uiso   1.00
N363   N     0.29605   0.92770   0.14446   0.00000  Uiso   1.00
N364   N     0.10206   0.44993   0.14651   0.00000  Uiso   1.00
N365   N     0.50294   0.30017   0.44726   0.00000  Uiso   1.00
N366   N     0.39197   0.96376   0.06631   0.00000  Uiso   1.00
N367   N     0.19798   0.48599   0.06836   0.00000  Uiso   1.00
N368   N     0.59887   0.33623   0.36911   0.00000  Uiso   1.00
