data_job_02184
_audit_creation_date              2018-12-19
_audit_creation_method            'Materials Studio'
_symmetry_space_group_name_H-M    'P1'
_symmetry_Int_Tables_number       1
_symmetry_cell_setting            triclinic
loop_
_symmetry_equiv_pos_as_xyz
  x,y,z
_cell_length_a                    20.9392
_cell_length_b                    20.9392
_cell_length_c                    13.4851
_cell_angle_alpha                 90.0000
_cell_angle_beta                  90.0000
_cell_angle_gamma                 90.0000
loop_
_atom_site_label
_atom_site_type_symbol
_atom_site_fract_x
_atom_site_fract_y
_atom_site_fract_z
_atom_site_U_iso_or_equiv
_atom_site_adp_type
_atom_site_occupancy
C1     C     0.68988   0.69449   0.48233   0.00000  Uiso   1.00
C2     C     0.74187   0.65554   0.43121   0.00000  Uiso   1.00
C3     C     0.73482   0.62138   0.34371   0.00000  Uiso   1.00
C4     C     0.78810   0.58884   0.30904   0.00000  Uiso   1.00
C5     C     0.85997   0.52809   0.22193   0.00000  Uiso   1.00
C6     C     0.68471   0.66803   0.58737   0.00000  Uiso   1.00
C7     C     0.62960   0.64437   0.63117   0.00000  Uiso   1.00
C8     C     0.63476   0.62236   0.72796   0.00000  Uiso   1.00
C9     C     0.61788   0.58104   0.88332   0.00000  Uiso   1.00
C10    C     0.71650   0.76194   0.49283   0.00000  Uiso   1.00
C11    C     0.68811   0.81724   0.45715   0.00000  Uiso   1.00
C12    C     0.72004   0.87430   0.47436   0.00000  Uiso   1.00
C13    C     0.75251   0.97878   0.48292   0.00000  Uiso   1.00
C14    C     0.79706   0.69747   0.57634   0.00000  Uiso   1.00
C15    C     0.80009   0.65716   0.48229   0.00000  Uiso   1.00
C16    C     0.85340   0.62467   0.44773   0.00000  Uiso   1.00
C17    C     0.84642   0.59046   0.36019   0.00000  Uiso   1.00
C18    C     0.74292   0.66964   0.63844   0.00000  Uiso   1.00
C19    C     0.74817   0.64766   0.73519   0.00000  Uiso   1.00
C20    C     0.69308   0.62398   0.77912   0.00000  Uiso   1.00
C21    C     0.77472   0.76355   0.54389   0.00000  Uiso   1.00
C22    C     0.80669   0.82053   0.56117   0.00000  Uiso   1.00
C23    C     0.77835   0.87591   0.52552   0.00000  Uiso   1.00
H24    H     0.64456   0.69323   0.44257   0.00000  Uiso   1.00
H25    H     0.68976   0.62013   0.30422   0.00000  Uiso   1.00
H26    H     0.58455   0.64313   0.59164   0.00000  Uiso   1.00
H27    H     0.64306   0.81598   0.41764   0.00000  Uiso   1.00
H28    H     0.76554   0.53978   0.17337   0.00000  Uiso   1.00
H29    H     0.54370   0.58830   0.77941   0.00000  Uiso   1.00
H30    H     0.66707   0.95277   0.41251   0.00000  Uiso   1.00
H31    H     0.84238   0.69872   0.61611   0.00000  Uiso   1.00
H32    H     0.89844   0.62593   0.48727   0.00000  Uiso   1.00
H33    H     0.79323   0.64893   0.77469   0.00000  Uiso   1.00
H34    H     0.85174   0.82177   0.60069   0.00000  Uiso   1.00
H35    H     0.93491   0.54448   0.32194   0.00000  Uiso   1.00
H36    H     0.71307   0.59300   0.92799   0.00000  Uiso   1.00
H37    H     0.83644   0.95747   0.56108   0.00000  Uiso   1.00
O38    O     0.88352   0.49412   0.15979   0.00000  Uiso   1.00
O39    O     0.59248   0.55779   0.95490   0.00000  Uiso   1.00
O40    O     0.75434   0.03597   0.47353   0.00000  Uiso   1.00
N41    N     0.79771   0.55089   0.22600   0.00000  Uiso   1.00
N42    N     0.59031   0.59624   0.79261   0.00000  Uiso   1.00
N43    N     0.70564   0.93699   0.44962   0.00000  Uiso   1.00
N44    N     0.88885   0.55342   0.30595   0.00000  Uiso   1.00
N45    N     0.68144   0.59877   0.87256   0.00000  Uiso   1.00
N46    N     0.79678   0.93952   0.52956   0.00000  Uiso   1.00
C47    C     0.31012   0.30551   0.48233   0.00000  Uiso   1.00
C48    C     0.25813   0.34446   0.43121   0.00000  Uiso   1.00
C49    C     0.26518   0.37862   0.34371   0.00000  Uiso   1.00
C50    C     0.21190   0.41116   0.30904   0.00000  Uiso   1.00
C51    C     0.14003   0.47191   0.22193   0.00000  Uiso   1.00
C52    C     0.31529   0.33197   0.58737   0.00000  Uiso   1.00
C53    C     0.37040   0.35563   0.63117   0.00000  Uiso   1.00
C54    C     0.36524   0.37764   0.72796   0.00000  Uiso   1.00
C55    C     0.38212   0.41896   0.88332   0.00000  Uiso   1.00
C56    C     0.28350   0.23806   0.49283   0.00000  Uiso   1.00
C57    C     0.31189   0.18276   0.45715   0.00000  Uiso   1.00
C58    C     0.27996   0.12570   0.47436   0.00000  Uiso   1.00
C59    C     0.24749   0.02122   0.48292   0.00000  Uiso   1.00
C60    C     0.20294   0.30253   0.57634   0.00000  Uiso   1.00
C61    C     0.19991   0.34284   0.48229   0.00000  Uiso   1.00
C62    C     0.14660   0.37533   0.44773   0.00000  Uiso   1.00
C63    C     0.15358   0.40954   0.36019   0.00000  Uiso   1.00
C64    C     0.25708   0.33036   0.63844   0.00000  Uiso   1.00
C65    C     0.25183   0.35234   0.73519   0.00000  Uiso   1.00
C66    C     0.30692   0.37602   0.77912   0.00000  Uiso   1.00
C67    C     0.22528   0.23645   0.54389   0.00000  Uiso   1.00
C68    C     0.19331   0.17947   0.56117   0.00000  Uiso   1.00
C69    C     0.22165   0.12409   0.52552   0.00000  Uiso   1.00
H70    H     0.35544   0.30677   0.44257   0.00000  Uiso   1.00
H71    H     0.31024   0.37987   0.30422   0.00000  Uiso   1.00
H72    H     0.41545   0.35687   0.59164   0.00000  Uiso   1.00
H73    H     0.35694   0.18402   0.41764   0.00000  Uiso   1.00
H74    H     0.23446   0.46022   0.17337   0.00000  Uiso   1.00
H75    H     0.45630   0.41170   0.77941   0.00000  Uiso   1.00
H76    H     0.33293   0.04723   0.41251   0.00000  Uiso   1.00
H77    H     0.15762   0.30128   0.61611   0.00000  Uiso   1.00
H78    H     0.10156   0.37407   0.48727   0.00000  Uiso   1.00
H79    H     0.20677   0.35107   0.77469   0.00000  Uiso   1.00
H80    H     0.14826   0.17823   0.60069   0.00000  Uiso   1.00
H81    H     0.06509   0.45552   0.32194   0.00000  Uiso   1.00
H82    H     0.28693   0.40700   0.92799   0.00000  Uiso   1.00
H83    H     0.16356   0.04253   0.56108   0.00000  Uiso   1.00
O84    O     0.11648   0.50588   0.15979   0.00000  Uiso   1.00
O85    O     0.40752   0.44221   0.95490   0.00000  Uiso   1.00
O86    O     0.24566   0.96403   0.47353   0.00000  Uiso   1.00
N87    N     0.20229   0.44911   0.22600   0.00000  Uiso   1.00
N88    N     0.40969   0.40376   0.79261   0.00000  Uiso   1.00
N89    N     0.29436   0.06301   0.44962   0.00000  Uiso   1.00
N90    N     0.11115   0.44658   0.30595   0.00000  Uiso   1.00
N91    N     0.31856   0.40123   0.87256   0.00000  Uiso   1.00
N92    N     0.20322   0.06048   0.52956   0.00000  Uiso   1.00
C93    C     0.69449   0.31012   0.51767   0.00000  Uiso   1.00
C94    C     0.65554   0.25813   0.56879   0.00000  Uiso   1.00
C95    C     0.62138   0.26518   0.65629   0.00000  Uiso   1.00
C96    C     0.58884   0.21190   0.69096   0.00000  Uiso   1.00
C97    C     0.52809   0.14003   0.77807   0.00000  Uiso   1.00
C98    C     0.66803   0.31529   0.41263   0.00000  Uiso   1.00
C99    C     0.64437   0.37040   0.36883   0.00000  Uiso   1.00
C100   C     0.62236   0.36524   0.27204   0.00000  Uiso   1.00
C101   C     0.58104   0.38212   0.11668   0.00000  Uiso   1.00
C102   C     0.76194   0.28350   0.50717   0.00000  Uiso   1.00
C103   C     0.81724   0.31189   0.54285   0.00000  Uiso   1.00
C104   C     0.87430   0.27996   0.52564   0.00000  Uiso   1.00
C105   C     0.97878   0.24749   0.51708   0.00000  Uiso   1.00
C106   C     0.69747   0.20294   0.42366   0.00000  Uiso   1.00
C107   C     0.65716   0.19991   0.51771   0.00000  Uiso   1.00
C108   C     0.62467   0.14660   0.55227   0.00000  Uiso   1.00
C109   C     0.59046   0.15358   0.63981   0.00000  Uiso   1.00
C110   C     0.66964   0.25708   0.36156   0.00000  Uiso   1.00
C111   C     0.64766   0.25183   0.26481   0.00000  Uiso   1.00
C112   C     0.62398   0.30692   0.22088   0.00000  Uiso   1.00
C113   C     0.76355   0.22528   0.45611   0.00000  Uiso   1.00
C114   C     0.82053   0.19331   0.43883   0.00000  Uiso   1.00
C115   C     0.87591   0.22165   0.47448   0.00000  Uiso   1.00
H116   H     0.69323   0.35544   0.55743   0.00000  Uiso   1.00
H117   H     0.62013   0.31024   0.69578   0.00000  Uiso   1.00
H118   H     0.64313   0.41545   0.40836   0.00000  Uiso   1.00
H119   H     0.81598   0.35694   0.58236   0.00000  Uiso   1.00
H120   H     0.53978   0.23446   0.82663   0.00000  Uiso   1.00
H121   H     0.58830   0.45630   0.22059   0.00000  Uiso   1.00
H122   H     0.95277   0.33293   0.58749   0.00000  Uiso   1.00
H123   H     0.69872   0.15762   0.38389   0.00000  Uiso   1.00
H124   H     0.62593   0.10156   0.51273   0.00000  Uiso   1.00
H125   H     0.64893   0.20677   0.22531   0.00000  Uiso   1.00
H126   H     0.82177   0.14826   0.39931   0.00000  Uiso   1.00
H127   H     0.54448   0.06509   0.67806   0.00000  Uiso   1.00
H128   H     0.59300   0.28693   0.07201   0.00000  Uiso   1.00
H129   H     0.95747   0.16356   0.43892   0.00000  Uiso   1.00
O130   O     0.49412   0.11648   0.84021   0.00000  Uiso   1.00
O131   O     0.55779   0.40752   0.04510   0.00000  Uiso   1.00
O132   O     0.03597   0.24566   0.52647   0.00000  Uiso   1.00
N133   N     0.55089   0.20229   0.77400   0.00000  Uiso   1.00
N134   N     0.59624   0.40969   0.20739   0.00000  Uiso   1.00
N135   N     0.93699   0.29436   0.55038   0.00000  Uiso   1.00
N136   N     0.55342   0.11115   0.69405   0.00000  Uiso   1.00
N137   N     0.59877   0.31856   0.12744   0.00000  Uiso   1.00
N138   N     0.93952   0.20322   0.47044   0.00000  Uiso   1.00
C139   C     0.30551   0.68988   0.51767   0.00000  Uiso   1.00
C140   C     0.34446   0.74187   0.56879   0.00000  Uiso   1.00
C141   C     0.37862   0.73482   0.65629   0.00000  Uiso   1.00
C142   C     0.41116   0.78810   0.69096   0.00000  Uiso   1.00
C143   C     0.47191   0.85997   0.77807   0.00000  Uiso   1.00
C144   C     0.33197   0.68471   0.41263   0.00000  Uiso   1.00
C145   C     0.35563   0.62960   0.36883   0.00000  Uiso   1.00
C146   C     0.37764   0.63476   0.27204   0.00000  Uiso   1.00
C147   C     0.41896   0.61788   0.11668   0.00000  Uiso   1.00
C148   C     0.23806   0.71650   0.50717   0.00000  Uiso   1.00
C149   C     0.18276   0.68811   0.54285   0.00000  Uiso   1.00
C150   C     0.12570   0.72004   0.52564   0.00000  Uiso   1.00
C151   C     0.02122   0.75251   0.51708   0.00000  Uiso   1.00
C152   C     0.30253   0.79706   0.42366   0.00000  Uiso   1.00
C153   C     0.34284   0.80009   0.51771   0.00000  Uiso   1.00
C154   C     0.37533   0.85340   0.55227   0.00000  Uiso   1.00
C155   C     0.40954   0.84642   0.63981   0.00000  Uiso   1.00
C156   C     0.33036   0.74292   0.36156   0.00000  Uiso   1.00
C157   C     0.35234   0.74817   0.26481   0.00000  Uiso   1.00
C158   C     0.37602   0.69308   0.22088   0.00000  Uiso   1.00
C159   C     0.23645   0.77472   0.45611   0.00000  Uiso   1.00
C160   C     0.17947   0.80669   0.43883   0.00000  Uiso   1.00
C161   C     0.12409   0.77835   0.47448   0.00000  Uiso   1.00
H162   H     0.30677   0.64456   0.55743   0.00000  Uiso   1.00
H163   H     0.37987   0.68976   0.69578   0.00000  Uiso   1.00
H164   H     0.35687   0.58455   0.40836   0.00000  Uiso   1.00
H165   H     0.18402   0.64306   0.58236   0.00000  Uiso   1.00
H166   H     0.46022   0.76554   0.82663   0.00000  Uiso   1.00
H167   H     0.41170   0.54370   0.22059   0.00000  Uiso   1.00
H168   H     0.04723   0.66707   0.58749   0.00000  Uiso   1.00
H169   H     0.30128   0.84238   0.38389   0.00000  Uiso   1.00
H170   H     0.37407   0.89844   0.51273   0.00000  Uiso   1.00
H171   H     0.35107   0.79323   0.22531   0.00000  Uiso   1.00
H172   H     0.17823   0.85174   0.39931   0.00000  Uiso   1.00
H173   H     0.45552   0.93491   0.67806   0.00000  Uiso   1.00
H174   H     0.40700   0.71307   0.07201   0.00000  Uiso   1.00
H175   H     0.04253   0.83644   0.43892   0.00000  Uiso   1.00
O176   O     0.50588   0.88352   0.84021   0.00000  Uiso   1.00
O177   O     0.44221   0.59248   0.04510   0.00000  Uiso   1.00
O178   O     0.96403   0.75434   0.52647   0.00000  Uiso   1.00
N179   N     0.44911   0.79771   0.77400   0.00000  Uiso   1.00
N180   N     0.40376   0.59031   0.20739   0.00000  Uiso   1.00
N181   N     0.06301   0.70564   0.55038   0.00000  Uiso   1.00
N182   N     0.44658   0.88885   0.69405   0.00000  Uiso   1.00
N183   N     0.40123   0.68144   0.12744   0.00000  Uiso   1.00
N184   N     0.06048   0.79678   0.47044   0.00000  Uiso   1.00
C185   C     0.81012   0.19449   0.01767   0.00000  Uiso   1.00
C186   C     0.75813   0.15554   0.06879   0.00000  Uiso   1.00
C187   C     0.76518   0.12138   0.15629   0.00000  Uiso   1.00
C188   C     0.71190   0.08884   0.19096   0.00000  Uiso   1.00
C189   C     0.64003   0.02809   0.27807   0.00000  Uiso   1.00
C190   C     0.81529   0.16803   0.91263   0.00000  Uiso   1.00
C191   C     0.87040   0.14437   0.86883   0.00000  Uiso   1.00
C192   C     0.86524   0.12236   0.77204   0.00000  Uiso   1.00
C193   C     0.88212   0.08104   0.61668   0.00000  Uiso   1.00
C194   C     0.78350   0.26194   0.00717   0.00000  Uiso   1.00
C195   C     0.81189   0.31724   0.04285   0.00000  Uiso   1.00
C196   C     0.77996   0.37430   0.02564   0.00000  Uiso   1.00
C197   C     0.74749   0.47878   0.01708   0.00000  Uiso   1.00
C198   C     0.70294   0.19747   0.92366   0.00000  Uiso   1.00
C199   C     0.69991   0.15716   0.01771   0.00000  Uiso   1.00
C200   C     0.64660   0.12467   0.05227   0.00000  Uiso   1.00
C201   C     0.65358   0.09046   0.13981   0.00000  Uiso   1.00
C202   C     0.75708   0.16964   0.86156   0.00000  Uiso   1.00
C203   C     0.75183   0.14766   0.76481   0.00000  Uiso   1.00
C204   C     0.80692   0.12398   0.72088   0.00000  Uiso   1.00
C205   C     0.72528   0.26355   0.95611   0.00000  Uiso   1.00
C206   C     0.69331   0.32053   0.93883   0.00000  Uiso   1.00
C207   C     0.72165   0.37591   0.97448   0.00000  Uiso   1.00
H208   H     0.85544   0.19323   0.05743   0.00000  Uiso   1.00
H209   H     0.81024   0.12013   0.19578   0.00000  Uiso   1.00
H210   H     0.91545   0.14313   0.90836   0.00000  Uiso   1.00
H211   H     0.85694   0.31598   0.08236   0.00000  Uiso   1.00
H212   H     0.73446   0.03978   0.32663   0.00000  Uiso   1.00
H213   H     0.95630   0.08830   0.72059   0.00000  Uiso   1.00
H214   H     0.83293   0.45277   0.08749   0.00000  Uiso   1.00
H215   H     0.65762   0.19872   0.88389   0.00000  Uiso   1.00
H216   H     0.60156   0.12593   0.01273   0.00000  Uiso   1.00
H217   H     0.70677   0.14893   0.72531   0.00000  Uiso   1.00
H218   H     0.64826   0.32177   0.89931   0.00000  Uiso   1.00
H219   H     0.56509   0.04448   0.17806   0.00000  Uiso   1.00
H220   H     0.78693   0.09300   0.57201   0.00000  Uiso   1.00
H221   H     0.66356   0.45747   0.93892   0.00000  Uiso   1.00
O222   O     0.61648   0.99412   0.34021   0.00000  Uiso   1.00
O223   O     0.90752   0.05779   0.54510   0.00000  Uiso   1.00
O224   O     0.74566   0.53597   0.02647   0.00000  Uiso   1.00
N225   N     0.70229   0.05089   0.27400   0.00000  Uiso   1.00
N226   N     0.90969   0.09624   0.70739   0.00000  Uiso   1.00
N227   N     0.79436   0.43699   0.05038   0.00000  Uiso   1.00
N228   N     0.61115   0.05342   0.19405   0.00000  Uiso   1.00
N229   N     0.81856   0.09877   0.62744   0.00000  Uiso   1.00
N230   N     0.70322   0.43952   0.97044   0.00000  Uiso   1.00
C231   C     0.18988   0.80551   0.01767   0.00000  Uiso   1.00
C232   C     0.24187   0.84446   0.06879   0.00000  Uiso   1.00
C233   C     0.23482   0.87862   0.15629   0.00000  Uiso   1.00
C234   C     0.28810   0.91116   0.19096   0.00000  Uiso   1.00
C235   C     0.35997   0.97191   0.27807   0.00000  Uiso   1.00
C236   C     0.18471   0.83197   0.91263   0.00000  Uiso   1.00
C237   C     0.12960   0.85563   0.86883   0.00000  Uiso   1.00
C238   C     0.13476   0.87764   0.77204   0.00000  Uiso   1.00
C239   C     0.11788   0.91896   0.61668   0.00000  Uiso   1.00
C240   C     0.21650   0.73806   0.00717   0.00000  Uiso   1.00
C241   C     0.18811   0.68276   0.04285   0.00000  Uiso   1.00
C242   C     0.22004   0.62570   0.02564   0.00000  Uiso   1.00
C243   C     0.25251   0.52122   0.01708   0.00000  Uiso   1.00
C244   C     0.29706   0.80253   0.92366   0.00000  Uiso   1.00
C245   C     0.30009   0.84284   0.01771   0.00000  Uiso   1.00
C246   C     0.35340   0.87533   0.05227   0.00000  Uiso   1.00
C247   C     0.34642   0.90954   0.13981   0.00000  Uiso   1.00
C248   C     0.24292   0.83036   0.86156   0.00000  Uiso   1.00
C249   C     0.24817   0.85234   0.76481   0.00000  Uiso   1.00
C250   C     0.19308   0.87602   0.72088   0.00000  Uiso   1.00
C251   C     0.27472   0.73645   0.95611   0.00000  Uiso   1.00
C252   C     0.30669   0.67947   0.93883   0.00000  Uiso   1.00
C253   C     0.27835   0.62409   0.97448   0.00000  Uiso   1.00
H254   H     0.14456   0.80677   0.05743   0.00000  Uiso   1.00
H255   H     0.18976   0.87987   0.19578   0.00000  Uiso   1.00
H256   H     0.08455   0.85687   0.90836   0.00000  Uiso   1.00
H257   H     0.14306   0.68402   0.08236   0.00000  Uiso   1.00
H258   H     0.26554   0.96022   0.32663   0.00000  Uiso   1.00
H259   H     0.04370   0.91170   0.72059   0.00000  Uiso   1.00
H260   H     0.16707   0.54723   0.08749   0.00000  Uiso   1.00
H261   H     0.34238   0.80128   0.88389   0.00000  Uiso   1.00
H262   H     0.39844   0.87407   0.01273   0.00000  Uiso   1.00
H263   H     0.29323   0.85107   0.72531   0.00000  Uiso   1.00
H264   H     0.35174   0.67823   0.89931   0.00000  Uiso   1.00
H265   H     0.43491   0.95552   0.17806   0.00000  Uiso   1.00
H266   H     0.21307   0.90700   0.57201   0.00000  Uiso   1.00
H267   H     0.33644   0.54253   0.93892   0.00000  Uiso   1.00
O268   O     0.38352   0.00588   0.34021   0.00000  Uiso   1.00
O269   O     0.09248   0.94221   0.54510   0.00000  Uiso   1.00
O270   O     0.25434   0.46403   0.02647   0.00000  Uiso   1.00
N271   N     0.29771   0.94911   0.27400   0.00000  Uiso   1.00
N272   N     0.09031   0.90376   0.70739   0.00000  Uiso   1.00
N273   N     0.20564   0.56301   0.05038   0.00000  Uiso   1.00
N274   N     0.38885   0.94658   0.19405   0.00000  Uiso   1.00
N275   N     0.18144   0.90123   0.62744   0.00000  Uiso   1.00
N276   N     0.29678   0.56048   0.97044   0.00000  Uiso   1.00
C277   C     0.80551   0.81012   0.98233   0.00000  Uiso   1.00
C278   C     0.84446   0.75813   0.93121   0.00000  Uiso   1.00
C279   C     0.87862   0.76518   0.84371   0.00000  Uiso   1.00
C280   C     0.91116   0.71190   0.80904   0.00000  Uiso   1.00
C281   C     0.97191   0.64003   0.72193   0.00000  Uiso   1.00
C282   C     0.83197   0.81529   0.08737   0.00000  Uiso   1.00
C283   C     0.85563   0.87040   0.13117   0.00000  Uiso   1.00
C284   C     0.87764   0.86524   0.22796   0.00000  Uiso   1.00
C285   C     0.91896   0.88212   0.38332   0.00000  Uiso   1.00
C286   C     0.73806   0.78350   0.99283   0.00000  Uiso   1.00
C287   C     0.68276   0.81189   0.95715   0.00000  Uiso   1.00
C288   C     0.62570   0.77996   0.97436   0.00000  Uiso   1.00
C289   C     0.52122   0.74749   0.98292   0.00000  Uiso   1.00
C290   C     0.80253   0.70294   0.07634   0.00000  Uiso   1.00
C291   C     0.84284   0.69991   0.98229   0.00000  Uiso   1.00
C292   C     0.87533   0.64660   0.94773   0.00000  Uiso   1.00
C293   C     0.90954   0.65358   0.86019   0.00000  Uiso   1.00
C294   C     0.83036   0.75708   0.13844   0.00000  Uiso   1.00
C295   C     0.85234   0.75183   0.23519   0.00000  Uiso   1.00
C296   C     0.87602   0.80692   0.27912   0.00000  Uiso   1.00
C297   C     0.73645   0.72528   0.04389   0.00000  Uiso   1.00
C298   C     0.67947   0.69331   0.06117   0.00000  Uiso   1.00
C299   C     0.62409   0.72165   0.02552   0.00000  Uiso   1.00
H300   H     0.80677   0.85544   0.94257   0.00000  Uiso   1.00
H301   H     0.87987   0.81024   0.80422   0.00000  Uiso   1.00
H302   H     0.85687   0.91545   0.09164   0.00000  Uiso   1.00
H303   H     0.68402   0.85694   0.91764   0.00000  Uiso   1.00
H304   H     0.96022   0.73446   0.67337   0.00000  Uiso   1.00
H305   H     0.91170   0.95630   0.27941   0.00000  Uiso   1.00
H306   H     0.54723   0.83293   0.91251   0.00000  Uiso   1.00
H307   H     0.80128   0.65762   0.11611   0.00000  Uiso   1.00
H308   H     0.87407   0.60156   0.98727   0.00000  Uiso   1.00
H309   H     0.85107   0.70677   0.27469   0.00000  Uiso   1.00
H310   H     0.67823   0.64826   0.10069   0.00000  Uiso   1.00
H311   H     0.95552   0.56509   0.82194   0.00000  Uiso   1.00
H312   H     0.90700   0.78693   0.42799   0.00000  Uiso   1.00
H313   H     0.54253   0.66356   0.06108   0.00000  Uiso   1.00
O314   O     0.00588   0.61648   0.65979   0.00000  Uiso   1.00
O315   O     0.94221   0.90752   0.45490   0.00000  Uiso   1.00
O316   O     0.46403   0.74566   0.97353   0.00000  Uiso   1.00
N317   N     0.94911   0.70229   0.72600   0.00000  Uiso   1.00
N318   N     0.90376   0.90969   0.29261   0.00000  Uiso   1.00
N319   N     0.56301   0.79436   0.94962   0.00000  Uiso   1.00
N320   N     0.94658   0.61115   0.80595   0.00000  Uiso   1.00
N321   N     0.90123   0.81856   0.37256   0.00000  Uiso   1.00
N322   N     0.56048   0.70322   0.02956   0.00000  Uiso   1.00
C323   C     0.19449   0.18988   0.98233   0.00000  Uiso   1.00
C324   C     0.15554   0.24187   0.93121   0.00000  Uiso   1.00
C325   C     0.12138   0.23482   0.84371   0.00000  Uiso   1.00
C326   C     0.08884   0.28810   0.80904   0.00000  Uiso   1.00
C327   C     0.02809   0.35997   0.72193   0.00000  Uiso   1.00
C328   C     0.16803   0.18471   0.08737   0.00000  Uiso   1.00
C329   C     0.14437   0.12960   0.13117   0.00000  Uiso   1.00
C330   C     0.12236   0.13476   0.22796   0.00000  Uiso   1.00
C331   C     0.08104   0.11788   0.38332   0.00000  Uiso   1.00
C332   C     0.26194   0.21650   0.99283   0.00000  Uiso   1.00
C333   C     0.31724   0.18811   0.95715   0.00000  Uiso   1.00
C334   C     0.37430   0.22004   0.97436   0.00000  Uiso   1.00
C335   C     0.47878   0.25251   0.98292   0.00000  Uiso   1.00
C336   C     0.19747   0.29706   0.07634   0.00000  Uiso   1.00
C337   C     0.15716   0.30009   0.98229   0.00000  Uiso   1.00
C338   C     0.12467   0.35340   0.94773   0.00000  Uiso   1.00
C339   C     0.09046   0.34642   0.86019   0.00000  Uiso   1.00
C340   C     0.16964   0.24292   0.13844   0.00000  Uiso   1.00
C341   C     0.14766   0.24817   0.23519   0.00000  Uiso   1.00
C342   C     0.12398   0.19308   0.27912   0.00000  Uiso   1.00
C343   C     0.26355   0.27472   0.04389   0.00000  Uiso   1.00
C344   C     0.32053   0.30669   0.06117   0.00000  Uiso   1.00
C345   C     0.37591   0.27835   0.02552   0.00000  Uiso   1.00
H346   H     0.19323   0.14456   0.94257   0.00000  Uiso   1.00
H347   H     0.12013   0.18976   0.80422   0.00000  Uiso   1.00
H348   H     0.14313   0.08455   0.09164   0.00000  Uiso   1.00
H349   H     0.31598   0.14306   0.91764   0.00000  Uiso   1.00
H350   H     0.03978   0.26554   0.67337   0.00000  Uiso   1.00
H351   H     0.08830   0.04370   0.27941   0.00000  Uiso   1.00
H352   H     0.45277   0.16707   0.91251   0.00000  Uiso   1.00
H353   H     0.19872   0.34238   0.11611   0.00000  Uiso   1.00
H354   H     0.12593   0.39844   0.98727   0.00000  Uiso   1.00
H355   H     0.14893   0.29323   0.27469   0.00000  Uiso   1.00
H356   H     0.32177   0.35174   0.10069   0.00000  Uiso   1.00
H357   H     0.04448   0.43491   0.82194   0.00000  Uiso   1.00
H358   H     0.09300   0.21307   0.42799   0.00000  Uiso   1.00
H359   H     0.45747   0.33644   0.06108   0.00000  Uiso   1.00
O360   O     0.99412   0.38352   0.65979   0.00000  Uiso   1.00
O361   O     0.05779   0.09248   0.45490   0.00000  Uiso   1.00
O362   O     0.53597   0.25434   0.97353   0.00000  Uiso   1.00
N363   N     0.05089   0.29771   0.72600   0.00000  Uiso   1.00
N364   N     0.09624   0.09031   0.29261   0.00000  Uiso   1.00
N365   N     0.43699   0.20564   0.94962   0.00000  Uiso   1.00
N366   N     0.05342   0.38885   0.80595   0.00000  Uiso   1.00
N367   N     0.09877   0.18144   0.37256   0.00000  Uiso   1.00
N368   N     0.43952   0.29678   0.02956   0.00000  Uiso   1.00
