data_job_01670
_audit_creation_date              2018-12-19
_audit_creation_method            'Materials Studio'
_symmetry_space_group_name_H-M    'P1'
_symmetry_Int_Tables_number       1
_symmetry_cell_setting            triclinic
loop_
_symmetry_equiv_pos_as_xyz
  x,y,z
_cell_length_a                    20.4374
_cell_length_b                    19.8872
_cell_length_c                    12.8705
_cell_angle_alpha                 90.0000
_cell_angle_beta                  90.0000
_cell_angle_gamma                 90.0000
loop_
_atom_site_label
_atom_site_type_symbol
_atom_site_fract_x
_atom_site_fract_y
_atom_site_fract_z
_atom_site_U_iso_or_equiv
_atom_site_adp_type
_atom_site_occupancy
C1     C     0.36610   0.30572   0.41696   0.00000  Uiso   1.00
C2     C     0.41696   0.32434   0.49873   0.00000  Uiso   1.00
C3     C     0.47535   0.29066   0.51670   0.00000  Uiso   1.00
C4     C     0.51524   0.31558   0.59507   0.00000  Uiso   1.00
C5     C     0.59693   0.33587   0.71322   0.00000  Uiso   1.00
C6     C     0.30194   0.29589   0.47552   0.00000  Uiso   1.00
C7     C     0.26361   0.23829   0.47397   0.00000  Uiso   1.00
C8     C     0.20668   0.23926   0.53279   0.00000  Uiso   1.00
C9     C     0.10977   0.21539   0.61484   0.00000  Uiso   1.00
C10    C     0.35678   0.36830   0.35011   0.00000  Uiso   1.00
C11    C     0.36454   0.37158   0.24311   0.00000  Uiso   1.00
C12    C     0.35376   0.43352   0.19634   0.00000  Uiso   1.00
C13    C     0.34200   0.52207   0.08367   0.00000  Uiso   1.00
C14    C     0.33312   0.40986   0.52417   0.00000  Uiso   1.00
C15    C     0.39905   0.38091   0.55696   0.00000  Uiso   1.00
C16    C     0.43886   0.40588   0.63532   0.00000  Uiso   1.00
C17    C     0.49730   0.37225   0.65341   0.00000  Uiso   1.00
C18    C     0.28403   0.35245   0.53375   0.00000  Uiso   1.00
C19    C     0.22713   0.35351   0.59259   0.00000  Uiso   1.00
C20    C     0.18873   0.29592   0.59113   0.00000  Uiso   1.00
C21    C     0.33887   0.42487   0.40834   0.00000  Uiso   1.00
C22    C     0.32806   0.48680   0.36173   0.00000  Uiso   1.00
C23    C     0.33581   0.49018   0.25468   0.00000  Uiso   1.00
H24    H     0.38004   0.26168   0.37162   0.00000  Uiso   1.00
H25    H     0.48919   0.24689   0.47162   0.00000  Uiso   1.00
H26    H     0.27749   0.19453   0.42889   0.00000  Uiso   1.00
H27    H     0.37840   0.32780   0.19807   0.00000  Uiso   1.00
H28    H     0.60229   0.25541   0.60820   0.00000  Uiso   1.00
H29    H     0.15590   0.14501   0.51806   0.00000  Uiso   1.00
H30    H     0.36870   0.42605   0.03133   0.00000  Uiso   1.00
H31    H     0.31917   0.45390   0.56951   0.00000  Uiso   1.00
H32    H     0.42499   0.44966   0.68038   0.00000  Uiso   1.00
H33    H     0.21328   0.39729   0.63764   0.00000  Uiso   1.00
H34    H     0.31420   0.53057   0.40682   0.00000  Uiso   1.00
H35    H     0.55019   0.41998   0.77764   0.00000  Uiso   1.00
H36    H     0.10378   0.30958   0.68749   0.00000  Uiso   1.00
H37    H     0.31659   0.59062   0.20076   0.00000  Uiso   1.00
O38    O     0.64694   0.33142   0.76230   0.00000  Uiso   1.00
O39    O     0.06127   0.18659   0.64402   0.00000  Uiso   1.00
O40    O     0.34047   0.55530   0.00544   0.00000  Uiso   1.00
N41    N     0.57552   0.29474   0.63285   0.00000  Uiso   1.00
N42    N     0.15816   0.19151   0.54859   0.00000  Uiso   1.00
N43    N     0.35710   0.45425   0.09353   0.00000  Uiso   1.00
N44    N     0.54748   0.38329   0.72402   0.00000  Uiso   1.00
N45    N     0.13013   0.28007   0.63976   0.00000  Uiso   1.00
N46    N     0.32906   0.54281   0.18470   0.00000  Uiso   1.00
C47    C     0.13390   0.69428   0.41696   0.00000  Uiso   1.00
C48    C     0.08304   0.67566   0.49873   0.00000  Uiso   1.00
C49    C     0.02465   0.70934   0.51670   0.00000  Uiso   1.00
C50    C     0.98476   0.68442   0.59507   0.00000  Uiso   1.00
C51    C     0.90307   0.66413   0.71322   0.00000  Uiso   1.00
C52    C     0.19806   0.70411   0.47552   0.00000  Uiso   1.00
C53    C     0.23639   0.76171   0.47397   0.00000  Uiso   1.00
C54    C     0.29332   0.76074   0.53279   0.00000  Uiso   1.00
C55    C     0.39023   0.78461   0.61484   0.00000  Uiso   1.00
C56    C     0.14322   0.63170   0.35011   0.00000  Uiso   1.00
C57    C     0.13546   0.62842   0.24311   0.00000  Uiso   1.00
C58    C     0.14624   0.56648   0.19634   0.00000  Uiso   1.00
C59    C     0.15800   0.47793   0.08367   0.00000  Uiso   1.00
C60    C     0.16688   0.59014   0.52417   0.00000  Uiso   1.00
C61    C     0.10095   0.61909   0.55696   0.00000  Uiso   1.00
C62    C     0.06114   0.59412   0.63532   0.00000  Uiso   1.00
C63    C     0.00270   0.62775   0.65341   0.00000  Uiso   1.00
C64    C     0.21597   0.64755   0.53375   0.00000  Uiso   1.00
C65    C     0.27287   0.64649   0.59259   0.00000  Uiso   1.00
C66    C     0.31127   0.70408   0.59113   0.00000  Uiso   1.00
C67    C     0.16113   0.57513   0.40834   0.00000  Uiso   1.00
C68    C     0.17194   0.51320   0.36173   0.00000  Uiso   1.00
C69    C     0.16419   0.50982   0.25468   0.00000  Uiso   1.00
H70    H     0.11996   0.73832   0.37162   0.00000  Uiso   1.00
H71    H     0.01081   0.75311   0.47162   0.00000  Uiso   1.00
H72    H     0.22251   0.80547   0.42889   0.00000  Uiso   1.00
H73    H     0.12160   0.67220   0.19807   0.00000  Uiso   1.00
H74    H     0.89771   0.74459   0.60820   0.00000  Uiso   1.00
H75    H     0.34410   0.85499   0.51806   0.00000  Uiso   1.00
H76    H     0.13130   0.57395   0.03133   0.00000  Uiso   1.00
H77    H     0.18083   0.54610   0.56951   0.00000  Uiso   1.00
H78    H     0.07501   0.55034   0.68038   0.00000  Uiso   1.00
H79    H     0.28672   0.60271   0.63764   0.00000  Uiso   1.00
H80    H     0.18580   0.46943   0.40682   0.00000  Uiso   1.00
H81    H     0.94981   0.58002   0.77764   0.00000  Uiso   1.00
H82    H     0.39622   0.69042   0.68749   0.00000  Uiso   1.00
H83    H     0.18341   0.40938   0.20076   0.00000  Uiso   1.00
O84    O     0.85306   0.66858   0.76230   0.00000  Uiso   1.00
O85    O     0.43873   0.81341   0.64402   0.00000  Uiso   1.00
O86    O     0.15953   0.44470   0.00544   0.00000  Uiso   1.00
N87    N     0.92448   0.70526   0.63285   0.00000  Uiso   1.00
N88    N     0.34184   0.80849   0.54859   0.00000  Uiso   1.00
N89    N     0.14290   0.54575   0.09353   0.00000  Uiso   1.00
N90    N     0.95252   0.61671   0.72402   0.00000  Uiso   1.00
N91    N     0.36987   0.71993   0.63976   0.00000  Uiso   1.00
N92    N     0.17094   0.45719   0.18470   0.00000  Uiso   1.00
C93    C     0.13390   0.80572   0.08304   0.00000  Uiso   1.00
C94    C     0.08304   0.82434   0.00127   0.00000  Uiso   1.00
C95    C     0.02465   0.79066   0.98330   0.00000  Uiso   1.00
C96    C     0.98476   0.81558   0.90493   0.00000  Uiso   1.00
C97    C     0.90307   0.83587   0.78678   0.00000  Uiso   1.00
C98    C     0.19806   0.79589   0.02448   0.00000  Uiso   1.00
C99    C     0.23639   0.73829   0.02603   0.00000  Uiso   1.00
C100   C     0.29332   0.73926   0.96721   0.00000  Uiso   1.00
C101   C     0.39023   0.71539   0.88516   0.00000  Uiso   1.00
C102   C     0.14322   0.86830   0.14989   0.00000  Uiso   1.00
C103   C     0.13546   0.87158   0.25689   0.00000  Uiso   1.00
C104   C     0.14624   0.93352   0.30366   0.00000  Uiso   1.00
C105   C     0.15800   0.02207   0.41633   0.00000  Uiso   1.00
C106   C     0.16688   0.90986   0.97583   0.00000  Uiso   1.00
C107   C     0.10095   0.88091   0.94304   0.00000  Uiso   1.00
C108   C     0.06114   0.90588   0.86468   0.00000  Uiso   1.00
C109   C     0.00270   0.87225   0.84659   0.00000  Uiso   1.00
C110   C     0.21597   0.85245   0.96625   0.00000  Uiso   1.00
C111   C     0.27287   0.85351   0.90741   0.00000  Uiso   1.00
C112   C     0.31127   0.79592   0.90887   0.00000  Uiso   1.00
C113   C     0.16113   0.92487   0.09166   0.00000  Uiso   1.00
C114   C     0.17194   0.98680   0.13827   0.00000  Uiso   1.00
C115   C     0.16419   0.99018   0.24532   0.00000  Uiso   1.00
H116   H     0.11996   0.76168   0.12838   0.00000  Uiso   1.00
H117   H     0.01081   0.74689   0.02838   0.00000  Uiso   1.00
H118   H     0.22251   0.69453   0.07111   0.00000  Uiso   1.00
H119   H     0.12160   0.82780   0.30193   0.00000  Uiso   1.00
H120   H     0.89771   0.75541   0.89180   0.00000  Uiso   1.00
H121   H     0.34410   0.64501   0.98194   0.00000  Uiso   1.00
H122   H     0.13130   0.92605   0.46867   0.00000  Uiso   1.00
H123   H     0.18083   0.95390   0.93049   0.00000  Uiso   1.00
H124   H     0.07501   0.94966   0.81962   0.00000  Uiso   1.00
H125   H     0.28672   0.89729   0.86236   0.00000  Uiso   1.00
H126   H     0.18580   0.03057   0.09318   0.00000  Uiso   1.00
H127   H     0.94981   0.91998   0.72236   0.00000  Uiso   1.00
H128   H     0.39622   0.80958   0.81251   0.00000  Uiso   1.00
H129   H     0.18341   0.09062   0.29924   0.00000  Uiso   1.00
O130   O     0.85306   0.83142   0.73770   0.00000  Uiso   1.00
O131   O     0.43873   0.68659   0.85598   0.00000  Uiso   1.00
O132   O     0.15953   0.05530   0.49456   0.00000  Uiso   1.00
N133   N     0.92448   0.79474   0.86715   0.00000  Uiso   1.00
N134   N     0.34184   0.69151   0.95141   0.00000  Uiso   1.00
N135   N     0.14290   0.95425   0.40647   0.00000  Uiso   1.00
N136   N     0.95252   0.88329   0.77598   0.00000  Uiso   1.00
N137   N     0.36987   0.78007   0.86024   0.00000  Uiso   1.00
N138   N     0.17094   0.04281   0.31530   0.00000  Uiso   1.00
C139   C     0.36610   0.19428   0.08304   0.00000  Uiso   1.00
C140   C     0.41696   0.17566   0.00127   0.00000  Uiso   1.00
C141   C     0.47535   0.20934   0.98330   0.00000  Uiso   1.00
C142   C     0.51524   0.18442   0.90493   0.00000  Uiso   1.00
C143   C     0.59693   0.16413   0.78678   0.00000  Uiso   1.00
C144   C     0.30194   0.20411   0.02448   0.00000  Uiso   1.00
C145   C     0.26361   0.26171   0.02603   0.00000  Uiso   1.00
C146   C     0.20668   0.26074   0.96721   0.00000  Uiso   1.00
C147   C     0.10977   0.28461   0.88516   0.00000  Uiso   1.00
C148   C     0.35678   0.13170   0.14989   0.00000  Uiso   1.00
C149   C     0.36454   0.12842   0.25689   0.00000  Uiso   1.00
C150   C     0.35376   0.06648   0.30366   0.00000  Uiso   1.00
C151   C     0.34200   0.97793   0.41633   0.00000  Uiso   1.00
C152   C     0.33312   0.09014   0.97583   0.00000  Uiso   1.00
C153   C     0.39905   0.11909   0.94304   0.00000  Uiso   1.00
C154   C     0.43886   0.09412   0.86468   0.00000  Uiso   1.00
C155   C     0.49730   0.12775   0.84659   0.00000  Uiso   1.00
C156   C     0.28403   0.14755   0.96625   0.00000  Uiso   1.00
C157   C     0.22713   0.14649   0.90741   0.00000  Uiso   1.00
C158   C     0.18873   0.20408   0.90887   0.00000  Uiso   1.00
C159   C     0.33887   0.07513   0.09166   0.00000  Uiso   1.00
C160   C     0.32806   0.01320   0.13827   0.00000  Uiso   1.00
C161   C     0.33581   0.00982   0.24532   0.00000  Uiso   1.00
H162   H     0.38004   0.23832   0.12838   0.00000  Uiso   1.00
H163   H     0.48919   0.25311   0.02838   0.00000  Uiso   1.00
H164   H     0.27749   0.30547   0.07111   0.00000  Uiso   1.00
H165   H     0.37840   0.17220   0.30193   0.00000  Uiso   1.00
H166   H     0.60229   0.24459   0.89180   0.00000  Uiso   1.00
H167   H     0.15590   0.35499   0.98194   0.00000  Uiso   1.00
H168   H     0.36870   0.07395   0.46867   0.00000  Uiso   1.00
H169   H     0.31917   0.04610   0.93049   0.00000  Uiso   1.00
H170   H     0.42499   0.05034   0.81962   0.00000  Uiso   1.00
H171   H     0.21328   0.10271   0.86236   0.00000  Uiso   1.00
H172   H     0.31420   0.96943   0.09318   0.00000  Uiso   1.00
H173   H     0.55019   0.08002   0.72236   0.00000  Uiso   1.00
H174   H     0.10378   0.19042   0.81251   0.00000  Uiso   1.00
H175   H     0.31659   0.90938   0.29924   0.00000  Uiso   1.00
O176   O     0.64694   0.16858   0.73770   0.00000  Uiso   1.00
O177   O     0.06127   0.31341   0.85598   0.00000  Uiso   1.00
O178   O     0.34047   0.94470   0.49456   0.00000  Uiso   1.00
N179   N     0.57552   0.20526   0.86715   0.00000  Uiso   1.00
N180   N     0.15816   0.30849   0.95141   0.00000  Uiso   1.00
N181   N     0.35710   0.04575   0.40647   0.00000  Uiso   1.00
N182   N     0.54748   0.11671   0.77598   0.00000  Uiso   1.00
N183   N     0.13013   0.21993   0.86024   0.00000  Uiso   1.00
N184   N     0.32906   0.95719   0.31530   0.00000  Uiso   1.00
C185   C     0.63390   0.69428   0.58304   0.00000  Uiso   1.00
C186   C     0.58304   0.67566   0.50127   0.00000  Uiso   1.00
C187   C     0.52465   0.70934   0.48330   0.00000  Uiso   1.00
C188   C     0.48476   0.68442   0.40493   0.00000  Uiso   1.00
C189   C     0.40307   0.66413   0.28678   0.00000  Uiso   1.00
C190   C     0.69806   0.70411   0.52448   0.00000  Uiso   1.00
C191   C     0.73639   0.76171   0.52603   0.00000  Uiso   1.00
C192   C     0.79332   0.76074   0.46721   0.00000  Uiso   1.00
C193   C     0.89023   0.78461   0.38516   0.00000  Uiso   1.00
C194   C     0.64322   0.63170   0.64989   0.00000  Uiso   1.00
C195   C     0.63546   0.62842   0.75689   0.00000  Uiso   1.00
C196   C     0.64624   0.56648   0.80366   0.00000  Uiso   1.00
C197   C     0.65800   0.47793   0.91633   0.00000  Uiso   1.00
C198   C     0.66688   0.59014   0.47583   0.00000  Uiso   1.00
C199   C     0.60095   0.61909   0.44304   0.00000  Uiso   1.00
C200   C     0.56114   0.59412   0.36468   0.00000  Uiso   1.00
C201   C     0.50270   0.62775   0.34659   0.00000  Uiso   1.00
C202   C     0.71597   0.64755   0.46625   0.00000  Uiso   1.00
C203   C     0.77287   0.64649   0.40741   0.00000  Uiso   1.00
C204   C     0.81127   0.70408   0.40887   0.00000  Uiso   1.00
C205   C     0.66113   0.57513   0.59166   0.00000  Uiso   1.00
C206   C     0.67194   0.51320   0.63827   0.00000  Uiso   1.00
C207   C     0.66419   0.50982   0.74532   0.00000  Uiso   1.00
H208   H     0.61996   0.73832   0.62838   0.00000  Uiso   1.00
H209   H     0.51081   0.75311   0.52838   0.00000  Uiso   1.00
H210   H     0.72251   0.80547   0.57111   0.00000  Uiso   1.00
H211   H     0.62160   0.67220   0.80193   0.00000  Uiso   1.00
H212   H     0.39771   0.74459   0.39180   0.00000  Uiso   1.00
H213   H     0.84410   0.85499   0.48194   0.00000  Uiso   1.00
H214   H     0.63130   0.57395   0.96867   0.00000  Uiso   1.00
H215   H     0.68083   0.54610   0.43049   0.00000  Uiso   1.00
H216   H     0.57501   0.55034   0.31962   0.00000  Uiso   1.00
H217   H     0.78672   0.60271   0.36236   0.00000  Uiso   1.00
H218   H     0.68580   0.46943   0.59318   0.00000  Uiso   1.00
H219   H     0.44981   0.58002   0.22236   0.00000  Uiso   1.00
H220   H     0.89622   0.69042   0.31251   0.00000  Uiso   1.00
H221   H     0.68341   0.40938   0.79924   0.00000  Uiso   1.00
O222   O     0.35306   0.66858   0.23770   0.00000  Uiso   1.00
O223   O     0.93873   0.81341   0.35598   0.00000  Uiso   1.00
O224   O     0.65953   0.44470   0.99456   0.00000  Uiso   1.00
N225   N     0.42448   0.70526   0.36715   0.00000  Uiso   1.00
N226   N     0.84184   0.80849   0.45141   0.00000  Uiso   1.00
N227   N     0.64290   0.54575   0.90647   0.00000  Uiso   1.00
N228   N     0.45252   0.61671   0.27598   0.00000  Uiso   1.00
N229   N     0.86987   0.71993   0.36024   0.00000  Uiso   1.00
N230   N     0.67094   0.45719   0.81530   0.00000  Uiso   1.00
C231   C     0.86610   0.30572   0.58304   0.00000  Uiso   1.00
C232   C     0.91696   0.32434   0.50127   0.00000  Uiso   1.00
C233   C     0.97535   0.29066   0.48330   0.00000  Uiso   1.00
C234   C     0.01524   0.31558   0.40493   0.00000  Uiso   1.00
C235   C     0.09693   0.33587   0.28678   0.00000  Uiso   1.00
C236   C     0.80194   0.29589   0.52448   0.00000  Uiso   1.00
C237   C     0.76361   0.23829   0.52603   0.00000  Uiso   1.00
C238   C     0.70668   0.23926   0.46721   0.00000  Uiso   1.00
C239   C     0.60977   0.21539   0.38516   0.00000  Uiso   1.00
C240   C     0.85678   0.36830   0.64989   0.00000  Uiso   1.00
C241   C     0.86454   0.37158   0.75689   0.00000  Uiso   1.00
C242   C     0.85376   0.43352   0.80366   0.00000  Uiso   1.00
C243   C     0.84200   0.52207   0.91633   0.00000  Uiso   1.00
C244   C     0.83312   0.40986   0.47583   0.00000  Uiso   1.00
C245   C     0.89905   0.38091   0.44304   0.00000  Uiso   1.00
C246   C     0.93886   0.40588   0.36468   0.00000  Uiso   1.00
C247   C     0.99730   0.37225   0.34659   0.00000  Uiso   1.00
C248   C     0.78403   0.35245   0.46625   0.00000  Uiso   1.00
C249   C     0.72713   0.35351   0.40741   0.00000  Uiso   1.00
C250   C     0.68873   0.29592   0.40887   0.00000  Uiso   1.00
C251   C     0.83887   0.42487   0.59166   0.00000  Uiso   1.00
C252   C     0.82806   0.48680   0.63827   0.00000  Uiso   1.00
C253   C     0.83581   0.49018   0.74532   0.00000  Uiso   1.00
H254   H     0.88004   0.26168   0.62838   0.00000  Uiso   1.00
H255   H     0.98919   0.24689   0.52838   0.00000  Uiso   1.00
H256   H     0.77749   0.19453   0.57111   0.00000  Uiso   1.00
H257   H     0.87840   0.32780   0.80193   0.00000  Uiso   1.00
H258   H     0.10229   0.25541   0.39180   0.00000  Uiso   1.00
H259   H     0.65590   0.14501   0.48194   0.00000  Uiso   1.00
H260   H     0.86870   0.42605   0.96867   0.00000  Uiso   1.00
H261   H     0.81917   0.45390   0.43049   0.00000  Uiso   1.00
H262   H     0.92499   0.44966   0.31962   0.00000  Uiso   1.00
H263   H     0.71328   0.39729   0.36236   0.00000  Uiso   1.00
H264   H     0.81420   0.53057   0.59318   0.00000  Uiso   1.00
H265   H     0.05019   0.41998   0.22236   0.00000  Uiso   1.00
H266   H     0.60378   0.30958   0.31251   0.00000  Uiso   1.00
H267   H     0.81659   0.59062   0.79924   0.00000  Uiso   1.00
O268   O     0.14694   0.33142   0.23770   0.00000  Uiso   1.00
O269   O     0.56127   0.18659   0.35598   0.00000  Uiso   1.00
O270   O     0.84047   0.55530   0.99456   0.00000  Uiso   1.00
N271   N     0.07552   0.29474   0.36715   0.00000  Uiso   1.00
N272   N     0.65816   0.19151   0.45141   0.00000  Uiso   1.00
N273   N     0.85710   0.45425   0.90647   0.00000  Uiso   1.00
N274   N     0.04748   0.38329   0.27598   0.00000  Uiso   1.00
N275   N     0.63013   0.28007   0.36024   0.00000  Uiso   1.00
N276   N     0.82906   0.54281   0.81530   0.00000  Uiso   1.00
C277   C     0.86610   0.19428   0.91696   0.00000  Uiso   1.00
C278   C     0.91696   0.17566   0.99873   0.00000  Uiso   1.00
C279   C     0.97535   0.20934   0.01670   0.00000  Uiso   1.00
C280   C     0.01524   0.18442   0.09507   0.00000  Uiso   1.00
C281   C     0.09693   0.16413   0.21322   0.00000  Uiso   1.00
C282   C     0.80194   0.20411   0.97552   0.00000  Uiso   1.00
C283   C     0.76361   0.26171   0.97397   0.00000  Uiso   1.00
C284   C     0.70668   0.26074   0.03279   0.00000  Uiso   1.00
C285   C     0.60977   0.28461   0.11484   0.00000  Uiso   1.00
C286   C     0.85678   0.13170   0.85011   0.00000  Uiso   1.00
C287   C     0.86454   0.12842   0.74311   0.00000  Uiso   1.00
C288   C     0.85376   0.06648   0.69634   0.00000  Uiso   1.00
C289   C     0.84200   0.97793   0.58367   0.00000  Uiso   1.00
C290   C     0.83312   0.09014   0.02417   0.00000  Uiso   1.00
C291   C     0.89905   0.11909   0.05696   0.00000  Uiso   1.00
C292   C     0.93886   0.09412   0.13532   0.00000  Uiso   1.00
C293   C     0.99730   0.12775   0.15341   0.00000  Uiso   1.00
C294   C     0.78403   0.14755   0.03375   0.00000  Uiso   1.00
C295   C     0.72713   0.14649   0.09259   0.00000  Uiso   1.00
C296   C     0.68873   0.20408   0.09113   0.00000  Uiso   1.00
C297   C     0.83887   0.07513   0.90834   0.00000  Uiso   1.00
C298   C     0.82806   0.01320   0.86173   0.00000  Uiso   1.00
C299   C     0.83581   0.00982   0.75468   0.00000  Uiso   1.00
H300   H     0.88004   0.23832   0.87162   0.00000  Uiso   1.00
H301   H     0.98919   0.25311   0.97162   0.00000  Uiso   1.00
H302   H     0.77749   0.30547   0.92889   0.00000  Uiso   1.00
H303   H     0.87840   0.17220   0.69807   0.00000  Uiso   1.00
H304   H     0.10229   0.24459   0.10820   0.00000  Uiso   1.00
H305   H     0.65590   0.35499   0.01806   0.00000  Uiso   1.00
H306   H     0.86870   0.07395   0.53133   0.00000  Uiso   1.00
H307   H     0.81917   0.04610   0.06951   0.00000  Uiso   1.00
H308   H     0.92499   0.05034   0.18038   0.00000  Uiso   1.00
H309   H     0.71328   0.10271   0.13764   0.00000  Uiso   1.00
H310   H     0.81420   0.96943   0.90682   0.00000  Uiso   1.00
H311   H     0.05019   0.08002   0.27764   0.00000  Uiso   1.00
H312   H     0.60378   0.19042   0.18749   0.00000  Uiso   1.00
H313   H     0.81659   0.90938   0.70076   0.00000  Uiso   1.00
O314   O     0.14694   0.16858   0.26230   0.00000  Uiso   1.00
O315   O     0.56127   0.31341   0.14402   0.00000  Uiso   1.00
O316   O     0.84047   0.94470   0.50544   0.00000  Uiso   1.00
N317   N     0.07552   0.20526   0.13285   0.00000  Uiso   1.00
N318   N     0.65816   0.30849   0.04859   0.00000  Uiso   1.00
N319   N     0.85710   0.04575   0.59353   0.00000  Uiso   1.00
N320   N     0.04748   0.11671   0.22402   0.00000  Uiso   1.00
N321   N     0.63013   0.21993   0.13976   0.00000  Uiso   1.00
N322   N     0.82906   0.95719   0.68470   0.00000  Uiso   1.00
C323   C     0.63390   0.80572   0.91696   0.00000  Uiso   1.00
C324   C     0.58304   0.82434   0.99873   0.00000  Uiso   1.00
C325   C     0.52465   0.79066   0.01670   0.00000  Uiso   1.00
C326   C     0.48476   0.81558   0.09507   0.00000  Uiso   1.00
C327   C     0.40307   0.83587   0.21322   0.00000  Uiso   1.00
C328   C     0.69806   0.79589   0.97552   0.00000  Uiso   1.00
C329   C     0.73639   0.73829   0.97397   0.00000  Uiso   1.00
C330   C     0.79332   0.73926   0.03279   0.00000  Uiso   1.00
C331   C     0.89023   0.71539   0.11484   0.00000  Uiso   1.00
C332   C     0.64322   0.86830   0.85011   0.00000  Uiso   1.00
C333   C     0.63546   0.87158   0.74311   0.00000  Uiso   1.00
C334   C     0.64624   0.93352   0.69634   0.00000  Uiso   1.00
C335   C     0.65800   0.02207   0.58367   0.00000  Uiso   1.00
C336   C     0.66688   0.90986   0.02417   0.00000  Uiso   1.00
C337   C     0.60095   0.88091   0.05696   0.00000  Uiso   1.00
C338   C     0.56114   0.90588   0.13532   0.00000  Uiso   1.00
C339   C     0.50270   0.87225   0.15341   0.00000  Uiso   1.00
C340   C     0.71597   0.85245   0.03375   0.00000  Uiso   1.00
C341   C     0.77287   0.85351   0.09259   0.00000  Uiso   1.00
C342   C     0.81127   0.79592   0.09113   0.00000  Uiso   1.00
C343   C     0.66113   0.92487   0.90834   0.00000  Uiso   1.00
C344   C     0.67194   0.98680   0.86173   0.00000  Uiso   1.00
C345   C     0.66419   0.99018   0.75468   0.00000  Uiso   1.00
H346   H     0.61996   0.76168   0.87162   0.00000  Uiso   1.00
H347   H     0.51081   0.74689   0.97162   0.00000  Uiso   1.00
H348   H     0.72251   0.69453   0.92889   0.00000  Uiso   1.00
H349   H     0.62160   0.82780   0.69807   0.00000  Uiso   1.00
H350   H     0.39771   0.75541   0.10820   0.00000  Uiso   1.00
H351   H     0.84410   0.64501   0.01806   0.00000  Uiso   1.00
H352   H     0.63130   0.92605   0.53133   0.00000  Uiso   1.00
H353   H     0.68083   0.95390   0.06951   0.00000  Uiso   1.00
H354   H     0.57501   0.94966   0.18038   0.00000  Uiso   1.00
H355   H     0.78672   0.89729   0.13764   0.00000  Uiso   1.00
H356   H     0.68580   0.03057   0.90682   0.00000  Uiso   1.00
H357   H     0.44981   0.91998   0.27764   0.00000  Uiso   1.00
H358   H     0.89622   0.80958   0.18749   0.00000  Uiso   1.00
H359   H     0.68341   0.09062   0.70076   0.00000  Uiso   1.00
O360   O     0.35306   0.83142   0.26230   0.00000  Uiso   1.00
O361   O     0.93873   0.68659   0.14402   0.00000  Uiso   1.00
O362   O     0.65953   0.05530   0.50544   0.00000  Uiso   1.00
N363   N     0.42448   0.79474   0.13285   0.00000  Uiso   1.00
N364   N     0.84184   0.69151   0.04859   0.00000  Uiso   1.00
N365   N     0.64290   0.95425   0.59353   0.00000  Uiso   1.00
N366   N     0.45252   0.88329   0.22402   0.00000  Uiso   1.00
N367   N     0.86987   0.78007   0.13976   0.00000  Uiso   1.00
N368   N     0.67094   0.04281   0.68470   0.00000  Uiso   1.00
