data_job_02599
_audit_creation_date              2018-12-19
_audit_creation_method            'Materials Studio'
_symmetry_space_group_name_H-M    'P1'
_symmetry_Int_Tables_number       1
_symmetry_cell_setting            triclinic
loop_
_symmetry_equiv_pos_as_xyz
  x,y,z
_cell_length_a                    38.4091
_cell_length_b                    21.6159
_cell_length_c                    14.0331
_cell_angle_alpha                 90.0000
_cell_angle_beta                  72.7625
_cell_angle_gamma                 90.0000
loop_
_atom_site_label
_atom_site_type_symbol
_atom_site_fract_x
_atom_site_fract_y
_atom_site_fract_z
_atom_site_U_iso_or_equiv
_atom_site_adp_type
_atom_site_occupancy
C1     C     0.83447   0.63294   0.63430   0.00000  Uiso   1.00
C2     C     0.80230   0.59435   0.62571   0.00000  Uiso   1.00
C3     C     0.77804   0.56227   0.70296   0.00000  Uiso   1.00
C4     C     0.75043   0.52971   0.67990   0.00000  Uiso   1.00
C5     C     0.70097   0.46983   0.68130   0.00000  Uiso   1.00
C6     C     0.86810   0.60647   0.55781   0.00000  Uiso   1.00
C7     C     0.89915   0.58460   0.57797   0.00000  Uiso   1.00
C8     C     0.92693   0.56224   0.49774   0.00000  Uiso   1.00
C9     C     0.97963   0.52122   0.39371   0.00000  Uiso   1.00
C10    C     0.82901   0.69745   0.59715   0.00000  Uiso   1.00
C11    C     0.82720   0.75208   0.65038   0.00000  Uiso   1.00
C12    C     0.82208   0.80632   0.60326   0.00000  Uiso   1.00
C13    C     0.81409   0.90656   0.56031   0.00000  Uiso   1.00
C14    C     0.82861   0.63215   0.45597   0.00000  Uiso   1.00
C15    C     0.79912   0.59392   0.52885   0.00000  Uiso   1.00
C16    C     0.77154   0.56140   0.50567   0.00000  Uiso   1.00
C17    C     0.74724   0.52928   0.58287   0.00000  Uiso   1.00
C18    C     0.86491   0.60604   0.46096   0.00000  Uiso   1.00
C19    C     0.89265   0.58372   0.38068   0.00000  Uiso   1.00
C20    C     0.92374   0.56181   0.40071   0.00000  Uiso   1.00
C21    C     0.82582   0.69703   0.50029   0.00000  Uiso   1.00
C22    C     0.82071   0.75120   0.45308   0.00000  Uiso   1.00
C23    C     0.81889   0.80589   0.50622   0.00000  Uiso   1.00
H24    H     0.83696   0.63327   0.70970   0.00000  Uiso   1.00
H25    H     0.78051   0.56261   0.77791   0.00000  Uiso   1.00
H26    H     0.90161   0.58494   0.65293   0.00000  Uiso   1.00
H27    H     0.82967   0.75239   0.72533   0.00000  Uiso   1.00
H28    H     0.71654   0.48406   0.81081   0.00000  Uiso   1.00
H29    H     0.97187   0.53116   0.54729   0.00000  Uiso   1.00
H30    H     0.82018   0.88426   0.69994   0.00000  Uiso   1.00
H31    H     0.82613   0.63182   0.38056   0.00000  Uiso   1.00
H32    H     0.76908   0.56108   0.43070   0.00000  Uiso   1.00
H33    H     0.89018   0.58340   0.30573   0.00000  Uiso   1.00
H34    H     0.81824   0.75085   0.37813   0.00000  Uiso   1.00
H35    H     0.70726   0.48281   0.52900   0.00000  Uiso   1.00
H36    H     0.96260   0.52991   0.26548   0.00000  Uiso   1.00
H37    H     0.81091   0.88302   0.41814   0.00000  Uiso   1.00
O38    O     0.67458   0.43691   0.70882   0.00000  Uiso   1.00
O39    O     0.00957   0.49871   0.36310   0.00000  Uiso   1.00
O40    O     0.81056   0.96197   0.56338   0.00000  Uiso   1.00
N41    N     0.72218   0.49349   0.73761   0.00000  Uiso   1.00
N42    N     0.96090   0.53751   0.49123   0.00000  Uiso   1.00
N43    N     0.81909   0.86763   0.63395   0.00000  Uiso   1.00
N44    N     0.71718   0.49281   0.58597   0.00000  Uiso   1.00
N45    N     0.95591   0.53684   0.33960   0.00000  Uiso   1.00
N46    N     0.81410   0.86696   0.48231   0.00000  Uiso   1.00
C47    C     0.33447   0.13294   0.63430   0.00000  Uiso   1.00
C48    C     0.30230   0.09435   0.62571   0.00000  Uiso   1.00
C49    C     0.27804   0.06227   0.70296   0.00000  Uiso   1.00
C50    C     0.25043   0.02971   0.67990   0.00000  Uiso   1.00
C51    C     0.20097   0.96983   0.68130   0.00000  Uiso   1.00
C52    C     0.36810   0.10647   0.55781   0.00000  Uiso   1.00
C53    C     0.39915   0.08460   0.57797   0.00000  Uiso   1.00
C54    C     0.42693   0.06224   0.49774   0.00000  Uiso   1.00
C55    C     0.47963   0.02122   0.39371   0.00000  Uiso   1.00
C56    C     0.32901   0.19745   0.59715   0.00000  Uiso   1.00
C57    C     0.32720   0.25208   0.65038   0.00000  Uiso   1.00
C58    C     0.32208   0.30632   0.60326   0.00000  Uiso   1.00
C59    C     0.31409   0.40656   0.56031   0.00000  Uiso   1.00
C60    C     0.32861   0.13215   0.45597   0.00000  Uiso   1.00
C61    C     0.29912   0.09392   0.52885   0.00000  Uiso   1.00
C62    C     0.27154   0.06140   0.50567   0.00000  Uiso   1.00
C63    C     0.24724   0.02928   0.58287   0.00000  Uiso   1.00
C64    C     0.36491   0.10604   0.46096   0.00000  Uiso   1.00
C65    C     0.39265   0.08372   0.38068   0.00000  Uiso   1.00
C66    C     0.42374   0.06181   0.40071   0.00000  Uiso   1.00
C67    C     0.32582   0.19703   0.50029   0.00000  Uiso   1.00
C68    C     0.32071   0.25120   0.45308   0.00000  Uiso   1.00
C69    C     0.31889   0.30589   0.50622   0.00000  Uiso   1.00
H70    H     0.33696   0.13327   0.70970   0.00000  Uiso   1.00
H71    H     0.28051   0.06261   0.77791   0.00000  Uiso   1.00
H72    H     0.40161   0.08494   0.65293   0.00000  Uiso   1.00
H73    H     0.32967   0.25239   0.72533   0.00000  Uiso   1.00
H74    H     0.21654   0.98406   0.81081   0.00000  Uiso   1.00
H75    H     0.47187   0.03116   0.54729   0.00000  Uiso   1.00
H76    H     0.32018   0.38426   0.69994   0.00000  Uiso   1.00
H77    H     0.32613   0.13182   0.38056   0.00000  Uiso   1.00
H78    H     0.26908   0.06108   0.43070   0.00000  Uiso   1.00
H79    H     0.39018   0.08340   0.30573   0.00000  Uiso   1.00
H80    H     0.31824   0.25085   0.37813   0.00000  Uiso   1.00
H81    H     0.20726   0.98281   0.52900   0.00000  Uiso   1.00
H82    H     0.46260   0.02991   0.26548   0.00000  Uiso   1.00
H83    H     0.31091   0.38302   0.41814   0.00000  Uiso   1.00
O84    O     0.17458   0.93691   0.70882   0.00000  Uiso   1.00
O85    O     0.50957   0.99871   0.36310   0.00000  Uiso   1.00
O86    O     0.31056   0.46197   0.56338   0.00000  Uiso   1.00
N87    N     0.22218   0.99349   0.73761   0.00000  Uiso   1.00
N88    N     0.46090   0.03751   0.49123   0.00000  Uiso   1.00
N89    N     0.31909   0.36763   0.63395   0.00000  Uiso   1.00
N90    N     0.21718   0.99281   0.58597   0.00000  Uiso   1.00
N91    N     0.45591   0.03684   0.33960   0.00000  Uiso   1.00
N92    N     0.31410   0.36696   0.48231   0.00000  Uiso   1.00
C93    C     0.16553   0.63294   0.86570   0.00000  Uiso   1.00
C94    C     0.19770   0.59435   0.87429   0.00000  Uiso   1.00
C95    C     0.22196   0.56227   0.79704   0.00000  Uiso   1.00
C96    C     0.24957   0.52971   0.82010   0.00000  Uiso   1.00
C97    C     0.29903   0.46983   0.81870   0.00000  Uiso   1.00
C98    C     0.13190   0.60647   0.94219   0.00000  Uiso   1.00
C99    C     0.10085   0.58460   0.92203   0.00000  Uiso   1.00
C100   C     0.07307   0.56224   0.00226   0.00000  Uiso   1.00
C101   C     0.02037   0.52122   0.10629   0.00000  Uiso   1.00
C102   C     0.17099   0.69745   0.90285   0.00000  Uiso   1.00
C103   C     0.17280   0.75208   0.84962   0.00000  Uiso   1.00
C104   C     0.17792   0.80632   0.89674   0.00000  Uiso   1.00
C105   C     0.18591   0.90656   0.93969   0.00000  Uiso   1.00
C106   C     0.17139   0.63215   0.04403   0.00000  Uiso   1.00
C107   C     0.20088   0.59392   0.97115   0.00000  Uiso   1.00
C108   C     0.22846   0.56140   0.99433   0.00000  Uiso   1.00
C109   C     0.25276   0.52928   0.91713   0.00000  Uiso   1.00
C110   C     0.13509   0.60604   0.03904   0.00000  Uiso   1.00
C111   C     0.10735   0.58372   0.11932   0.00000  Uiso   1.00
C112   C     0.07626   0.56181   0.09929   0.00000  Uiso   1.00
C113   C     0.17418   0.69703   0.99971   0.00000  Uiso   1.00
C114   C     0.17929   0.75120   0.04692   0.00000  Uiso   1.00
C115   C     0.18111   0.80589   0.99378   0.00000  Uiso   1.00
H116   H     0.16304   0.63327   0.79030   0.00000  Uiso   1.00
H117   H     0.21949   0.56261   0.72209   0.00000  Uiso   1.00
H118   H     0.09839   0.58494   0.84707   0.00000  Uiso   1.00
H119   H     0.17033   0.75239   0.77467   0.00000  Uiso   1.00
H120   H     0.28346   0.48406   0.68919   0.00000  Uiso   1.00
H121   H     0.02813   0.53116   0.95271   0.00000  Uiso   1.00
H122   H     0.17982   0.88426   0.80006   0.00000  Uiso   1.00
H123   H     0.17387   0.63182   0.11944   0.00000  Uiso   1.00
H124   H     0.23092   0.56108   0.06930   0.00000  Uiso   1.00
H125   H     0.10982   0.58340   0.19427   0.00000  Uiso   1.00
H126   H     0.18176   0.75085   0.12187   0.00000  Uiso   1.00
H127   H     0.29274   0.48281   0.97100   0.00000  Uiso   1.00
H128   H     0.03740   0.52991   0.23452   0.00000  Uiso   1.00
H129   H     0.18909   0.88302   0.08186   0.00000  Uiso   1.00
O130   O     0.32542   0.43691   0.79118   0.00000  Uiso   1.00
O131   O     0.99043   0.49871   0.13690   0.00000  Uiso   1.00
O132   O     0.18944   0.96197   0.93662   0.00000  Uiso   1.00
N133   N     0.27782   0.49349   0.76239   0.00000  Uiso   1.00
N134   N     0.03910   0.53751   0.00877   0.00000  Uiso   1.00
N135   N     0.18091   0.86763   0.86605   0.00000  Uiso   1.00
N136   N     0.28282   0.49281   0.91403   0.00000  Uiso   1.00
N137   N     0.04409   0.53684   0.16040   0.00000  Uiso   1.00
N138   N     0.18590   0.86696   0.01769   0.00000  Uiso   1.00
C139   C     0.66553   0.13294   0.86570   0.00000  Uiso   1.00
C140   C     0.69770   0.09435   0.87429   0.00000  Uiso   1.00
C141   C     0.72196   0.06227   0.79704   0.00000  Uiso   1.00
C142   C     0.74957   0.02971   0.82010   0.00000  Uiso   1.00
C143   C     0.79903   0.96983   0.81870   0.00000  Uiso   1.00
C144   C     0.63190   0.10647   0.94219   0.00000  Uiso   1.00
C145   C     0.60085   0.08460   0.92203   0.00000  Uiso   1.00
C146   C     0.57307   0.06224   0.00226   0.00000  Uiso   1.00
C147   C     0.52037   0.02122   0.10629   0.00000  Uiso   1.00
C148   C     0.67099   0.19745   0.90285   0.00000  Uiso   1.00
C149   C     0.67280   0.25208   0.84962   0.00000  Uiso   1.00
C150   C     0.67792   0.30632   0.89674   0.00000  Uiso   1.00
C151   C     0.68591   0.40656   0.93969   0.00000  Uiso   1.00
C152   C     0.67139   0.13215   0.04403   0.00000  Uiso   1.00
C153   C     0.70088   0.09392   0.97115   0.00000  Uiso   1.00
C154   C     0.72846   0.06140   0.99433   0.00000  Uiso   1.00
C155   C     0.75276   0.02928   0.91713   0.00000  Uiso   1.00
C156   C     0.63509   0.10604   0.03904   0.00000  Uiso   1.00
C157   C     0.60735   0.08372   0.11932   0.00000  Uiso   1.00
C158   C     0.57626   0.06181   0.09929   0.00000  Uiso   1.00
C159   C     0.67418   0.19703   0.99971   0.00000  Uiso   1.00
C160   C     0.67929   0.25120   0.04692   0.00000  Uiso   1.00
C161   C     0.68111   0.30589   0.99378   0.00000  Uiso   1.00
H162   H     0.66304   0.13327   0.79030   0.00000  Uiso   1.00
H163   H     0.71949   0.06261   0.72209   0.00000  Uiso   1.00
H164   H     0.59839   0.08494   0.84707   0.00000  Uiso   1.00
H165   H     0.67033   0.25239   0.77467   0.00000  Uiso   1.00
H166   H     0.78346   0.98406   0.68919   0.00000  Uiso   1.00
H167   H     0.52813   0.03116   0.95271   0.00000  Uiso   1.00
H168   H     0.67982   0.38426   0.80006   0.00000  Uiso   1.00
H169   H     0.67387   0.13182   0.11944   0.00000  Uiso   1.00
H170   H     0.73092   0.06108   0.06930   0.00000  Uiso   1.00
H171   H     0.60982   0.08340   0.19427   0.00000  Uiso   1.00
H172   H     0.68176   0.25085   0.12187   0.00000  Uiso   1.00
H173   H     0.79274   0.98281   0.97100   0.00000  Uiso   1.00
H174   H     0.53740   0.02991   0.23452   0.00000  Uiso   1.00
H175   H     0.68909   0.38302   0.08186   0.00000  Uiso   1.00
O176   O     0.82542   0.93691   0.79118   0.00000  Uiso   1.00
O177   O     0.49043   0.99871   0.13690   0.00000  Uiso   1.00
O178   O     0.68944   0.46197   0.93662   0.00000  Uiso   1.00
N179   N     0.77782   0.99349   0.76239   0.00000  Uiso   1.00
N180   N     0.53910   0.03751   0.00877   0.00000  Uiso   1.00
N181   N     0.68091   0.36763   0.86605   0.00000  Uiso   1.00
N182   N     0.78282   0.99281   0.91403   0.00000  Uiso   1.00
N183   N     0.54409   0.03684   0.16040   0.00000  Uiso   1.00
N184   N     0.68590   0.36696   0.01769   0.00000  Uiso   1.00
C185   C     0.16553   0.36706   0.36570   0.00000  Uiso   1.00
C186   C     0.19770   0.40565   0.37429   0.00000  Uiso   1.00
C187   C     0.22196   0.43773   0.29704   0.00000  Uiso   1.00
C188   C     0.24957   0.47029   0.32010   0.00000  Uiso   1.00
C189   C     0.29903   0.53017   0.31870   0.00000  Uiso   1.00
C190   C     0.13190   0.39353   0.44219   0.00000  Uiso   1.00
C191   C     0.10085   0.41540   0.42203   0.00000  Uiso   1.00
C192   C     0.07307   0.43776   0.50226   0.00000  Uiso   1.00
C193   C     0.02037   0.47878   0.60629   0.00000  Uiso   1.00
C194   C     0.17099   0.30255   0.40285   0.00000  Uiso   1.00
C195   C     0.17280   0.24792   0.34962   0.00000  Uiso   1.00
C196   C     0.17792   0.19368   0.39674   0.00000  Uiso   1.00
C197   C     0.18591   0.09344   0.43969   0.00000  Uiso   1.00
C198   C     0.17139   0.36785   0.54403   0.00000  Uiso   1.00
C199   C     0.20088   0.40608   0.47115   0.00000  Uiso   1.00
C200   C     0.22846   0.43860   0.49433   0.00000  Uiso   1.00
C201   C     0.25276   0.47072   0.41713   0.00000  Uiso   1.00
C202   C     0.13509   0.39396   0.53904   0.00000  Uiso   1.00
C203   C     0.10735   0.41628   0.61932   0.00000  Uiso   1.00
C204   C     0.07626   0.43819   0.59929   0.00000  Uiso   1.00
C205   C     0.17418   0.30297   0.49971   0.00000  Uiso   1.00
C206   C     0.17929   0.24880   0.54692   0.00000  Uiso   1.00
C207   C     0.18111   0.19411   0.49378   0.00000  Uiso   1.00
H208   H     0.16304   0.36673   0.29030   0.00000  Uiso   1.00
H209   H     0.21949   0.43739   0.22209   0.00000  Uiso   1.00
H210   H     0.09839   0.41506   0.34707   0.00000  Uiso   1.00
H211   H     0.17033   0.24761   0.27467   0.00000  Uiso   1.00
H212   H     0.28346   0.51594   0.18919   0.00000  Uiso   1.00
H213   H     0.02813   0.46884   0.45271   0.00000  Uiso   1.00
H214   H     0.17982   0.11574   0.30006   0.00000  Uiso   1.00
H215   H     0.17387   0.36818   0.61944   0.00000  Uiso   1.00
H216   H     0.23092   0.43892   0.56930   0.00000  Uiso   1.00
H217   H     0.10982   0.41660   0.69427   0.00000  Uiso   1.00
H218   H     0.18176   0.24915   0.62187   0.00000  Uiso   1.00
H219   H     0.29274   0.51719   0.47100   0.00000  Uiso   1.00
H220   H     0.03740   0.47009   0.73452   0.00000  Uiso   1.00
H221   H     0.18909   0.11698   0.58186   0.00000  Uiso   1.00
O222   O     0.32542   0.56309   0.29118   0.00000  Uiso   1.00
O223   O     0.99043   0.50129   0.63690   0.00000  Uiso   1.00
O224   O     0.18944   0.03803   0.43662   0.00000  Uiso   1.00
N225   N     0.27782   0.50651   0.26239   0.00000  Uiso   1.00
N226   N     0.03910   0.46249   0.50877   0.00000  Uiso   1.00
N227   N     0.18091   0.13237   0.36605   0.00000  Uiso   1.00
N228   N     0.28282   0.50719   0.41403   0.00000  Uiso   1.00
N229   N     0.04409   0.46316   0.66040   0.00000  Uiso   1.00
N230   N     0.18590   0.13304   0.51769   0.00000  Uiso   1.00
C231   C     0.66553   0.86706   0.36570   0.00000  Uiso   1.00
C232   C     0.69770   0.90565   0.37429   0.00000  Uiso   1.00
C233   C     0.72196   0.93773   0.29704   0.00000  Uiso   1.00
C234   C     0.74957   0.97029   0.32010   0.00000  Uiso   1.00
C235   C     0.79903   0.03017   0.31870   0.00000  Uiso   1.00
C236   C     0.63190   0.89353   0.44219   0.00000  Uiso   1.00
C237   C     0.60085   0.91540   0.42203   0.00000  Uiso   1.00
C238   C     0.57307   0.93776   0.50226   0.00000  Uiso   1.00
C239   C     0.52037   0.97878   0.60629   0.00000  Uiso   1.00
C240   C     0.67099   0.80255   0.40285   0.00000  Uiso   1.00
C241   C     0.67280   0.74792   0.34962   0.00000  Uiso   1.00
C242   C     0.67792   0.69368   0.39674   0.00000  Uiso   1.00
C243   C     0.68591   0.59344   0.43969   0.00000  Uiso   1.00
C244   C     0.67139   0.86785   0.54403   0.00000  Uiso   1.00
C245   C     0.70088   0.90608   0.47115   0.00000  Uiso   1.00
C246   C     0.72846   0.93860   0.49433   0.00000  Uiso   1.00
C247   C     0.75276   0.97072   0.41713   0.00000  Uiso   1.00
C248   C     0.63509   0.89396   0.53904   0.00000  Uiso   1.00
C249   C     0.60735   0.91628   0.61932   0.00000  Uiso   1.00
C250   C     0.57626   0.93819   0.59929   0.00000  Uiso   1.00
C251   C     0.67418   0.80297   0.49971   0.00000  Uiso   1.00
C252   C     0.67929   0.74880   0.54692   0.00000  Uiso   1.00
C253   C     0.68111   0.69411   0.49378   0.00000  Uiso   1.00
H254   H     0.66304   0.86673   0.29030   0.00000  Uiso   1.00
H255   H     0.71949   0.93739   0.22209   0.00000  Uiso   1.00
H256   H     0.59839   0.91506   0.34707   0.00000  Uiso   1.00
H257   H     0.67033   0.74761   0.27467   0.00000  Uiso   1.00
H258   H     0.78346   0.01594   0.18919   0.00000  Uiso   1.00
H259   H     0.52813   0.96884   0.45271   0.00000  Uiso   1.00
H260   H     0.67982   0.61574   0.30006   0.00000  Uiso   1.00
H261   H     0.67387   0.86818   0.61944   0.00000  Uiso   1.00
H262   H     0.73092   0.93892   0.56930   0.00000  Uiso   1.00
H263   H     0.60982   0.91660   0.69427   0.00000  Uiso   1.00
H264   H     0.68176   0.74915   0.62187   0.00000  Uiso   1.00
H265   H     0.79274   0.01719   0.47100   0.00000  Uiso   1.00
H266   H     0.53740   0.97009   0.73452   0.00000  Uiso   1.00
H267   H     0.68909   0.61698   0.58186   0.00000  Uiso   1.00
O268   O     0.82542   0.06309   0.29118   0.00000  Uiso   1.00
O269   O     0.49043   0.00129   0.63690   0.00000  Uiso   1.00
O270   O     0.68944   0.53803   0.43662   0.00000  Uiso   1.00
N271   N     0.77782   0.00651   0.26239   0.00000  Uiso   1.00
N272   N     0.53910   0.96249   0.50877   0.00000  Uiso   1.00
N273   N     0.68091   0.63237   0.36605   0.00000  Uiso   1.00
N274   N     0.78282   0.00719   0.41403   0.00000  Uiso   1.00
N275   N     0.54409   0.96316   0.66040   0.00000  Uiso   1.00
N276   N     0.68590   0.63304   0.51769   0.00000  Uiso   1.00
C277   C     0.83447   0.36706   0.13430   0.00000  Uiso   1.00
C278   C     0.80230   0.40565   0.12571   0.00000  Uiso   1.00
C279   C     0.77804   0.43773   0.20296   0.00000  Uiso   1.00
C280   C     0.75043   0.47029   0.17990   0.00000  Uiso   1.00
C281   C     0.70097   0.53017   0.18130   0.00000  Uiso   1.00
C282   C     0.86810   0.39353   0.05781   0.00000  Uiso   1.00
C283   C     0.89915   0.41540   0.07797   0.00000  Uiso   1.00
C284   C     0.92693   0.43776   0.99774   0.00000  Uiso   1.00
C285   C     0.97963   0.47878   0.89371   0.00000  Uiso   1.00
C286   C     0.82901   0.30255   0.09715   0.00000  Uiso   1.00
C287   C     0.82720   0.24792   0.15038   0.00000  Uiso   1.00
C288   C     0.82208   0.19368   0.10326   0.00000  Uiso   1.00
C289   C     0.81409   0.09344   0.06031   0.00000  Uiso   1.00
C290   C     0.82861   0.36785   0.95597   0.00000  Uiso   1.00
C291   C     0.79912   0.40608   0.02885   0.00000  Uiso   1.00
C292   C     0.77154   0.43860   0.00567   0.00000  Uiso   1.00
C293   C     0.74724   0.47072   0.08287   0.00000  Uiso   1.00
C294   C     0.86491   0.39396   0.96096   0.00000  Uiso   1.00
C295   C     0.89265   0.41628   0.88068   0.00000  Uiso   1.00
C296   C     0.92374   0.43819   0.90071   0.00000  Uiso   1.00
C297   C     0.82582   0.30297   0.00029   0.00000  Uiso   1.00
C298   C     0.82071   0.24880   0.95308   0.00000  Uiso   1.00
C299   C     0.81889   0.19411   0.00622   0.00000  Uiso   1.00
H300   H     0.83696   0.36673   0.20970   0.00000  Uiso   1.00
H301   H     0.78051   0.43739   0.27791   0.00000  Uiso   1.00
H302   H     0.90161   0.41506   0.15293   0.00000  Uiso   1.00
H303   H     0.82967   0.24761   0.22533   0.00000  Uiso   1.00
H304   H     0.71654   0.51594   0.31081   0.00000  Uiso   1.00
H305   H     0.97187   0.46884   0.04729   0.00000  Uiso   1.00
H306   H     0.82018   0.11574   0.19994   0.00000  Uiso   1.00
H307   H     0.82613   0.36818   0.88056   0.00000  Uiso   1.00
H308   H     0.76908   0.43892   0.93070   0.00000  Uiso   1.00
H309   H     0.89018   0.41660   0.80573   0.00000  Uiso   1.00
H310   H     0.81824   0.24915   0.87813   0.00000  Uiso   1.00
H311   H     0.70726   0.51719   0.02900   0.00000  Uiso   1.00
H312   H     0.96260   0.47009   0.76548   0.00000  Uiso   1.00
H313   H     0.81091   0.11698   0.91814   0.00000  Uiso   1.00
O314   O     0.67458   0.56309   0.20882   0.00000  Uiso   1.00
O315   O     0.00957   0.50129   0.86310   0.00000  Uiso   1.00
O316   O     0.81056   0.03803   0.06338   0.00000  Uiso   1.00
N317   N     0.72218   0.50651   0.23761   0.00000  Uiso   1.00
N318   N     0.96090   0.46249   0.99123   0.00000  Uiso   1.00
N319   N     0.81909   0.13237   0.13395   0.00000  Uiso   1.00
N320   N     0.71718   0.50719   0.08597   0.00000  Uiso   1.00
N321   N     0.95591   0.46316   0.83960   0.00000  Uiso   1.00
N322   N     0.81410   0.13304   0.98231   0.00000  Uiso   1.00
C323   C     0.33447   0.86706   0.13430   0.00000  Uiso   1.00
C324   C     0.30230   0.90565   0.12571   0.00000  Uiso   1.00
C325   C     0.27804   0.93773   0.20296   0.00000  Uiso   1.00
C326   C     0.25043   0.97029   0.17990   0.00000  Uiso   1.00
C327   C     0.20097   0.03017   0.18130   0.00000  Uiso   1.00
C328   C     0.36810   0.89353   0.05781   0.00000  Uiso   1.00
C329   C     0.39915   0.91540   0.07797   0.00000  Uiso   1.00
C330   C     0.42693   0.93776   0.99774   0.00000  Uiso   1.00
C331   C     0.47963   0.97878   0.89371   0.00000  Uiso   1.00
C332   C     0.32901   0.80255   0.09715   0.00000  Uiso   1.00
C333   C     0.32720   0.74792   0.15038   0.00000  Uiso   1.00
C334   C     0.32208   0.69368   0.10326   0.00000  Uiso   1.00
C335   C     0.31409   0.59344   0.06031   0.00000  Uiso   1.00
C336   C     0.32861   0.86785   0.95597   0.00000  Uiso   1.00
C337   C     0.29912   0.90608   0.02885   0.00000  Uiso   1.00
C338   C     0.27154   0.93860   0.00567   0.00000  Uiso   1.00
C339   C     0.24724   0.97072   0.08287   0.00000  Uiso   1.00
C340   C     0.36491   0.89396   0.96096   0.00000  Uiso   1.00
C341   C     0.39265   0.91628   0.88068   0.00000  Uiso   1.00
C342   C     0.42374   0.93819   0.90071   0.00000  Uiso   1.00
C343   C     0.32582   0.80297   0.00029   0.00000  Uiso   1.00
C344   C     0.32071   0.74880   0.95308   0.00000  Uiso   1.00
C345   C     0.31889   0.69411   0.00622   0.00000  Uiso   1.00
H346   H     0.33696   0.86673   0.20970   0.00000  Uiso   1.00
H347   H     0.28051   0.93739   0.27791   0.00000  Uiso   1.00
H348   H     0.40161   0.91506   0.15293   0.00000  Uiso   1.00
H349   H     0.32967   0.74761   0.22533   0.00000  Uiso   1.00
H350   H     0.21654   0.01594   0.31081   0.00000  Uiso   1.00
H351   H     0.47187   0.96884   0.04729   0.00000  Uiso   1.00
H352   H     0.32018   0.61574   0.19994   0.00000  Uiso   1.00
H353   H     0.32613   0.86818   0.88056   0.00000  Uiso   1.00
H354   H     0.26908   0.93892   0.93070   0.00000  Uiso   1.00
H355   H     0.39018   0.91660   0.80573   0.00000  Uiso   1.00
H356   H     0.31824   0.74915   0.87813   0.00000  Uiso   1.00
H357   H     0.20726   0.01719   0.02900   0.00000  Uiso   1.00
H358   H     0.46260   0.97009   0.76548   0.00000  Uiso   1.00
H359   H     0.31091   0.61698   0.91814   0.00000  Uiso   1.00
O360   O     0.17458   0.06309   0.20882   0.00000  Uiso   1.00
O361   O     0.50957   0.00129   0.86310   0.00000  Uiso   1.00
O362   O     0.31056   0.53803   0.06338   0.00000  Uiso   1.00
N363   N     0.22218   0.00651   0.23761   0.00000  Uiso   1.00
N364   N     0.46090   0.96249   0.99123   0.00000  Uiso   1.00
N365   N     0.31909   0.63237   0.13395   0.00000  Uiso   1.00
N366   N     0.21718   0.00719   0.08597   0.00000  Uiso   1.00
N367   N     0.45591   0.96316   0.83960   0.00000  Uiso   1.00
N368   N     0.31410   0.63304   0.98231   0.00000  Uiso   1.00
