data_job_05580
_audit_creation_date              2018-12-19
_audit_creation_method            'Materials Studio'
_symmetry_space_group_name_H-M    'P1'
_symmetry_Int_Tables_number       1
_symmetry_cell_setting            triclinic
loop_
_symmetry_equiv_pos_as_xyz
  x,y,z
_cell_length_a                    22.9690
_cell_length_b                    12.2104
_cell_length_c                    26.6269
_cell_angle_alpha                 90.0000
_cell_angle_beta                  90.0000
_cell_angle_gamma                 90.0000
loop_
_atom_site_label
_atom_site_type_symbol
_atom_site_fract_x
_atom_site_fract_y
_atom_site_fract_z
_atom_site_U_iso_or_equiv
_atom_site_adp_type
_atom_site_occupancy
C1     C     0.33880   0.42834   0.45210   0.00000  Uiso   1.00
C2     C     0.27443   0.45667   0.45732   0.00000  Uiso   1.00
C3     C     0.24215   0.45126   0.50130   0.00000  Uiso   1.00
C4     C     0.18385   0.48057   0.49827   0.00000  Uiso   1.00
C5     C     0.08770   0.51942   0.51327   0.00000  Uiso   1.00
C6     C     0.34238   0.34070   0.41142   0.00000  Uiso   1.00
C7     C     0.36726   0.23778   0.41682   0.00000  Uiso   1.00
C8     C     0.36617   0.16948   0.37514   0.00000  Uiso   1.00
C9     C     0.37556   0.02830   0.31887   0.00000  Uiso   1.00
C10    C     0.36798   0.52991   0.43027   0.00000  Uiso   1.00
C11    C     0.41438   0.58607   0.45150   0.00000  Uiso   1.00
C12    C     0.43486   0.67705   0.42569   0.00000  Uiso   1.00
C13    C     0.48398   0.82965   0.39869   0.00000  Uiso   1.00
C14    C     0.29267   0.49003   0.36848   0.00000  Uiso   1.00
C15    C     0.24937   0.49017   0.41190   0.00000  Uiso   1.00
C16    C     0.19110   0.51951   0.40879   0.00000  Uiso   1.00
C17    C     0.15875   0.51414   0.45277   0.00000  Uiso   1.00
C18    C     0.31733   0.37420   0.36600   0.00000  Uiso   1.00
C19    C     0.31621   0.30603   0.32430   0.00000  Uiso   1.00
C20    C     0.34107   0.20304   0.32964   0.00000  Uiso   1.00
C21    C     0.34292   0.56342   0.38485   0.00000  Uiso   1.00
C22    C     0.36333   0.65432   0.35899   0.00000  Uiso   1.00
C23    C     0.40975   0.71062   0.38019   0.00000  Uiso   1.00
H24    H     0.35831   0.40224   0.48746   0.00000  Uiso   1.00
H25    H     0.26156   0.42531   0.53644   0.00000  Uiso   1.00
H26    H     0.38665   0.21188   0.45197   0.00000  Uiso   1.00
H27    H     0.43376   0.56011   0.48665   0.00000  Uiso   1.00
H28    H     0.14323   0.46563   0.57072   0.00000  Uiso   1.00
H29    H     0.40701   0.01560   0.39259   0.00000  Uiso   1.00
H30    H     0.50636   0.74992   0.46573   0.00000  Uiso   1.00
H31    H     0.27316   0.51611   0.33312   0.00000  Uiso   1.00
H32    H     0.17172   0.54544   0.37364   0.00000  Uiso   1.00
H33    H     0.29682   0.33200   0.28916   0.00000  Uiso   1.00
H34    H     0.34393   0.68023   0.32385   0.00000  Uiso   1.00
H35    H     0.07032   0.56312   0.43858   0.00000  Uiso   1.00
H36    H     0.33410   0.11309   0.26045   0.00000  Uiso   1.00
H37    H     0.43344   0.84742   0.33359   0.00000  Uiso   1.00
O38    O     0.04158   0.53157   0.53409   0.00000  Uiso   1.00
O39    O     0.38766   0.94116   0.30039   0.00000  Uiso   1.00
O40    O     0.51800   0.90458   0.39634   0.00000  Uiso   1.00
N41    N     0.13999   0.48457   0.53406   0.00000  Uiso   1.00
N42    N     0.38660   0.06381   0.36752   0.00000  Uiso   1.00
N43    N     0.47950   0.75033   0.43590   0.00000  Uiso   1.00
N44    N     0.10076   0.53703   0.46296   0.00000  Uiso   1.00
N45    N     0.34737   0.11627   0.29642   0.00000  Uiso   1.00
N46    N     0.44026   0.80279   0.36479   0.00000  Uiso   1.00
C47    C     0.39479   0.57078   0.04878   0.00000  Uiso   1.00
C48    C     0.33038   0.54270   0.04357   0.00000  Uiso   1.00
C49    C     0.29815   0.54798   0.99955   0.00000  Uiso   1.00
C50    C     0.23981   0.51895   0.00260   0.00000  Uiso   1.00
C51    C     0.14362   0.48045   0.98760   0.00000  Uiso   1.00
C52    C     0.39846   0.65867   0.08934   0.00000  Uiso   1.00
C53    C     0.42347   0.76143   0.08382   0.00000  Uiso   1.00
C54    C     0.42244   0.83001   0.12540   0.00000  Uiso   1.00
C55    C     0.43197   0.97151   0.18148   0.00000  Uiso   1.00
C56    C     0.42382   0.46922   0.07077   0.00000  Uiso   1.00
C57    C     0.47016   0.41270   0.04963   0.00000  Uiso   1.00
C58    C     0.49050   0.32179   0.07559   0.00000  Uiso   1.00
C59    C     0.53941   0.16914   0.10283   0.00000  Uiso   1.00
C60    C     0.34851   0.50985   0.13246   0.00000  Uiso   1.00
C61    C     0.30525   0.50961   0.08902   0.00000  Uiso   1.00
C62    C     0.24694   0.48056   0.09213   0.00000  Uiso   1.00
C63    C     0.21463   0.48579   0.04813   0.00000  Uiso   1.00
C64    C     0.37332   0.62558   0.13479   0.00000  Uiso   1.00
C65    C     0.37226   0.69402   0.17639   0.00000  Uiso   1.00
C66    C     0.39726   0.79686   0.17093   0.00000  Uiso   1.00
C67    C     0.39868   0.43612   0.11622   0.00000  Uiso   1.00
C68    C     0.41896   0.34529   0.14221   0.00000  Uiso   1.00
C69    C     0.46532   0.28864   0.12112   0.00000  Uiso   1.00
H70    H     0.41436   0.59655   0.01340   0.00000  Uiso   1.00
H71    H     0.31762   0.57360   0.96439   0.00000  Uiso   1.00
H72    H     0.44292   0.78701   0.04864   0.00000  Uiso   1.00
H73    H     0.48961   0.43834   0.01446   0.00000  Uiso   1.00
H74    H     0.19926   0.53361   0.93010   0.00000  Uiso   1.00
H75    H     0.46349   0.98358   0.10776   0.00000  Uiso   1.00
H76    H     0.56194   0.24833   0.03569   0.00000  Uiso   1.00
H77    H     0.32894   0.48408   0.16784   0.00000  Uiso   1.00
H78    H     0.22750   0.45496   0.12731   0.00000  Uiso   1.00
H79    H     0.35281   0.66838   0.21156   0.00000  Uiso   1.00
H80    H     0.39949   0.31970   0.17738   0.00000  Uiso   1.00
H81    H     0.12612   0.43732   0.06233   0.00000  Uiso   1.00
H82    H     0.39036   0.88730   0.23999   0.00000  Uiso   1.00
H83    H     0.48880   0.15204   0.16792   0.00000  Uiso   1.00
O84    O     0.09750   0.46837   0.96677   0.00000  Uiso   1.00
O85    O     0.44417   0.05871   0.19985   0.00000  Uiso   1.00
O86    O     0.57333   0.09408   0.10529   0.00000  Uiso   1.00
N87    N     0.19597   0.51492   0.96678   0.00000  Uiso   1.00
N88    N     0.44300   0.93563   0.13288   0.00000  Uiso   1.00
N89    N     0.53505   0.24825   0.06550   0.00000  Uiso   1.00
N90    N     0.15662   0.46311   0.03793   0.00000  Uiso   1.00
N91    N     0.40365   0.88382   0.20403   0.00000  Uiso   1.00
N92    N     0.49570   0.19643   0.13666   0.00000  Uiso   1.00
C93    C     0.66120   0.57166   0.95210   0.00000  Uiso   1.00
C94    C     0.72557   0.54333   0.95732   0.00000  Uiso   1.00
C95    C     0.75785   0.54874   0.00130   0.00000  Uiso   1.00
C96    C     0.81615   0.51943   0.99827   0.00000  Uiso   1.00
C97    C     0.91230   0.48058   0.01327   0.00000  Uiso   1.00
C98    C     0.65762   0.65930   0.91142   0.00000  Uiso   1.00
C99    C     0.63274   0.76222   0.91682   0.00000  Uiso   1.00
C100   C     0.63383   0.83052   0.87514   0.00000  Uiso   1.00
C101   C     0.62444   0.97170   0.81887   0.00000  Uiso   1.00
C102   C     0.63202   0.47009   0.93027   0.00000  Uiso   1.00
C103   C     0.58562   0.41393   0.95150   0.00000  Uiso   1.00
C104   C     0.56514   0.32295   0.92569   0.00000  Uiso   1.00
C105   C     0.51602   0.17035   0.89869   0.00000  Uiso   1.00
C106   C     0.70733   0.50997   0.86848   0.00000  Uiso   1.00
C107   C     0.75063   0.50983   0.91190   0.00000  Uiso   1.00
C108   C     0.80890   0.48049   0.90879   0.00000  Uiso   1.00
C109   C     0.84125   0.48586   0.95277   0.00000  Uiso   1.00
C110   C     0.68267   0.62580   0.86600   0.00000  Uiso   1.00
C111   C     0.68379   0.69397   0.82430   0.00000  Uiso   1.00
C112   C     0.65893   0.79696   0.82964   0.00000  Uiso   1.00
C113   C     0.65708   0.43658   0.88485   0.00000  Uiso   1.00
C114   C     0.63667   0.34568   0.85899   0.00000  Uiso   1.00
C115   C     0.59025   0.28938   0.88019   0.00000  Uiso   1.00
H116   H     0.64169   0.59776   0.98746   0.00000  Uiso   1.00
H117   H     0.73844   0.57469   0.03644   0.00000  Uiso   1.00
H118   H     0.61335   0.78812   0.95197   0.00000  Uiso   1.00
H119   H     0.56624   0.43989   0.98665   0.00000  Uiso   1.00
H120   H     0.85677   0.53437   0.07072   0.00000  Uiso   1.00
H121   H     0.59299   0.98440   0.89259   0.00000  Uiso   1.00
H122   H     0.49364   0.25008   0.96573   0.00000  Uiso   1.00
H123   H     0.72684   0.48389   0.83312   0.00000  Uiso   1.00
H124   H     0.82828   0.45456   0.87364   0.00000  Uiso   1.00
H125   H     0.70318   0.66800   0.78916   0.00000  Uiso   1.00
H126   H     0.65607   0.31977   0.82385   0.00000  Uiso   1.00
H127   H     0.92968   0.43688   0.93858   0.00000  Uiso   1.00
H128   H     0.66590   0.88691   0.76045   0.00000  Uiso   1.00
H129   H     0.56656   0.15258   0.83359   0.00000  Uiso   1.00
O130   O     0.95842   0.46843   0.03409   0.00000  Uiso   1.00
O131   O     0.61234   0.05884   0.80039   0.00000  Uiso   1.00
O132   O     0.48200   0.09542   0.89634   0.00000  Uiso   1.00
N133   N     0.86001   0.51543   0.03406   0.00000  Uiso   1.00
N134   N     0.61340   0.93619   0.86752   0.00000  Uiso   1.00
N135   N     0.52050   0.24967   0.93590   0.00000  Uiso   1.00
N136   N     0.89924   0.46297   0.96296   0.00000  Uiso   1.00
N137   N     0.65263   0.88373   0.79642   0.00000  Uiso   1.00
N138   N     0.55974   0.19721   0.86479   0.00000  Uiso   1.00
C139   C     0.60521   0.42922   0.54878   0.00000  Uiso   1.00
C140   C     0.66962   0.45730   0.54357   0.00000  Uiso   1.00
C141   C     0.70185   0.45202   0.49955   0.00000  Uiso   1.00
C142   C     0.76019   0.48105   0.50260   0.00000  Uiso   1.00
C143   C     0.85638   0.51955   0.48760   0.00000  Uiso   1.00
C144   C     0.60154   0.34133   0.58934   0.00000  Uiso   1.00
C145   C     0.57653   0.23857   0.58382   0.00000  Uiso   1.00
C146   C     0.57756   0.16999   0.62540   0.00000  Uiso   1.00
C147   C     0.56803   0.02849   0.68148   0.00000  Uiso   1.00
C148   C     0.57618   0.53078   0.57077   0.00000  Uiso   1.00
C149   C     0.52984   0.58730   0.54963   0.00000  Uiso   1.00
C150   C     0.50950   0.67821   0.57559   0.00000  Uiso   1.00
C151   C     0.46059   0.83086   0.60283   0.00000  Uiso   1.00
C152   C     0.65149   0.49015   0.63246   0.00000  Uiso   1.00
C153   C     0.69475   0.49039   0.58902   0.00000  Uiso   1.00
C154   C     0.75306   0.51944   0.59213   0.00000  Uiso   1.00
C155   C     0.78537   0.51421   0.54813   0.00000  Uiso   1.00
C156   C     0.62668   0.37442   0.63479   0.00000  Uiso   1.00
C157   C     0.62774   0.30598   0.67639   0.00000  Uiso   1.00
C158   C     0.60274   0.20314   0.67093   0.00000  Uiso   1.00
C159   C     0.60132   0.56388   0.61622   0.00000  Uiso   1.00
C160   C     0.58104   0.65471   0.64221   0.00000  Uiso   1.00
C161   C     0.53468   0.71136   0.62112   0.00000  Uiso   1.00
H162   H     0.58564   0.40345   0.51340   0.00000  Uiso   1.00
H163   H     0.68238   0.42640   0.46439   0.00000  Uiso   1.00
H164   H     0.55708   0.21299   0.54864   0.00000  Uiso   1.00
H165   H     0.51039   0.56166   0.51446   0.00000  Uiso   1.00
H166   H     0.80074   0.46639   0.43010   0.00000  Uiso   1.00
H167   H     0.53651   0.01642   0.60776   0.00000  Uiso   1.00
H168   H     0.43806   0.75167   0.53569   0.00000  Uiso   1.00
H169   H     0.67106   0.51592   0.66784   0.00000  Uiso   1.00
H170   H     0.77250   0.54504   0.62731   0.00000  Uiso   1.00
H171   H     0.64719   0.33162   0.71156   0.00000  Uiso   1.00
H172   H     0.60051   0.68030   0.67738   0.00000  Uiso   1.00
H173   H     0.87388   0.56268   0.56233   0.00000  Uiso   1.00
H174   H     0.60964   0.11270   0.73999   0.00000  Uiso   1.00
H175   H     0.51120   0.84796   0.66792   0.00000  Uiso   1.00
O176   O     0.90250   0.53163   0.46677   0.00000  Uiso   1.00
O177   O     0.55583   0.94129   0.69985   0.00000  Uiso   1.00
O178   O     0.42667   0.90592   0.60529   0.00000  Uiso   1.00
N179   N     0.80403   0.48508   0.46678   0.00000  Uiso   1.00
N180   N     0.55700   0.06437   0.63288   0.00000  Uiso   1.00
N181   N     0.46495   0.75175   0.56550   0.00000  Uiso   1.00
N182   N     0.84338   0.53689   0.53793   0.00000  Uiso   1.00
N183   N     0.59635   0.11618   0.70403   0.00000  Uiso   1.00
N184   N     0.50430   0.80357   0.63666   0.00000  Uiso   1.00
C185   C     0.83880   0.07166   0.45210   0.00000  Uiso   1.00
C186   C     0.77443   0.04333   0.45732   0.00000  Uiso   1.00
C187   C     0.74215   0.04874   0.50130   0.00000  Uiso   1.00
C188   C     0.68385   0.01943   0.49827   0.00000  Uiso   1.00
C189   C     0.58770   0.98058   0.51327   0.00000  Uiso   1.00
C190   C     0.84238   0.15930   0.41142   0.00000  Uiso   1.00
C191   C     0.86726   0.26222   0.41682   0.00000  Uiso   1.00
C192   C     0.86617   0.33052   0.37514   0.00000  Uiso   1.00
C193   C     0.87556   0.47170   0.31887   0.00000  Uiso   1.00
C194   C     0.86798   0.97009   0.43027   0.00000  Uiso   1.00
C195   C     0.91438   0.91393   0.45150   0.00000  Uiso   1.00
C196   C     0.93486   0.82295   0.42569   0.00000  Uiso   1.00
C197   C     0.98398   0.67035   0.39869   0.00000  Uiso   1.00
C198   C     0.79267   0.00997   0.36848   0.00000  Uiso   1.00
C199   C     0.74937   0.00983   0.41190   0.00000  Uiso   1.00
C200   C     0.69110   0.98049   0.40879   0.00000  Uiso   1.00
C201   C     0.65875   0.98586   0.45277   0.00000  Uiso   1.00
C202   C     0.81733   0.12580   0.36600   0.00000  Uiso   1.00
C203   C     0.81621   0.19397   0.32430   0.00000  Uiso   1.00
C204   C     0.84107   0.29696   0.32964   0.00000  Uiso   1.00
C205   C     0.84292   0.93658   0.38485   0.00000  Uiso   1.00
C206   C     0.86333   0.84568   0.35899   0.00000  Uiso   1.00
C207   C     0.90975   0.78938   0.38019   0.00000  Uiso   1.00
H208   H     0.85831   0.09776   0.48746   0.00000  Uiso   1.00
H209   H     0.76156   0.07469   0.53644   0.00000  Uiso   1.00
H210   H     0.88665   0.28812   0.45197   0.00000  Uiso   1.00
H211   H     0.93376   0.93989   0.48665   0.00000  Uiso   1.00
H212   H     0.64323   0.03437   0.57072   0.00000  Uiso   1.00
H213   H     0.90701   0.48440   0.39259   0.00000  Uiso   1.00
H214   H     0.00636   0.75008   0.46573   0.00000  Uiso   1.00
H215   H     0.77316   0.98389   0.33312   0.00000  Uiso   1.00
H216   H     0.67172   0.95456   0.37364   0.00000  Uiso   1.00
H217   H     0.79682   0.16800   0.28916   0.00000  Uiso   1.00
H218   H     0.84393   0.81977   0.32385   0.00000  Uiso   1.00
H219   H     0.57032   0.93688   0.43858   0.00000  Uiso   1.00
H220   H     0.83410   0.38691   0.26045   0.00000  Uiso   1.00
H221   H     0.93344   0.65258   0.33359   0.00000  Uiso   1.00
O222   O     0.54158   0.96843   0.53409   0.00000  Uiso   1.00
O223   O     0.88766   0.55884   0.30039   0.00000  Uiso   1.00
O224   O     0.01800   0.59542   0.39634   0.00000  Uiso   1.00
N225   N     0.63999   0.01543   0.53406   0.00000  Uiso   1.00
N226   N     0.88660   0.43619   0.36752   0.00000  Uiso   1.00
N227   N     0.97950   0.74967   0.43590   0.00000  Uiso   1.00
N228   N     0.60076   0.96297   0.46296   0.00000  Uiso   1.00
N229   N     0.84737   0.38373   0.29642   0.00000  Uiso   1.00
N230   N     0.94026   0.69721   0.36479   0.00000  Uiso   1.00
C231   C     0.89479   0.92922   0.04878   0.00000  Uiso   1.00
C232   C     0.83038   0.95730   0.04357   0.00000  Uiso   1.00
C233   C     0.79815   0.95202   0.99955   0.00000  Uiso   1.00
C234   C     0.73981   0.98105   0.00260   0.00000  Uiso   1.00
C235   C     0.64362   0.01955   0.98760   0.00000  Uiso   1.00
C236   C     0.89846   0.84133   0.08934   0.00000  Uiso   1.00
C237   C     0.92347   0.73857   0.08382   0.00000  Uiso   1.00
C238   C     0.92244   0.66999   0.12540   0.00000  Uiso   1.00
C239   C     0.93197   0.52849   0.18148   0.00000  Uiso   1.00
C240   C     0.92382   0.03078   0.07077   0.00000  Uiso   1.00
C241   C     0.97016   0.08730   0.04963   0.00000  Uiso   1.00
C242   C     0.99050   0.17821   0.07559   0.00000  Uiso   1.00
C243   C     0.03941   0.33086   0.10283   0.00000  Uiso   1.00
C244   C     0.84851   0.99015   0.13246   0.00000  Uiso   1.00
C245   C     0.80525   0.99039   0.08902   0.00000  Uiso   1.00
C246   C     0.74694   0.01944   0.09213   0.00000  Uiso   1.00
C247   C     0.71463   0.01421   0.04813   0.00000  Uiso   1.00
C248   C     0.87332   0.87442   0.13479   0.00000  Uiso   1.00
C249   C     0.87226   0.80598   0.17639   0.00000  Uiso   1.00
C250   C     0.89726   0.70314   0.17093   0.00000  Uiso   1.00
C251   C     0.89868   0.06388   0.11622   0.00000  Uiso   1.00
C252   C     0.91896   0.15471   0.14221   0.00000  Uiso   1.00
C253   C     0.96532   0.21136   0.12112   0.00000  Uiso   1.00
H254   H     0.91436   0.90345   0.01340   0.00000  Uiso   1.00
H255   H     0.81762   0.92640   0.96439   0.00000  Uiso   1.00
H256   H     0.94292   0.71299   0.04864   0.00000  Uiso   1.00
H257   H     0.98961   0.06166   0.01446   0.00000  Uiso   1.00
H258   H     0.69926   0.96639   0.93010   0.00000  Uiso   1.00
H259   H     0.96349   0.51642   0.10776   0.00000  Uiso   1.00
H260   H     0.06194   0.25167   0.03569   0.00000  Uiso   1.00
H261   H     0.82894   0.01592   0.16784   0.00000  Uiso   1.00
H262   H     0.72750   0.04504   0.12731   0.00000  Uiso   1.00
H263   H     0.85281   0.83162   0.21156   0.00000  Uiso   1.00
H264   H     0.89949   0.18030   0.17738   0.00000  Uiso   1.00
H265   H     0.62612   0.06268   0.06233   0.00000  Uiso   1.00
H266   H     0.89036   0.61270   0.23999   0.00000  Uiso   1.00
H267   H     0.98880   0.34796   0.16792   0.00000  Uiso   1.00
O268   O     0.59750   0.03163   0.96677   0.00000  Uiso   1.00
O269   O     0.94417   0.44129   0.19985   0.00000  Uiso   1.00
O270   O     0.07333   0.40592   0.10529   0.00000  Uiso   1.00
N271   N     0.69597   0.98508   0.96678   0.00000  Uiso   1.00
N272   N     0.94300   0.56437   0.13288   0.00000  Uiso   1.00
N273   N     0.03505   0.25175   0.06550   0.00000  Uiso   1.00
N274   N     0.65662   0.03689   0.03793   0.00000  Uiso   1.00
N275   N     0.90365   0.61618   0.20403   0.00000  Uiso   1.00
N276   N     0.99570   0.30357   0.13666   0.00000  Uiso   1.00
C277   C     0.16120   0.92834   0.95210   0.00000  Uiso   1.00
C278   C     0.22557   0.95667   0.95732   0.00000  Uiso   1.00
C279   C     0.25785   0.95126   0.00130   0.00000  Uiso   1.00
C280   C     0.31615   0.98057   0.99827   0.00000  Uiso   1.00
C281   C     0.41230   0.01942   0.01327   0.00000  Uiso   1.00
C282   C     0.15762   0.84070   0.91142   0.00000  Uiso   1.00
C283   C     0.13274   0.73778   0.91682   0.00000  Uiso   1.00
C284   C     0.13383   0.66948   0.87514   0.00000  Uiso   1.00
C285   C     0.12444   0.52830   0.81887   0.00000  Uiso   1.00
C286   C     0.13202   0.02991   0.93027   0.00000  Uiso   1.00
C287   C     0.08562   0.08607   0.95150   0.00000  Uiso   1.00
C288   C     0.06514   0.17705   0.92569   0.00000  Uiso   1.00
C289   C     0.01602   0.32965   0.89869   0.00000  Uiso   1.00
C290   C     0.20733   0.99003   0.86848   0.00000  Uiso   1.00
C291   C     0.25063   0.99017   0.91190   0.00000  Uiso   1.00
C292   C     0.30890   0.01951   0.90879   0.00000  Uiso   1.00
C293   C     0.34125   0.01414   0.95277   0.00000  Uiso   1.00
C294   C     0.18267   0.87420   0.86600   0.00000  Uiso   1.00
C295   C     0.18379   0.80603   0.82430   0.00000  Uiso   1.00
C296   C     0.15893   0.70304   0.82964   0.00000  Uiso   1.00
C297   C     0.15708   0.06342   0.88485   0.00000  Uiso   1.00
C298   C     0.13667   0.15432   0.85899   0.00000  Uiso   1.00
C299   C     0.09025   0.21062   0.88019   0.00000  Uiso   1.00
H300   H     0.14169   0.90224   0.98746   0.00000  Uiso   1.00
H301   H     0.23844   0.92531   0.03644   0.00000  Uiso   1.00
H302   H     0.11335   0.71188   0.95197   0.00000  Uiso   1.00
H303   H     0.06624   0.06011   0.98665   0.00000  Uiso   1.00
H304   H     0.35677   0.96563   0.07072   0.00000  Uiso   1.00
H305   H     0.09299   0.51560   0.89259   0.00000  Uiso   1.00
H306   H     0.99364   0.24992   0.96573   0.00000  Uiso   1.00
H307   H     0.22684   0.01611   0.83312   0.00000  Uiso   1.00
H308   H     0.32828   0.04544   0.87364   0.00000  Uiso   1.00
H309   H     0.20318   0.83200   0.78916   0.00000  Uiso   1.00
H310   H     0.15607   0.18023   0.82385   0.00000  Uiso   1.00
H311   H     0.42968   0.06312   0.93858   0.00000  Uiso   1.00
H312   H     0.16590   0.61309   0.76045   0.00000  Uiso   1.00
H313   H     0.06656   0.34742   0.83359   0.00000  Uiso   1.00
O314   O     0.45842   0.03157   0.03409   0.00000  Uiso   1.00
O315   O     0.11234   0.44116   0.80039   0.00000  Uiso   1.00
O316   O     0.98200   0.40458   0.89634   0.00000  Uiso   1.00
N317   N     0.36001   0.98457   0.03406   0.00000  Uiso   1.00
N318   N     0.11340   0.56381   0.86752   0.00000  Uiso   1.00
N319   N     0.02050   0.25033   0.93590   0.00000  Uiso   1.00
N320   N     0.39924   0.03703   0.96296   0.00000  Uiso   1.00
N321   N     0.15263   0.61627   0.79642   0.00000  Uiso   1.00
N322   N     0.05974   0.30279   0.86479   0.00000  Uiso   1.00
C323   C     0.10521   0.07078   0.54878   0.00000  Uiso   1.00
C324   C     0.16962   0.04270   0.54357   0.00000  Uiso   1.00
C325   C     0.20185   0.04798   0.49955   0.00000  Uiso   1.00
C326   C     0.26019   0.01895   0.50260   0.00000  Uiso   1.00
C327   C     0.35638   0.98045   0.48760   0.00000  Uiso   1.00
C328   C     0.10154   0.15867   0.58934   0.00000  Uiso   1.00
C329   C     0.07653   0.26143   0.58382   0.00000  Uiso   1.00
C330   C     0.07756   0.33001   0.62540   0.00000  Uiso   1.00
C331   C     0.06803   0.47151   0.68148   0.00000  Uiso   1.00
C332   C     0.07618   0.96922   0.57077   0.00000  Uiso   1.00
C333   C     0.02984   0.91270   0.54963   0.00000  Uiso   1.00
C334   C     0.00950   0.82179   0.57559   0.00000  Uiso   1.00
C335   C     0.96059   0.66914   0.60283   0.00000  Uiso   1.00
C336   C     0.15149   0.00985   0.63246   0.00000  Uiso   1.00
C337   C     0.19475   0.00961   0.58902   0.00000  Uiso   1.00
C338   C     0.25306   0.98056   0.59213   0.00000  Uiso   1.00
C339   C     0.28537   0.98579   0.54813   0.00000  Uiso   1.00
C340   C     0.12668   0.12558   0.63479   0.00000  Uiso   1.00
C341   C     0.12774   0.19402   0.67639   0.00000  Uiso   1.00
C342   C     0.10274   0.29686   0.67093   0.00000  Uiso   1.00
C343   C     0.10132   0.93612   0.61622   0.00000  Uiso   1.00
C344   C     0.08104   0.84529   0.64221   0.00000  Uiso   1.00
C345   C     0.03468   0.78864   0.62112   0.00000  Uiso   1.00
H346   H     0.08564   0.09655   0.51340   0.00000  Uiso   1.00
H347   H     0.18238   0.07360   0.46439   0.00000  Uiso   1.00
H348   H     0.05708   0.28701   0.54864   0.00000  Uiso   1.00
H349   H     0.01039   0.93834   0.51446   0.00000  Uiso   1.00
H350   H     0.30074   0.03361   0.43010   0.00000  Uiso   1.00
H351   H     0.03651   0.48358   0.60776   0.00000  Uiso   1.00
H352   H     0.93806   0.74833   0.53569   0.00000  Uiso   1.00
H353   H     0.17106   0.98408   0.66784   0.00000  Uiso   1.00
H354   H     0.27250   0.95496   0.62731   0.00000  Uiso   1.00
H355   H     0.14719   0.16838   0.71156   0.00000  Uiso   1.00
H356   H     0.10051   0.81970   0.67738   0.00000  Uiso   1.00
H357   H     0.37388   0.93732   0.56233   0.00000  Uiso   1.00
H358   H     0.10964   0.38730   0.73999   0.00000  Uiso   1.00
H359   H     0.01120   0.65204   0.66792   0.00000  Uiso   1.00
O360   O     0.40250   0.96837   0.46677   0.00000  Uiso   1.00
O361   O     0.05583   0.55871   0.69985   0.00000  Uiso   1.00
O362   O     0.92667   0.59408   0.60529   0.00000  Uiso   1.00
N363   N     0.30403   0.01492   0.46678   0.00000  Uiso   1.00
N364   N     0.05700   0.43563   0.63288   0.00000  Uiso   1.00
N365   N     0.96495   0.74825   0.56550   0.00000  Uiso   1.00
N366   N     0.34338   0.96311   0.53793   0.00000  Uiso   1.00
N367   N     0.09635   0.38382   0.70403   0.00000  Uiso   1.00
N368   N     0.00430   0.69643   0.63666   0.00000  Uiso   1.00
