data_job_01714
_audit_creation_date              2018-12-19
_audit_creation_method            'Materials Studio'
_symmetry_space_group_name_H-M    'P1'
_symmetry_Int_Tables_number       1
_symmetry_cell_setting            triclinic
loop_
_symmetry_equiv_pos_as_xyz
  x,y,z
_cell_length_a                    16.2139
_cell_length_b                    8.4812
_cell_length_c                    19.5671
_cell_angle_alpha                 90.0000
_cell_angle_beta                  100.5470
_cell_angle_gamma                 90.0000
loop_
_atom_site_label
_atom_site_type_symbol
_atom_site_fract_x
_atom_site_fract_y
_atom_site_fract_z
_atom_site_U_iso_or_equiv
_atom_site_adp_type
_atom_site_occupancy
C1     C     0.23129   0.89141   0.56482   0.00000  Uiso   1.00
C2     C     0.32304   0.90927   0.59941   0.00000  Uiso   1.00
C3     C     0.36977   0.79954   0.64281   0.00000  Uiso   1.00
C4     C     0.45271   0.83797   0.66926   0.00000  Uiso   1.00
C5     C     0.58986   0.84397   0.72549   0.00000  Uiso   1.00
C6     C     0.18588   0.03440   0.58732   0.00000  Uiso   1.00
C7     C     0.11728   0.02987   0.62056   0.00000  Uiso   1.00
C8     C     0.08475   0.17364   0.63682   0.00000  Uiso   1.00
C9     C     0.00892   0.37391   0.67425   0.00000  Uiso   1.00
C10    C     0.22894   0.91106   0.48702   0.00000  Uiso   1.00
C11    C     0.19652   0.80286   0.43591   0.00000  Uiso   1.00
C12    C     0.20023   0.84280   0.36773   0.00000  Uiso   1.00
C13    C     0.19125   0.85157   0.24942   0.00000  Uiso   1.00
C14    C     0.29548   0.15479   0.53460   0.00000  Uiso   1.00
C15    C     0.35790   0.05233   0.58299   0.00000  Uiso   1.00
C16    C     0.44079   0.09093   0.60938   0.00000  Uiso   1.00
C17    C     0.48764   0.98128   0.65281   0.00000  Uiso   1.00
C18    C     0.22074   0.17745   0.57091   0.00000  Uiso   1.00
C19    C     0.18830   0.32126   0.58713   0.00000  Uiso   1.00
C20    C     0.11968   0.31696   0.62038   0.00000  Uiso   1.00
C21    C     0.26380   0.05412   0.47061   0.00000  Uiso   1.00
C22    C     0.26755   0.09425   0.40248   0.00000  Uiso   1.00
C23    C     0.23515   0.98612   0.35128   0.00000  Uiso   1.00
H24    H     0.20414   0.78004   0.57760   0.00000  Uiso   1.00
H25    H     0.34277   0.68885   0.65550   0.00000  Uiso   1.00
H26    H     0.09031   0.91915   0.63325   0.00000  Uiso   1.00
H27    H     0.16955   0.69217   0.44863   0.00000  Uiso   1.00
H28    H     0.51183   0.65086   0.73466   0.00000  Uiso   1.00
H29    H     0.97949   0.13646   0.68771   0.00000  Uiso   1.00
H30    H     0.14657   0.65782   0.29842   0.00000  Uiso   1.00
H31    H     0.32262   0.26617   0.52182   0.00000  Uiso   1.00
H32    H     0.46776   0.20165   0.59667   0.00000  Uiso   1.00
H33    H     0.21530   0.43194   0.57441   0.00000  Uiso   1.00
H34    H     0.29453   0.20496   0.38980   0.00000  Uiso   1.00
H35    H     0.61327   0.06707   0.68691   0.00000  Uiso   1.00
H36    H     0.08093   0.55266   0.63996   0.00000  Uiso   1.00
H37    H     0.24801   0.07402   0.25067   0.00000  Uiso   1.00
O38    O     0.65587   0.80777   0.76105   0.00000  Uiso   1.00
O39    O     0.95746   0.44485   0.69944   0.00000  Uiso   1.00
O40    O     0.17667   0.81688   0.18870   0.00000  Uiso   1.00
N41    N     0.51579   0.75765   0.71314   0.00000  Uiso   1.00
N42    N     0.01810   0.21166   0.66926   0.00000  Uiso   1.00
N43    N     0.17428   0.76419   0.30530   0.00000  Uiso   1.00
N44    N     0.57038   0.98161   0.68744   0.00000  Uiso   1.00
N45    N     0.07268   0.43561   0.64356   0.00000  Uiso   1.00
N46    N     0.22887   0.98814   0.27960   0.00000  Uiso   1.00
C47    C     0.76871   0.39141   0.93518   0.00000  Uiso   1.00
C48    C     0.67696   0.40927   0.90059   0.00000  Uiso   1.00
C49    C     0.63023   0.29954   0.85719   0.00000  Uiso   1.00
C50    C     0.54729   0.33797   0.83074   0.00000  Uiso   1.00
C51    C     0.41014   0.34397   0.77451   0.00000  Uiso   1.00
C52    C     0.81412   0.53440   0.91268   0.00000  Uiso   1.00
C53    C     0.88272   0.52987   0.87944   0.00000  Uiso   1.00
C54    C     0.91525   0.67364   0.86318   0.00000  Uiso   1.00
C55    C     0.99108   0.87391   0.82575   0.00000  Uiso   1.00
C56    C     0.77106   0.41106   0.01298   0.00000  Uiso   1.00
C57    C     0.80348   0.30286   0.06409   0.00000  Uiso   1.00
C58    C     0.79977   0.34280   0.13227   0.00000  Uiso   1.00
C59    C     0.80875   0.35157   0.25058   0.00000  Uiso   1.00
C60    C     0.70452   0.65479   0.96540   0.00000  Uiso   1.00
C61    C     0.64210   0.55233   0.91701   0.00000  Uiso   1.00
C62    C     0.55921   0.59093   0.89062   0.00000  Uiso   1.00
C63    C     0.51236   0.48128   0.84719   0.00000  Uiso   1.00
C64    C     0.77926   0.67745   0.92909   0.00000  Uiso   1.00
C65    C     0.81170   0.82126   0.91287   0.00000  Uiso   1.00
C66    C     0.88032   0.81696   0.87962   0.00000  Uiso   1.00
C67    C     0.73620   0.55412   0.02939   0.00000  Uiso   1.00
C68    C     0.73245   0.59425   0.09752   0.00000  Uiso   1.00
C69    C     0.76485   0.48612   0.14872   0.00000  Uiso   1.00
H70    H     0.79586   0.28004   0.92240   0.00000  Uiso   1.00
H71    H     0.65723   0.18885   0.84450   0.00000  Uiso   1.00
H72    H     0.90969   0.41915   0.86675   0.00000  Uiso   1.00
H73    H     0.83045   0.19217   0.05137   0.00000  Uiso   1.00
H74    H     0.48817   0.15086   0.76534   0.00000  Uiso   1.00
H75    H     0.02051   0.63646   0.81229   0.00000  Uiso   1.00
H76    H     0.85343   0.15782   0.20158   0.00000  Uiso   1.00
H77    H     0.67738   0.76617   0.97818   0.00000  Uiso   1.00
H78    H     0.53224   0.70165   0.90333   0.00000  Uiso   1.00
H79    H     0.78470   0.93194   0.92559   0.00000  Uiso   1.00
H80    H     0.70547   0.70496   0.11020   0.00000  Uiso   1.00
H81    H     0.38673   0.56707   0.81309   0.00000  Uiso   1.00
H82    H     0.91907   0.05266   0.86004   0.00000  Uiso   1.00
H83    H     0.75199   0.57402   0.24933   0.00000  Uiso   1.00
O84    O     0.34413   0.30777   0.73895   0.00000  Uiso   1.00
O85    O     0.04254   0.94485   0.80056   0.00000  Uiso   1.00
O86    O     0.82333   0.31688   0.31130   0.00000  Uiso   1.00
N87    N     0.48421   0.25765   0.78686   0.00000  Uiso   1.00
N88    N     0.98190   0.71166   0.83074   0.00000  Uiso   1.00
N89    N     0.82572   0.26419   0.19470   0.00000  Uiso   1.00
N90    N     0.42962   0.48161   0.81256   0.00000  Uiso   1.00
N91    N     0.92732   0.93561   0.85644   0.00000  Uiso   1.00
N92    N     0.77113   0.48814   0.22040   0.00000  Uiso   1.00
C93    C     0.76871   0.10859   0.43518   0.00000  Uiso   1.00
C94    C     0.67696   0.09073   0.40059   0.00000  Uiso   1.00
C95    C     0.63023   0.20046   0.35719   0.00000  Uiso   1.00
C96    C     0.54729   0.16203   0.33074   0.00000  Uiso   1.00
C97    C     0.41014   0.15603   0.27451   0.00000  Uiso   1.00
C98    C     0.81412   0.96560   0.41268   0.00000  Uiso   1.00
C99    C     0.88272   0.97013   0.37944   0.00000  Uiso   1.00
C100   C     0.91525   0.82636   0.36318   0.00000  Uiso   1.00
C101   C     0.99108   0.62609   0.32575   0.00000  Uiso   1.00
C102   C     0.77106   0.08894   0.51298   0.00000  Uiso   1.00
C103   C     0.80348   0.19714   0.56409   0.00000  Uiso   1.00
C104   C     0.79977   0.15720   0.63227   0.00000  Uiso   1.00
C105   C     0.80875   0.14843   0.75058   0.00000  Uiso   1.00
C106   C     0.70452   0.84521   0.46540   0.00000  Uiso   1.00
C107   C     0.64210   0.94767   0.41701   0.00000  Uiso   1.00
C108   C     0.55921   0.90907   0.39062   0.00000  Uiso   1.00
C109   C     0.51236   0.01872   0.34719   0.00000  Uiso   1.00
C110   C     0.77926   0.82255   0.42909   0.00000  Uiso   1.00
C111   C     0.81170   0.67874   0.41287   0.00000  Uiso   1.00
C112   C     0.88032   0.68304   0.37962   0.00000  Uiso   1.00
C113   C     0.73620   0.94588   0.52939   0.00000  Uiso   1.00
C114   C     0.73245   0.90575   0.59752   0.00000  Uiso   1.00
C115   C     0.76485   0.01388   0.64872   0.00000  Uiso   1.00
H116   H     0.79586   0.21996   0.42240   0.00000  Uiso   1.00
H117   H     0.65723   0.31115   0.34450   0.00000  Uiso   1.00
H118   H     0.90969   0.08085   0.36675   0.00000  Uiso   1.00
H119   H     0.83045   0.30783   0.55137   0.00000  Uiso   1.00
H120   H     0.48817   0.34914   0.26534   0.00000  Uiso   1.00
H121   H     0.02051   0.86354   0.31229   0.00000  Uiso   1.00
H122   H     0.85343   0.34218   0.70158   0.00000  Uiso   1.00
H123   H     0.67738   0.73383   0.47818   0.00000  Uiso   1.00
H124   H     0.53224   0.79835   0.40333   0.00000  Uiso   1.00
H125   H     0.78470   0.56806   0.42559   0.00000  Uiso   1.00
H126   H     0.70547   0.79504   0.61020   0.00000  Uiso   1.00
H127   H     0.38673   0.93293   0.31309   0.00000  Uiso   1.00
H128   H     0.91907   0.44734   0.36004   0.00000  Uiso   1.00
H129   H     0.75199   0.92598   0.74933   0.00000  Uiso   1.00
O130   O     0.34413   0.19223   0.23895   0.00000  Uiso   1.00
O131   O     0.04254   0.55515   0.30056   0.00000  Uiso   1.00
O132   O     0.82333   0.18312   0.81130   0.00000  Uiso   1.00
N133   N     0.48421   0.24235   0.28686   0.00000  Uiso   1.00
N134   N     0.98190   0.78834   0.33074   0.00000  Uiso   1.00
N135   N     0.82572   0.23581   0.69470   0.00000  Uiso   1.00
N136   N     0.42962   0.01839   0.31256   0.00000  Uiso   1.00
N137   N     0.92732   0.56439   0.35644   0.00000  Uiso   1.00
N138   N     0.77113   0.01186   0.72040   0.00000  Uiso   1.00
C139   C     0.23129   0.60859   0.06482   0.00000  Uiso   1.00
C140   C     0.32304   0.59073   0.09941   0.00000  Uiso   1.00
C141   C     0.36977   0.70046   0.14281   0.00000  Uiso   1.00
C142   C     0.45271   0.66203   0.16926   0.00000  Uiso   1.00
C143   C     0.58986   0.65603   0.22549   0.00000  Uiso   1.00
C144   C     0.18588   0.46560   0.08732   0.00000  Uiso   1.00
C145   C     0.11728   0.47013   0.12056   0.00000  Uiso   1.00
C146   C     0.08475   0.32636   0.13682   0.00000  Uiso   1.00
C147   C     0.00892   0.12609   0.17425   0.00000  Uiso   1.00
C148   C     0.22894   0.58894   0.98702   0.00000  Uiso   1.00
C149   C     0.19652   0.69714   0.93591   0.00000  Uiso   1.00
C150   C     0.20023   0.65720   0.86773   0.00000  Uiso   1.00
C151   C     0.19125   0.64843   0.74942   0.00000  Uiso   1.00
C152   C     0.29548   0.34521   0.03460   0.00000  Uiso   1.00
C153   C     0.35790   0.44767   0.08299   0.00000  Uiso   1.00
C154   C     0.44079   0.40907   0.10938   0.00000  Uiso   1.00
C155   C     0.48764   0.51872   0.15281   0.00000  Uiso   1.00
C156   C     0.22074   0.32255   0.07091   0.00000  Uiso   1.00
C157   C     0.18830   0.17874   0.08713   0.00000  Uiso   1.00
C158   C     0.11968   0.18304   0.12038   0.00000  Uiso   1.00
C159   C     0.26380   0.44588   0.97061   0.00000  Uiso   1.00
C160   C     0.26755   0.40575   0.90248   0.00000  Uiso   1.00
C161   C     0.23515   0.51388   0.85128   0.00000  Uiso   1.00
H162   H     0.20414   0.71996   0.07760   0.00000  Uiso   1.00
H163   H     0.34277   0.81115   0.15550   0.00000  Uiso   1.00
H164   H     0.09031   0.58085   0.13325   0.00000  Uiso   1.00
H165   H     0.16955   0.80783   0.94863   0.00000  Uiso   1.00
H166   H     0.51183   0.84914   0.23466   0.00000  Uiso   1.00
H167   H     0.97949   0.36354   0.18771   0.00000  Uiso   1.00
H168   H     0.14657   0.84218   0.79842   0.00000  Uiso   1.00
H169   H     0.32262   0.23383   0.02182   0.00000  Uiso   1.00
H170   H     0.46776   0.29835   0.09667   0.00000  Uiso   1.00
H171   H     0.21530   0.06806   0.07441   0.00000  Uiso   1.00
H172   H     0.29453   0.29504   0.88980   0.00000  Uiso   1.00
H173   H     0.61327   0.43293   0.18691   0.00000  Uiso   1.00
H174   H     0.08093   0.94734   0.13996   0.00000  Uiso   1.00
H175   H     0.24801   0.42598   0.75067   0.00000  Uiso   1.00
O176   O     0.65587   0.69223   0.26105   0.00000  Uiso   1.00
O177   O     0.95746   0.05515   0.19944   0.00000  Uiso   1.00
O178   O     0.17667   0.68312   0.68870   0.00000  Uiso   1.00
N179   N     0.51579   0.74235   0.21314   0.00000  Uiso   1.00
N180   N     0.01810   0.28834   0.16926   0.00000  Uiso   1.00
N181   N     0.17428   0.73581   0.80530   0.00000  Uiso   1.00
N182   N     0.57038   0.51839   0.18744   0.00000  Uiso   1.00
N183   N     0.07268   0.06439   0.14356   0.00000  Uiso   1.00
N184   N     0.22887   0.51186   0.77960   0.00000  Uiso   1.00
