data_job_02940
_audit_creation_date              2018-12-19
_audit_creation_method            'Materials Studio'
_symmetry_space_group_name_H-M    'P1'
_symmetry_Int_Tables_number       1
_symmetry_cell_setting            triclinic
loop_
_symmetry_equiv_pos_as_xyz
  x,y,z
_cell_length_a                    30.4556
_cell_length_b                    30.4556
_cell_length_c                    7.1059
_cell_angle_alpha                 90.0000
_cell_angle_beta                  90.0000
_cell_angle_gamma                 90.0000
loop_
_atom_site_label
_atom_site_type_symbol
_atom_site_fract_x
_atom_site_fract_y
_atom_site_fract_z
_atom_site_U_iso_or_equiv
_atom_site_adp_type
_atom_site_occupancy
C1     C     0.40965   0.70501   0.43080   0.00000  Uiso   1.00
C2     C     0.40339   0.65835   0.35770   0.00000  Uiso   1.00
C3     C     0.38693   0.62325   0.46033   0.00000  Uiso   1.00
C4     C     0.38377   0.58319   0.36805   0.00000  Uiso   1.00
C5     C     0.37212   0.51146   0.28320   0.00000  Uiso   1.00
C6     C     0.45794   0.71605   0.39942   0.00000  Uiso   1.00
C7     C     0.48734   0.72946   0.53713   0.00000  Uiso   1.00
C8     C     0.53009   0.73798   0.47995   0.00000  Uiso   1.00
C9     C     0.60312   0.75585   0.45986   0.00000  Uiso   1.00
C10    C     0.38384   0.73465   0.29789   0.00000  Uiso   1.00
C11    C     0.35094   0.76372   0.35022   0.00000  Uiso   1.00
C12    C     0.33131   0.78791   0.20756   0.00000  Uiso   1.00
C13    C     0.28927   0.83468   0.02982   0.00000  Uiso   1.00
C14    C     0.43330   0.69629   0.08441   0.00000  Uiso   1.00
C15    C     0.41624   0.65361   0.16956   0.00000  Uiso   1.00
C16    C     0.41310   0.61360   0.07709   0.00000  Uiso   1.00
C17    C     0.39664   0.57844   0.17956   0.00000  Uiso   1.00
C18    C     0.47079   0.71131   0.21129   0.00000  Uiso   1.00
C19    C     0.51350   0.71981   0.15389   0.00000  Uiso   1.00
C20    C     0.54296   0.73323   0.29147   0.00000  Uiso   1.00
C21    C     0.39668   0.72992   0.10974   0.00000  Uiso   1.00
C22    C     0.37710   0.75407   0.96698   0.00000  Uiso   1.00
C23    C     0.34418   0.78317   0.01908   0.00000  Uiso   1.00
H24    H     0.39965   0.70870   0.57727   0.00000  Uiso   1.00
H25    H     0.37700   0.62692   0.60593   0.00000  Uiso   1.00
H26    H     0.47739   0.73313   0.68271   0.00000  Uiso   1.00
H27    H     0.34101   0.76738   0.49583   0.00000  Uiso   1.00
H28    H     0.35756   0.53417   0.55476   0.00000  Uiso   1.00
H29    H     0.56923   0.75812   0.71663   0.00000  Uiso   1.00
H30    H     0.28164   0.83035   0.32256   0.00000  Uiso   1.00
H31    H     0.44330   0.69260   0.93792   0.00000  Uiso   1.00
H32    H     0.42304   0.60994   0.93149   0.00000  Uiso   1.00
H33    H     0.52343   0.71615   0.00828   0.00000  Uiso   1.00
H34    H     0.38705   0.75040   0.82140   0.00000  Uiso   1.00
H35    H     0.39493   0.52039   0.00736   0.00000  Uiso   1.00
H36    H     0.60661   0.74434   0.16924   0.00000  Uiso   1.00
H37    H     0.31902   0.81657   0.77517   0.00000  Uiso   1.00
O38    O     0.36215   0.47320   0.28838   0.00000  Uiso   1.00
O39    O     0.63985   0.76701   0.50076   0.00000  Uiso   1.00
O40    O     0.26254   0.86177   0.98375   0.00000  Uiso   1.00
N41    N     0.36913   0.54228   0.42680   0.00000  Uiso   1.00
N42    N     0.56703   0.75165   0.57815   0.00000  Uiso   1.00
N43    N     0.29817   0.81918   0.20973   0.00000  Uiso   1.00
N44    N     0.38924   0.53486   0.13225   0.00000  Uiso   1.00
N45    N     0.58714   0.74423   0.28360   0.00000  Uiso   1.00
N46    N     0.31828   0.81177   0.91519   0.00000  Uiso   1.00
C47    C     0.59035   0.29499   0.43080   0.00000  Uiso   1.00
C48    C     0.59661   0.34165   0.35770   0.00000  Uiso   1.00
C49    C     0.61307   0.37675   0.46033   0.00000  Uiso   1.00
C50    C     0.61623   0.41681   0.36805   0.00000  Uiso   1.00
C51    C     0.62788   0.48854   0.28320   0.00000  Uiso   1.00
C52    C     0.54206   0.28395   0.39942   0.00000  Uiso   1.00
C53    C     0.51266   0.27054   0.53713   0.00000  Uiso   1.00
C54    C     0.46991   0.26202   0.47995   0.00000  Uiso   1.00
C55    C     0.39688   0.24415   0.45986   0.00000  Uiso   1.00
C56    C     0.61616   0.26535   0.29789   0.00000  Uiso   1.00
C57    C     0.64906   0.23628   0.35022   0.00000  Uiso   1.00
C58    C     0.66869   0.21209   0.20756   0.00000  Uiso   1.00
C59    C     0.71073   0.16532   0.02982   0.00000  Uiso   1.00
C60    C     0.56670   0.30371   0.08441   0.00000  Uiso   1.00
C61    C     0.58376   0.34639   0.16956   0.00000  Uiso   1.00
C62    C     0.58690   0.38640   0.07709   0.00000  Uiso   1.00
C63    C     0.60336   0.42156   0.17956   0.00000  Uiso   1.00
C64    C     0.52921   0.28869   0.21129   0.00000  Uiso   1.00
C65    C     0.48650   0.28019   0.15389   0.00000  Uiso   1.00
C66    C     0.45704   0.26677   0.29147   0.00000  Uiso   1.00
C67    C     0.60332   0.27008   0.10974   0.00000  Uiso   1.00
C68    C     0.62290   0.24593   0.96698   0.00000  Uiso   1.00
C69    C     0.65582   0.21683   0.01908   0.00000  Uiso   1.00
H70    H     0.60035   0.29130   0.57727   0.00000  Uiso   1.00
H71    H     0.62300   0.37308   0.60593   0.00000  Uiso   1.00
H72    H     0.52261   0.26687   0.68271   0.00000  Uiso   1.00
H73    H     0.65899   0.23262   0.49583   0.00000  Uiso   1.00
H74    H     0.64244   0.46583   0.55476   0.00000  Uiso   1.00
H75    H     0.43077   0.24188   0.71663   0.00000  Uiso   1.00
H76    H     0.71836   0.16965   0.32256   0.00000  Uiso   1.00
H77    H     0.55670   0.30740   0.93792   0.00000  Uiso   1.00
H78    H     0.57696   0.39006   0.93149   0.00000  Uiso   1.00
H79    H     0.47657   0.28385   0.00828   0.00000  Uiso   1.00
H80    H     0.61295   0.24960   0.82140   0.00000  Uiso   1.00
H81    H     0.60507   0.47961   0.00736   0.00000  Uiso   1.00
H82    H     0.39339   0.25566   0.16924   0.00000  Uiso   1.00
H83    H     0.68098   0.18343   0.77517   0.00000  Uiso   1.00
O84    O     0.63785   0.52680   0.28838   0.00000  Uiso   1.00
O85    O     0.36015   0.23299   0.50076   0.00000  Uiso   1.00
O86    O     0.73746   0.13823   0.98375   0.00000  Uiso   1.00
N87    N     0.63087   0.45772   0.42680   0.00000  Uiso   1.00
N88    N     0.43297   0.24835   0.57815   0.00000  Uiso   1.00
N89    N     0.70183   0.18082   0.20973   0.00000  Uiso   1.00
N90    N     0.61076   0.46514   0.13225   0.00000  Uiso   1.00
N91    N     0.41286   0.25577   0.28360   0.00000  Uiso   1.00
N92    N     0.68172   0.18823   0.91519   0.00000  Uiso   1.00
C93    C     0.79499   0.90965   0.43080   0.00000  Uiso   1.00
C94    C     0.84165   0.90339   0.35770   0.00000  Uiso   1.00
C95    C     0.87675   0.88693   0.46033   0.00000  Uiso   1.00
C96    C     0.91681   0.88377   0.36805   0.00000  Uiso   1.00
C97    C     0.98854   0.87212   0.28320   0.00000  Uiso   1.00
C98    C     0.78395   0.95794   0.39942   0.00000  Uiso   1.00
C99    C     0.77054   0.98734   0.53713   0.00000  Uiso   1.00
C100   C     0.76202   0.03009   0.47995   0.00000  Uiso   1.00
C101   C     0.74415   0.10312   0.45986   0.00000  Uiso   1.00
C102   C     0.76535   0.88384   0.29789   0.00000  Uiso   1.00
C103   C     0.73628   0.85094   0.35022   0.00000  Uiso   1.00
C104   C     0.71209   0.83131   0.20756   0.00000  Uiso   1.00
C105   C     0.66532   0.78927   0.02982   0.00000  Uiso   1.00
C106   C     0.80371   0.93330   0.08441   0.00000  Uiso   1.00
C107   C     0.84639   0.91624   0.16956   0.00000  Uiso   1.00
C108   C     0.88640   0.91310   0.07709   0.00000  Uiso   1.00
C109   C     0.92156   0.89664   0.17956   0.00000  Uiso   1.00
C110   C     0.78869   0.97079   0.21129   0.00000  Uiso   1.00
C111   C     0.78019   0.01350   0.15389   0.00000  Uiso   1.00
C112   C     0.76677   0.04296   0.29147   0.00000  Uiso   1.00
C113   C     0.77008   0.89668   0.10974   0.00000  Uiso   1.00
C114   C     0.74593   0.87710   0.96698   0.00000  Uiso   1.00
C115   C     0.71683   0.84418   0.01908   0.00000  Uiso   1.00
H116   H     0.79130   0.89965   0.57727   0.00000  Uiso   1.00
H117   H     0.87308   0.87700   0.60593   0.00000  Uiso   1.00
H118   H     0.76687   0.97739   0.68271   0.00000  Uiso   1.00
H119   H     0.73262   0.84101   0.49583   0.00000  Uiso   1.00
H120   H     0.96583   0.85756   0.55476   0.00000  Uiso   1.00
H121   H     0.74188   0.06923   0.71663   0.00000  Uiso   1.00
H122   H     0.66965   0.78164   0.32256   0.00000  Uiso   1.00
H123   H     0.80740   0.94330   0.93792   0.00000  Uiso   1.00
H124   H     0.89006   0.92304   0.93149   0.00000  Uiso   1.00
H125   H     0.78385   0.02343   0.00828   0.00000  Uiso   1.00
H126   H     0.74960   0.88705   0.82140   0.00000  Uiso   1.00
H127   H     0.97961   0.89493   0.00736   0.00000  Uiso   1.00
H128   H     0.75566   0.10661   0.16924   0.00000  Uiso   1.00
H129   H     0.68343   0.81902   0.77517   0.00000  Uiso   1.00
O130   O     0.02680   0.86215   0.28838   0.00000  Uiso   1.00
O131   O     0.73299   0.13985   0.50076   0.00000  Uiso   1.00
O132   O     0.63823   0.76254   0.98375   0.00000  Uiso   1.00
N133   N     0.95772   0.86913   0.42680   0.00000  Uiso   1.00
N134   N     0.74835   0.06703   0.57815   0.00000  Uiso   1.00
N135   N     0.68082   0.79817   0.20973   0.00000  Uiso   1.00
N136   N     0.96514   0.88924   0.13225   0.00000  Uiso   1.00
N137   N     0.75577   0.08714   0.28360   0.00000  Uiso   1.00
N138   N     0.68823   0.81828   0.91519   0.00000  Uiso   1.00
C139   C     0.20501   0.09035   0.43080   0.00000  Uiso   1.00
C140   C     0.15835   0.09661   0.35770   0.00000  Uiso   1.00
C141   C     0.12325   0.11307   0.46033   0.00000  Uiso   1.00
C142   C     0.08319   0.11623   0.36805   0.00000  Uiso   1.00
C143   C     0.01146   0.12788   0.28320   0.00000  Uiso   1.00
C144   C     0.21605   0.04206   0.39942   0.00000  Uiso   1.00
C145   C     0.22946   0.01266   0.53713   0.00000  Uiso   1.00
C146   C     0.23798   0.96991   0.47995   0.00000  Uiso   1.00
C147   C     0.25585   0.89688   0.45986   0.00000  Uiso   1.00
C148   C     0.23465   0.11616   0.29789   0.00000  Uiso   1.00
C149   C     0.26372   0.14906   0.35022   0.00000  Uiso   1.00
C150   C     0.28791   0.16869   0.20756   0.00000  Uiso   1.00
C151   C     0.33468   0.21073   0.02982   0.00000  Uiso   1.00
C152   C     0.19629   0.06670   0.08441   0.00000  Uiso   1.00
C153   C     0.15361   0.08376   0.16956   0.00000  Uiso   1.00
C154   C     0.11360   0.08690   0.07709   0.00000  Uiso   1.00
C155   C     0.07844   0.10336   0.17956   0.00000  Uiso   1.00
C156   C     0.21131   0.02921   0.21129   0.00000  Uiso   1.00
C157   C     0.21981   0.98650   0.15389   0.00000  Uiso   1.00
C158   C     0.23323   0.95704   0.29147   0.00000  Uiso   1.00
C159   C     0.22992   0.10332   0.10974   0.00000  Uiso   1.00
C160   C     0.25407   0.12290   0.96698   0.00000  Uiso   1.00
C161   C     0.28317   0.15582   0.01908   0.00000  Uiso   1.00
H162   H     0.20870   0.10035   0.57727   0.00000  Uiso   1.00
H163   H     0.12692   0.12300   0.60593   0.00000  Uiso   1.00
H164   H     0.23313   0.02261   0.68271   0.00000  Uiso   1.00
H165   H     0.26738   0.15899   0.49583   0.00000  Uiso   1.00
H166   H     0.03417   0.14244   0.55476   0.00000  Uiso   1.00
H167   H     0.25812   0.93077   0.71663   0.00000  Uiso   1.00
H168   H     0.33035   0.21836   0.32256   0.00000  Uiso   1.00
H169   H     0.19260   0.05670   0.93792   0.00000  Uiso   1.00
H170   H     0.10994   0.07696   0.93149   0.00000  Uiso   1.00
H171   H     0.21615   0.97657   0.00828   0.00000  Uiso   1.00
H172   H     0.25040   0.11295   0.82140   0.00000  Uiso   1.00
H173   H     0.02039   0.10507   0.00736   0.00000  Uiso   1.00
H174   H     0.24434   0.89339   0.16924   0.00000  Uiso   1.00
H175   H     0.31657   0.18098   0.77517   0.00000  Uiso   1.00
O176   O     0.97320   0.13785   0.28838   0.00000  Uiso   1.00
O177   O     0.26701   0.86015   0.50076   0.00000  Uiso   1.00
O178   O     0.36177   0.23746   0.98375   0.00000  Uiso   1.00
N179   N     0.04228   0.13087   0.42680   0.00000  Uiso   1.00
N180   N     0.25165   0.93297   0.57815   0.00000  Uiso   1.00
N181   N     0.31918   0.20183   0.20973   0.00000  Uiso   1.00
N182   N     0.03486   0.11076   0.13225   0.00000  Uiso   1.00
N183   N     0.24423   0.91286   0.28360   0.00000  Uiso   1.00
N184   N     0.31177   0.18172   0.91519   0.00000  Uiso   1.00
C185   C     0.09035   0.79499   0.56920   0.00000  Uiso   1.00
C186   C     0.09661   0.84165   0.64230   0.00000  Uiso   1.00
C187   C     0.11307   0.87675   0.53967   0.00000  Uiso   1.00
C188   C     0.11623   0.91681   0.63195   0.00000  Uiso   1.00
C189   C     0.12788   0.98854   0.71680   0.00000  Uiso   1.00
C190   C     0.04206   0.78395   0.60058   0.00000  Uiso   1.00
C191   C     0.01266   0.77054   0.46287   0.00000  Uiso   1.00
C192   C     0.96991   0.76202   0.52005   0.00000  Uiso   1.00
C193   C     0.89688   0.74415   0.54014   0.00000  Uiso   1.00
C194   C     0.11616   0.76535   0.70211   0.00000  Uiso   1.00
C195   C     0.14906   0.73628   0.64978   0.00000  Uiso   1.00
C196   C     0.16869   0.71209   0.79244   0.00000  Uiso   1.00
C197   C     0.21073   0.66532   0.97018   0.00000  Uiso   1.00
C198   C     0.06670   0.80371   0.91559   0.00000  Uiso   1.00
C199   C     0.08376   0.84639   0.83044   0.00000  Uiso   1.00
C200   C     0.08690   0.88640   0.92291   0.00000  Uiso   1.00
C201   C     0.10336   0.92156   0.82044   0.00000  Uiso   1.00
C202   C     0.02921   0.78869   0.78871   0.00000  Uiso   1.00
C203   C     0.98650   0.78019   0.84611   0.00000  Uiso   1.00
C204   C     0.95704   0.76677   0.70853   0.00000  Uiso   1.00
C205   C     0.10332   0.77008   0.89026   0.00000  Uiso   1.00
C206   C     0.12290   0.74593   0.03302   0.00000  Uiso   1.00
C207   C     0.15582   0.71683   0.98092   0.00000  Uiso   1.00
H208   H     0.10035   0.79130   0.42273   0.00000  Uiso   1.00
H209   H     0.12300   0.87308   0.39407   0.00000  Uiso   1.00
H210   H     0.02261   0.76687   0.31729   0.00000  Uiso   1.00
H211   H     0.15899   0.73262   0.50417   0.00000  Uiso   1.00
H212   H     0.14244   0.96583   0.44524   0.00000  Uiso   1.00
H213   H     0.93077   0.74188   0.28337   0.00000  Uiso   1.00
H214   H     0.21836   0.66965   0.67744   0.00000  Uiso   1.00
H215   H     0.05670   0.80740   0.06208   0.00000  Uiso   1.00
H216   H     0.07696   0.89006   0.06851   0.00000  Uiso   1.00
H217   H     0.97657   0.78385   0.99172   0.00000  Uiso   1.00
H218   H     0.11295   0.74960   0.17860   0.00000  Uiso   1.00
H219   H     0.10507   0.97961   0.99264   0.00000  Uiso   1.00
H220   H     0.89339   0.75566   0.83076   0.00000  Uiso   1.00
H221   H     0.18098   0.68343   0.22483   0.00000  Uiso   1.00
O222   O     0.13785   0.02680   0.71162   0.00000  Uiso   1.00
O223   O     0.86015   0.73299   0.49924   0.00000  Uiso   1.00
O224   O     0.23746   0.63823   0.01625   0.00000  Uiso   1.00
N225   N     0.13087   0.95772   0.57320   0.00000  Uiso   1.00
N226   N     0.93297   0.74835   0.42185   0.00000  Uiso   1.00
N227   N     0.20183   0.68082   0.79027   0.00000  Uiso   1.00
N228   N     0.11076   0.96514   0.86775   0.00000  Uiso   1.00
N229   N     0.91286   0.75577   0.71640   0.00000  Uiso   1.00
N230   N     0.18172   0.68823   0.08481   0.00000  Uiso   1.00
C231   C     0.90965   0.20501   0.56920   0.00000  Uiso   1.00
C232   C     0.90339   0.15835   0.64230   0.00000  Uiso   1.00
C233   C     0.88693   0.12325   0.53967   0.00000  Uiso   1.00
C234   C     0.88377   0.08319   0.63195   0.00000  Uiso   1.00
C235   C     0.87212   0.01146   0.71680   0.00000  Uiso   1.00
C236   C     0.95794   0.21605   0.60058   0.00000  Uiso   1.00
C237   C     0.98734   0.22946   0.46287   0.00000  Uiso   1.00
C238   C     0.03009   0.23798   0.52005   0.00000  Uiso   1.00
C239   C     0.10312   0.25585   0.54014   0.00000  Uiso   1.00
C240   C     0.88384   0.23465   0.70211   0.00000  Uiso   1.00
C241   C     0.85094   0.26372   0.64978   0.00000  Uiso   1.00
C242   C     0.83131   0.28791   0.79244   0.00000  Uiso   1.00
C243   C     0.78927   0.33468   0.97018   0.00000  Uiso   1.00
C244   C     0.93330   0.19629   0.91559   0.00000  Uiso   1.00
C245   C     0.91624   0.15361   0.83044   0.00000  Uiso   1.00
C246   C     0.91310   0.11360   0.92291   0.00000  Uiso   1.00
C247   C     0.89664   0.07844   0.82044   0.00000  Uiso   1.00
C248   C     0.97079   0.21131   0.78871   0.00000  Uiso   1.00
C249   C     0.01350   0.21981   0.84611   0.00000  Uiso   1.00
C250   C     0.04296   0.23323   0.70853   0.00000  Uiso   1.00
C251   C     0.89668   0.22992   0.89026   0.00000  Uiso   1.00
C252   C     0.87710   0.25407   0.03302   0.00000  Uiso   1.00
C253   C     0.84418   0.28317   0.98092   0.00000  Uiso   1.00
H254   H     0.89965   0.20870   0.42273   0.00000  Uiso   1.00
H255   H     0.87700   0.12692   0.39407   0.00000  Uiso   1.00
H256   H     0.97739   0.23313   0.31729   0.00000  Uiso   1.00
H257   H     0.84101   0.26738   0.50417   0.00000  Uiso   1.00
H258   H     0.85756   0.03417   0.44524   0.00000  Uiso   1.00
H259   H     0.06923   0.25812   0.28337   0.00000  Uiso   1.00
H260   H     0.78164   0.33035   0.67744   0.00000  Uiso   1.00
H261   H     0.94330   0.19260   0.06208   0.00000  Uiso   1.00
H262   H     0.92304   0.10994   0.06851   0.00000  Uiso   1.00
H263   H     0.02343   0.21615   0.99172   0.00000  Uiso   1.00
H264   H     0.88705   0.25040   0.17860   0.00000  Uiso   1.00
H265   H     0.89493   0.02039   0.99264   0.00000  Uiso   1.00
H266   H     0.10661   0.24434   0.83076   0.00000  Uiso   1.00
H267   H     0.81902   0.31657   0.22483   0.00000  Uiso   1.00
O268   O     0.86215   0.97320   0.71162   0.00000  Uiso   1.00
O269   O     0.13985   0.26701   0.49924   0.00000  Uiso   1.00
O270   O     0.76254   0.36177   0.01625   0.00000  Uiso   1.00
N271   N     0.86913   0.04228   0.57320   0.00000  Uiso   1.00
N272   N     0.06703   0.25165   0.42185   0.00000  Uiso   1.00
N273   N     0.79817   0.31918   0.79027   0.00000  Uiso   1.00
N274   N     0.88924   0.03486   0.86775   0.00000  Uiso   1.00
N275   N     0.08714   0.24423   0.71640   0.00000  Uiso   1.00
N276   N     0.81828   0.31177   0.08481   0.00000  Uiso   1.00
C277   C     0.70501   0.59035   0.56920   0.00000  Uiso   1.00
C278   C     0.65835   0.59661   0.64230   0.00000  Uiso   1.00
C279   C     0.62325   0.61307   0.53967   0.00000  Uiso   1.00
C280   C     0.58319   0.61623   0.63195   0.00000  Uiso   1.00
C281   C     0.51146   0.62788   0.71680   0.00000  Uiso   1.00
C282   C     0.71605   0.54206   0.60058   0.00000  Uiso   1.00
C283   C     0.72946   0.51266   0.46287   0.00000  Uiso   1.00
C284   C     0.73798   0.46991   0.52005   0.00000  Uiso   1.00
C285   C     0.75585   0.39688   0.54014   0.00000  Uiso   1.00
C286   C     0.73465   0.61616   0.70211   0.00000  Uiso   1.00
C287   C     0.76372   0.64906   0.64978   0.00000  Uiso   1.00
C288   C     0.78791   0.66869   0.79244   0.00000  Uiso   1.00
C289   C     0.83468   0.71073   0.97018   0.00000  Uiso   1.00
C290   C     0.69629   0.56670   0.91559   0.00000  Uiso   1.00
C291   C     0.65361   0.58376   0.83044   0.00000  Uiso   1.00
C292   C     0.61360   0.58690   0.92291   0.00000  Uiso   1.00
C293   C     0.57844   0.60336   0.82044   0.00000  Uiso   1.00
C294   C     0.71131   0.52921   0.78871   0.00000  Uiso   1.00
C295   C     0.71981   0.48650   0.84611   0.00000  Uiso   1.00
C296   C     0.73323   0.45704   0.70853   0.00000  Uiso   1.00
C297   C     0.72992   0.60332   0.89026   0.00000  Uiso   1.00
C298   C     0.75407   0.62290   0.03302   0.00000  Uiso   1.00
C299   C     0.78317   0.65582   0.98092   0.00000  Uiso   1.00
H300   H     0.70870   0.60035   0.42273   0.00000  Uiso   1.00
H301   H     0.62692   0.62300   0.39407   0.00000  Uiso   1.00
H302   H     0.73313   0.52261   0.31729   0.00000  Uiso   1.00
H303   H     0.76738   0.65899   0.50417   0.00000  Uiso   1.00
H304   H     0.53417   0.64244   0.44524   0.00000  Uiso   1.00
H305   H     0.75812   0.43077   0.28337   0.00000  Uiso   1.00
H306   H     0.83035   0.71836   0.67744   0.00000  Uiso   1.00
H307   H     0.69260   0.55670   0.06208   0.00000  Uiso   1.00
H308   H     0.60994   0.57696   0.06851   0.00000  Uiso   1.00
H309   H     0.71615   0.47657   0.99172   0.00000  Uiso   1.00
H310   H     0.75040   0.61295   0.17860   0.00000  Uiso   1.00
H311   H     0.52039   0.60507   0.99264   0.00000  Uiso   1.00
H312   H     0.74434   0.39339   0.83076   0.00000  Uiso   1.00
H313   H     0.81657   0.68098   0.22483   0.00000  Uiso   1.00
O314   O     0.47320   0.63785   0.71162   0.00000  Uiso   1.00
O315   O     0.76701   0.36015   0.49924   0.00000  Uiso   1.00
O316   O     0.86177   0.73746   0.01625   0.00000  Uiso   1.00
N317   N     0.54228   0.63087   0.57320   0.00000  Uiso   1.00
N318   N     0.75165   0.43297   0.42185   0.00000  Uiso   1.00
N319   N     0.81918   0.70183   0.79027   0.00000  Uiso   1.00
N320   N     0.53486   0.61076   0.86775   0.00000  Uiso   1.00
N321   N     0.74423   0.41286   0.71640   0.00000  Uiso   1.00
N322   N     0.81177   0.68172   0.08481   0.00000  Uiso   1.00
C323   C     0.29499   0.40965   0.56920   0.00000  Uiso   1.00
C324   C     0.34165   0.40339   0.64230   0.00000  Uiso   1.00
C325   C     0.37675   0.38693   0.53967   0.00000  Uiso   1.00
C326   C     0.41681   0.38377   0.63195   0.00000  Uiso   1.00
C327   C     0.48854   0.37212   0.71680   0.00000  Uiso   1.00
C328   C     0.28395   0.45794   0.60058   0.00000  Uiso   1.00
C329   C     0.27054   0.48734   0.46287   0.00000  Uiso   1.00
C330   C     0.26202   0.53009   0.52005   0.00000  Uiso   1.00
C331   C     0.24415   0.60312   0.54014   0.00000  Uiso   1.00
C332   C     0.26535   0.38384   0.70211   0.00000  Uiso   1.00
C333   C     0.23628   0.35094   0.64978   0.00000  Uiso   1.00
C334   C     0.21209   0.33131   0.79244   0.00000  Uiso   1.00
C335   C     0.16532   0.28927   0.97018   0.00000  Uiso   1.00
C336   C     0.30371   0.43330   0.91559   0.00000  Uiso   1.00
C337   C     0.34639   0.41624   0.83044   0.00000  Uiso   1.00
C338   C     0.38640   0.41310   0.92291   0.00000  Uiso   1.00
C339   C     0.42156   0.39664   0.82044   0.00000  Uiso   1.00
C340   C     0.28869   0.47079   0.78871   0.00000  Uiso   1.00
C341   C     0.28019   0.51350   0.84611   0.00000  Uiso   1.00
C342   C     0.26677   0.54296   0.70853   0.00000  Uiso   1.00
C343   C     0.27008   0.39668   0.89026   0.00000  Uiso   1.00
C344   C     0.24593   0.37710   0.03302   0.00000  Uiso   1.00
C345   C     0.21683   0.34418   0.98092   0.00000  Uiso   1.00
H346   H     0.29130   0.39965   0.42273   0.00000  Uiso   1.00
H347   H     0.37308   0.37700   0.39407   0.00000  Uiso   1.00
H348   H     0.26687   0.47739   0.31729   0.00000  Uiso   1.00
H349   H     0.23262   0.34101   0.50417   0.00000  Uiso   1.00
H350   H     0.46583   0.35756   0.44524   0.00000  Uiso   1.00
H351   H     0.24188   0.56923   0.28337   0.00000  Uiso   1.00
H352   H     0.16965   0.28164   0.67744   0.00000  Uiso   1.00
H353   H     0.30740   0.44330   0.06208   0.00000  Uiso   1.00
H354   H     0.39006   0.42304   0.06851   0.00000  Uiso   1.00
H355   H     0.28385   0.52343   0.99172   0.00000  Uiso   1.00
H356   H     0.24960   0.38705   0.17860   0.00000  Uiso   1.00
H357   H     0.47961   0.39493   0.99264   0.00000  Uiso   1.00
H358   H     0.25566   0.60661   0.83076   0.00000  Uiso   1.00
H359   H     0.18343   0.31902   0.22483   0.00000  Uiso   1.00
O360   O     0.52680   0.36215   0.71162   0.00000  Uiso   1.00
O361   O     0.23299   0.63985   0.49924   0.00000  Uiso   1.00
O362   O     0.13823   0.26254   0.01625   0.00000  Uiso   1.00
N363   N     0.45772   0.36913   0.57320   0.00000  Uiso   1.00
N364   N     0.24835   0.56703   0.42185   0.00000  Uiso   1.00
N365   N     0.18082   0.29817   0.79027   0.00000  Uiso   1.00
N366   N     0.46514   0.38924   0.86775   0.00000  Uiso   1.00
N367   N     0.25577   0.58714   0.71640   0.00000  Uiso   1.00
N368   N     0.18823   0.31828   0.08481   0.00000  Uiso   1.00
