data_job_01340
_audit_creation_date              2018-12-19
_audit_creation_method            'Materials Studio'
_symmetry_space_group_name_H-M    'P1'
_symmetry_Int_Tables_number       1
_symmetry_cell_setting            triclinic
loop_
_symmetry_equiv_pos_as_xyz
  x,y,z
_cell_length_a                    28.2269
_cell_length_b                    10.7509
_cell_length_c                    24.7925
_cell_angle_alpha                 90.0000
_cell_angle_beta                  141.8340
_cell_angle_gamma                 90.0000
loop_
_atom_site_label
_atom_site_type_symbol
_atom_site_fract_x
_atom_site_fract_y
_atom_site_fract_z
_atom_site_U_iso_or_equiv
_atom_site_adp_type
_atom_site_occupancy
C1     C     0.93481   0.71082   0.51213   0.00000  Uiso   1.00
C2     C     0.99070   0.80514   0.58592   0.00000  Uiso   1.00
C3     C     0.06132   0.83738   0.62748   0.00000  Uiso   1.00
C4     C     0.10394   0.92559   0.69345   0.00000  Uiso   1.00
C5     C     0.19486   0.06378   0.80448   0.00000  Uiso   1.00
C6     C     0.92022   0.61531   0.54337   0.00000  Uiso   1.00
C7     C     0.93158   0.48794   0.54915   0.00000  Uiso   1.00
C8     C     0.91487   0.41635   0.57929   0.00000  Uiso   1.00
C9     C     0.89632   0.25982   0.62420   0.00000  Uiso   1.00
C10    C     0.85933   0.78007   0.43676   0.00000  Uiso   1.00
C11    C     0.81948   0.79122   0.35287   0.00000  Uiso   1.00
C12    C     0.75149   0.85833   0.29324   0.00000  Uiso   1.00
C13    C     0.63839   0.95762   0.17261   0.00000  Uiso   1.00
C14    C     0.88492   0.81014   0.55538   0.00000  Uiso   1.00
C15    C     0.96360   0.85908   0.60941   0.00000  Uiso   1.00
C16    C     0.00612   0.94727   0.67533   0.00000  Uiso   1.00
C17    C     0.07680   0.97964   0.71698   0.00000  Uiso   1.00
C18    C     0.89312   0.66925   0.56686   0.00000  Uiso   1.00
C19    C     0.87638   0.59783   0.59700   0.00000  Uiso   1.00
C20    C     0.88772   0.47039   0.60282   0.00000  Uiso   1.00
C21    C     0.83223   0.83403   0.46025   0.00000  Uiso   1.00
C22    C     0.76429   0.90111   0.40073   0.00000  Uiso   1.00
C23    C     0.72434   0.91237   0.31678   0.00000  Uiso   1.00
H24    H     0.95591   0.66882   0.49385   0.00000  Uiso   1.00
H25    H     0.08227   0.79560   0.60929   0.00000  Uiso   1.00
H26    H     0.95255   0.44622   0.53095   0.00000  Uiso   1.00
H27    H     0.84047   0.74946   0.33472   0.00000  Uiso   1.00
H28    H     0.21044   0.95993   0.74766   0.00000  Uiso   1.00
H29    H     0.93687   0.22323   0.58246   0.00000  Uiso   1.00
H30    H     0.70053   0.86266   0.16866   0.00000  Uiso   1.00
H31    H     0.86382   0.85214   0.57367   0.00000  Uiso   1.00
H32    H     0.98514   0.98900   0.69350   0.00000  Uiso   1.00
H33    H     0.85541   0.63961   0.61517   0.00000  Uiso   1.00
H34    H     0.74333   0.94285   0.41893   0.00000  Uiso   1.00
H35    H     0.13160   0.11689   0.81601   0.00000  Uiso   1.00
H36    H     0.85803   0.38018   0.65081   0.00000  Uiso   1.00
H37    H     0.62169   0.01963   0.23701   0.00000  Uiso   1.00
O38    O     0.25249   0.12509   0.85924   0.00000  Uiso   1.00
O39    O     0.89358   0.15857   0.64249   0.00000  Uiso   1.00
O40    O     0.58351   0.99751   0.09959   0.00000  Uiso   1.00
N41    N     0.17523   0.97810   0.74729   0.00000  Uiso   1.00
N42    N     0.91947   0.28933   0.59285   0.00000  Uiso   1.00
N43    N     0.69850   0.88713   0.20597   0.00000  Uiso   1.00
N44    N     0.13280   0.06257   0.78407   0.00000  Uiso   1.00
N45    N     0.87705   0.37380   0.62963   0.00000  Uiso   1.00
N46    N     0.65608   0.97159   0.24275   0.00000  Uiso   1.00
C47    C     0.43481   0.21082   0.51213   0.00000  Uiso   1.00
C48    C     0.49070   0.30514   0.58592   0.00000  Uiso   1.00
C49    C     0.56132   0.33738   0.62748   0.00000  Uiso   1.00
C50    C     0.60394   0.42559   0.69345   0.00000  Uiso   1.00
C51    C     0.69486   0.56378   0.80448   0.00000  Uiso   1.00
C52    C     0.42022   0.11531   0.54337   0.00000  Uiso   1.00
C53    C     0.43158   0.98794   0.54915   0.00000  Uiso   1.00
C54    C     0.41487   0.91635   0.57929   0.00000  Uiso   1.00
C55    C     0.39632   0.75982   0.62420   0.00000  Uiso   1.00
C56    C     0.35933   0.28007   0.43676   0.00000  Uiso   1.00
C57    C     0.31948   0.29122   0.35287   0.00000  Uiso   1.00
C58    C     0.25149   0.35833   0.29324   0.00000  Uiso   1.00
C59    C     0.13839   0.45762   0.17261   0.00000  Uiso   1.00
C60    C     0.38492   0.31014   0.55538   0.00000  Uiso   1.00
C61    C     0.46360   0.35908   0.60941   0.00000  Uiso   1.00
C62    C     0.50612   0.44727   0.67533   0.00000  Uiso   1.00
C63    C     0.57680   0.47964   0.71698   0.00000  Uiso   1.00
C64    C     0.39312   0.16925   0.56686   0.00000  Uiso   1.00
C65    C     0.37638   0.09783   0.59700   0.00000  Uiso   1.00
C66    C     0.38772   0.97039   0.60282   0.00000  Uiso   1.00
C67    C     0.33223   0.33403   0.46025   0.00000  Uiso   1.00
C68    C     0.26429   0.40111   0.40073   0.00000  Uiso   1.00
C69    C     0.22434   0.41237   0.31678   0.00000  Uiso   1.00
H70    H     0.45591   0.16882   0.49385   0.00000  Uiso   1.00
H71    H     0.58227   0.29560   0.60929   0.00000  Uiso   1.00
H72    H     0.45255   0.94622   0.53095   0.00000  Uiso   1.00
H73    H     0.34047   0.24946   0.33472   0.00000  Uiso   1.00
H74    H     0.71044   0.45993   0.74766   0.00000  Uiso   1.00
H75    H     0.43687   0.72323   0.58246   0.00000  Uiso   1.00
H76    H     0.20053   0.36266   0.16866   0.00000  Uiso   1.00
H77    H     0.36382   0.35214   0.57367   0.00000  Uiso   1.00
H78    H     0.48514   0.48900   0.69350   0.00000  Uiso   1.00
H79    H     0.35541   0.13961   0.61517   0.00000  Uiso   1.00
H80    H     0.24333   0.44285   0.41893   0.00000  Uiso   1.00
H81    H     0.63160   0.61689   0.81601   0.00000  Uiso   1.00
H82    H     0.35803   0.88018   0.65081   0.00000  Uiso   1.00
H83    H     0.12169   0.51963   0.23701   0.00000  Uiso   1.00
O84    O     0.75249   0.62509   0.85924   0.00000  Uiso   1.00
O85    O     0.39358   0.65857   0.64249   0.00000  Uiso   1.00
O86    O     0.08351   0.49751   0.09959   0.00000  Uiso   1.00
N87    N     0.67523   0.47810   0.74729   0.00000  Uiso   1.00
N88    N     0.41947   0.78933   0.59285   0.00000  Uiso   1.00
N89    N     0.19850   0.38713   0.20597   0.00000  Uiso   1.00
N90    N     0.63280   0.56257   0.78407   0.00000  Uiso   1.00
N91    N     0.37705   0.87380   0.62963   0.00000  Uiso   1.00
N92    N     0.15608   0.47159   0.24275   0.00000  Uiso   1.00
C93    C     0.06519   0.71082   0.98787   0.00000  Uiso   1.00
C94    C     0.00930   0.80514   0.91408   0.00000  Uiso   1.00
C95    C     0.93868   0.83738   0.87252   0.00000  Uiso   1.00
C96    C     0.89606   0.92559   0.80655   0.00000  Uiso   1.00
C97    C     0.80514   0.06378   0.69552   0.00000  Uiso   1.00
C98    C     0.07978   0.61531   0.95663   0.00000  Uiso   1.00
C99    C     0.06842   0.48794   0.95085   0.00000  Uiso   1.00
C100   C     0.08513   0.41635   0.92071   0.00000  Uiso   1.00
C101   C     0.10368   0.25982   0.87580   0.00000  Uiso   1.00
C102   C     0.14067   0.78007   0.06324   0.00000  Uiso   1.00
C103   C     0.18052   0.79122   0.14713   0.00000  Uiso   1.00
C104   C     0.24851   0.85833   0.20676   0.00000  Uiso   1.00
C105   C     0.36161   0.95762   0.32739   0.00000  Uiso   1.00
C106   C     0.11508   0.81014   0.94462   0.00000  Uiso   1.00
C107   C     0.03640   0.85908   0.89059   0.00000  Uiso   1.00
C108   C     0.99388   0.94727   0.82467   0.00000  Uiso   1.00
C109   C     0.92320   0.97964   0.78302   0.00000  Uiso   1.00
C110   C     0.10688   0.66925   0.93314   0.00000  Uiso   1.00
C111   C     0.12362   0.59783   0.90300   0.00000  Uiso   1.00
C112   C     0.11228   0.47039   0.89718   0.00000  Uiso   1.00
C113   C     0.16777   0.83403   0.03975   0.00000  Uiso   1.00
C114   C     0.23571   0.90111   0.09927   0.00000  Uiso   1.00
C115   C     0.27566   0.91237   0.18322   0.00000  Uiso   1.00
H116   H     0.04409   0.66882   0.00615   0.00000  Uiso   1.00
H117   H     0.91773   0.79560   0.89071   0.00000  Uiso   1.00
H118   H     0.04745   0.44622   0.96905   0.00000  Uiso   1.00
H119   H     0.15953   0.74946   0.16528   0.00000  Uiso   1.00
H120   H     0.78956   0.95993   0.75234   0.00000  Uiso   1.00
H121   H     0.06313   0.22323   0.91754   0.00000  Uiso   1.00
H122   H     0.29947   0.86266   0.33134   0.00000  Uiso   1.00
H123   H     0.13618   0.85214   0.92633   0.00000  Uiso   1.00
H124   H     0.01486   0.98900   0.80650   0.00000  Uiso   1.00
H125   H     0.14459   0.63961   0.88483   0.00000  Uiso   1.00
H126   H     0.25667   0.94285   0.08107   0.00000  Uiso   1.00
H127   H     0.86840   0.11689   0.68399   0.00000  Uiso   1.00
H128   H     0.14197   0.38018   0.84919   0.00000  Uiso   1.00
H129   H     0.37831   0.01963   0.26299   0.00000  Uiso   1.00
O130   O     0.74751   0.12509   0.64076   0.00000  Uiso   1.00
O131   O     0.10642   0.15857   0.85751   0.00000  Uiso   1.00
O132   O     0.41649   0.99751   0.40041   0.00000  Uiso   1.00
N133   N     0.82477   0.97810   0.75271   0.00000  Uiso   1.00
N134   N     0.08053   0.28933   0.90715   0.00000  Uiso   1.00
N135   N     0.30150   0.88713   0.29403   0.00000  Uiso   1.00
N136   N     0.86720   0.06257   0.71593   0.00000  Uiso   1.00
N137   N     0.12295   0.37380   0.87037   0.00000  Uiso   1.00
N138   N     0.34392   0.97159   0.25725   0.00000  Uiso   1.00
C139   C     0.56519   0.21082   0.98787   0.00000  Uiso   1.00
C140   C     0.50930   0.30514   0.91408   0.00000  Uiso   1.00
C141   C     0.43868   0.33738   0.87252   0.00000  Uiso   1.00
C142   C     0.39606   0.42559   0.80655   0.00000  Uiso   1.00
C143   C     0.30514   0.56378   0.69552   0.00000  Uiso   1.00
C144   C     0.57978   0.11531   0.95663   0.00000  Uiso   1.00
C145   C     0.56842   0.98794   0.95085   0.00000  Uiso   1.00
C146   C     0.58513   0.91635   0.92071   0.00000  Uiso   1.00
C147   C     0.60368   0.75982   0.87580   0.00000  Uiso   1.00
C148   C     0.64067   0.28007   0.06324   0.00000  Uiso   1.00
C149   C     0.68052   0.29122   0.14713   0.00000  Uiso   1.00
C150   C     0.74851   0.35833   0.20676   0.00000  Uiso   1.00
C151   C     0.86161   0.45762   0.32739   0.00000  Uiso   1.00
C152   C     0.61508   0.31014   0.94462   0.00000  Uiso   1.00
C153   C     0.53640   0.35908   0.89059   0.00000  Uiso   1.00
C154   C     0.49388   0.44727   0.82467   0.00000  Uiso   1.00
C155   C     0.42320   0.47964   0.78302   0.00000  Uiso   1.00
C156   C     0.60688   0.16925   0.93314   0.00000  Uiso   1.00
C157   C     0.62362   0.09783   0.90300   0.00000  Uiso   1.00
C158   C     0.61228   0.97039   0.89718   0.00000  Uiso   1.00
C159   C     0.66777   0.33403   0.03975   0.00000  Uiso   1.00
C160   C     0.73571   0.40111   0.09927   0.00000  Uiso   1.00
C161   C     0.77566   0.41237   0.18322   0.00000  Uiso   1.00
H162   H     0.54409   0.16882   0.00615   0.00000  Uiso   1.00
H163   H     0.41773   0.29560   0.89071   0.00000  Uiso   1.00
H164   H     0.54745   0.94622   0.96905   0.00000  Uiso   1.00
H165   H     0.65953   0.24946   0.16528   0.00000  Uiso   1.00
H166   H     0.28956   0.45993   0.75234   0.00000  Uiso   1.00
H167   H     0.56313   0.72323   0.91754   0.00000  Uiso   1.00
H168   H     0.79947   0.36266   0.33134   0.00000  Uiso   1.00
H169   H     0.63618   0.35214   0.92633   0.00000  Uiso   1.00
H170   H     0.51486   0.48900   0.80650   0.00000  Uiso   1.00
H171   H     0.64459   0.13961   0.88483   0.00000  Uiso   1.00
H172   H     0.75667   0.44285   0.08107   0.00000  Uiso   1.00
H173   H     0.36840   0.61689   0.68399   0.00000  Uiso   1.00
H174   H     0.64197   0.88018   0.84919   0.00000  Uiso   1.00
H175   H     0.87831   0.51963   0.26299   0.00000  Uiso   1.00
O176   O     0.24751   0.62509   0.64076   0.00000  Uiso   1.00
O177   O     0.60642   0.65857   0.85751   0.00000  Uiso   1.00
O178   O     0.91649   0.49751   0.40041   0.00000  Uiso   1.00
N179   N     0.32477   0.47810   0.75271   0.00000  Uiso   1.00
N180   N     0.58053   0.78933   0.90715   0.00000  Uiso   1.00
N181   N     0.80150   0.38713   0.29403   0.00000  Uiso   1.00
N182   N     0.36720   0.56257   0.71593   0.00000  Uiso   1.00
N183   N     0.62295   0.87380   0.87037   0.00000  Uiso   1.00
N184   N     0.84392   0.47159   0.25725   0.00000  Uiso   1.00
C185   C     0.06519   0.28918   0.48787   0.00000  Uiso   1.00
C186   C     0.00930   0.19486   0.41408   0.00000  Uiso   1.00
C187   C     0.93868   0.16262   0.37252   0.00000  Uiso   1.00
C188   C     0.89606   0.07441   0.30655   0.00000  Uiso   1.00
C189   C     0.80514   0.93622   0.19552   0.00000  Uiso   1.00
C190   C     0.07978   0.38469   0.45663   0.00000  Uiso   1.00
C191   C     0.06842   0.51206   0.45085   0.00000  Uiso   1.00
C192   C     0.08513   0.58365   0.42071   0.00000  Uiso   1.00
C193   C     0.10368   0.74018   0.37580   0.00000  Uiso   1.00
C194   C     0.14067   0.21993   0.56324   0.00000  Uiso   1.00
C195   C     0.18052   0.20878   0.64713   0.00000  Uiso   1.00
C196   C     0.24851   0.14167   0.70676   0.00000  Uiso   1.00
C197   C     0.36161   0.04238   0.82739   0.00000  Uiso   1.00
C198   C     0.11508   0.18986   0.44462   0.00000  Uiso   1.00
C199   C     0.03640   0.14092   0.39059   0.00000  Uiso   1.00
C200   C     0.99388   0.05273   0.32467   0.00000  Uiso   1.00
C201   C     0.92320   0.02036   0.28302   0.00000  Uiso   1.00
C202   C     0.10688   0.33075   0.43314   0.00000  Uiso   1.00
C203   C     0.12362   0.40217   0.40300   0.00000  Uiso   1.00
C204   C     0.11228   0.52961   0.39718   0.00000  Uiso   1.00
C205   C     0.16777   0.16597   0.53975   0.00000  Uiso   1.00
C206   C     0.23571   0.09889   0.59927   0.00000  Uiso   1.00
C207   C     0.27566   0.08763   0.68322   0.00000  Uiso   1.00
H208   H     0.04409   0.33118   0.50615   0.00000  Uiso   1.00
H209   H     0.91773   0.20440   0.39071   0.00000  Uiso   1.00
H210   H     0.04745   0.55378   0.46905   0.00000  Uiso   1.00
H211   H     0.15953   0.25054   0.66528   0.00000  Uiso   1.00
H212   H     0.78956   0.04007   0.25234   0.00000  Uiso   1.00
H213   H     0.06313   0.77677   0.41754   0.00000  Uiso   1.00
H214   H     0.29947   0.13734   0.83134   0.00000  Uiso   1.00
H215   H     0.13618   0.14786   0.42633   0.00000  Uiso   1.00
H216   H     0.01486   0.01100   0.30650   0.00000  Uiso   1.00
H217   H     0.14459   0.36039   0.38483   0.00000  Uiso   1.00
H218   H     0.25667   0.05715   0.58107   0.00000  Uiso   1.00
H219   H     0.86840   0.88311   0.18399   0.00000  Uiso   1.00
H220   H     0.14197   0.61982   0.34919   0.00000  Uiso   1.00
H221   H     0.37831   0.98037   0.76299   0.00000  Uiso   1.00
O222   O     0.74751   0.87491   0.14076   0.00000  Uiso   1.00
O223   O     0.10642   0.84143   0.35751   0.00000  Uiso   1.00
O224   O     0.41649   0.00249   0.90041   0.00000  Uiso   1.00
N225   N     0.82477   0.02190   0.25271   0.00000  Uiso   1.00
N226   N     0.08053   0.71067   0.40715   0.00000  Uiso   1.00
N227   N     0.30150   0.11287   0.79403   0.00000  Uiso   1.00
N228   N     0.86720   0.93743   0.21593   0.00000  Uiso   1.00
N229   N     0.12295   0.62620   0.37037   0.00000  Uiso   1.00
N230   N     0.34392   0.02841   0.75725   0.00000  Uiso   1.00
C231   C     0.56519   0.78918   0.48787   0.00000  Uiso   1.00
C232   C     0.50930   0.69486   0.41408   0.00000  Uiso   1.00
C233   C     0.43868   0.66262   0.37252   0.00000  Uiso   1.00
C234   C     0.39606   0.57441   0.30655   0.00000  Uiso   1.00
C235   C     0.30514   0.43622   0.19552   0.00000  Uiso   1.00
C236   C     0.57978   0.88469   0.45663   0.00000  Uiso   1.00
C237   C     0.56842   0.01206   0.45085   0.00000  Uiso   1.00
C238   C     0.58513   0.08365   0.42071   0.00000  Uiso   1.00
C239   C     0.60368   0.24018   0.37580   0.00000  Uiso   1.00
C240   C     0.64067   0.71993   0.56324   0.00000  Uiso   1.00
C241   C     0.68052   0.70878   0.64713   0.00000  Uiso   1.00
C242   C     0.74851   0.64167   0.70676   0.00000  Uiso   1.00
C243   C     0.86161   0.54238   0.82739   0.00000  Uiso   1.00
C244   C     0.61508   0.68986   0.44462   0.00000  Uiso   1.00
C245   C     0.53640   0.64092   0.39059   0.00000  Uiso   1.00
C246   C     0.49388   0.55273   0.32467   0.00000  Uiso   1.00
C247   C     0.42320   0.52036   0.28302   0.00000  Uiso   1.00
C248   C     0.60688   0.83075   0.43314   0.00000  Uiso   1.00
C249   C     0.62362   0.90217   0.40300   0.00000  Uiso   1.00
C250   C     0.61228   0.02961   0.39718   0.00000  Uiso   1.00
C251   C     0.66777   0.66597   0.53975   0.00000  Uiso   1.00
C252   C     0.73571   0.59889   0.59927   0.00000  Uiso   1.00
C253   C     0.77566   0.58763   0.68322   0.00000  Uiso   1.00
H254   H     0.54409   0.83118   0.50615   0.00000  Uiso   1.00
H255   H     0.41773   0.70440   0.39071   0.00000  Uiso   1.00
H256   H     0.54745   0.05378   0.46905   0.00000  Uiso   1.00
H257   H     0.65953   0.75054   0.66528   0.00000  Uiso   1.00
H258   H     0.28956   0.54007   0.25234   0.00000  Uiso   1.00
H259   H     0.56313   0.27677   0.41754   0.00000  Uiso   1.00
H260   H     0.79947   0.63734   0.83134   0.00000  Uiso   1.00
H261   H     0.63618   0.64786   0.42633   0.00000  Uiso   1.00
H262   H     0.51486   0.51100   0.30650   0.00000  Uiso   1.00
H263   H     0.64459   0.86039   0.38483   0.00000  Uiso   1.00
H264   H     0.75667   0.55715   0.58107   0.00000  Uiso   1.00
H265   H     0.36840   0.38311   0.18399   0.00000  Uiso   1.00
H266   H     0.64197   0.11982   0.34919   0.00000  Uiso   1.00
H267   H     0.87831   0.48037   0.76299   0.00000  Uiso   1.00
O268   O     0.24751   0.37491   0.14076   0.00000  Uiso   1.00
O269   O     0.60642   0.34143   0.35751   0.00000  Uiso   1.00
O270   O     0.91649   0.50249   0.90041   0.00000  Uiso   1.00
N271   N     0.32477   0.52190   0.25271   0.00000  Uiso   1.00
N272   N     0.58053   0.21067   0.40715   0.00000  Uiso   1.00
N273   N     0.80150   0.61287   0.79403   0.00000  Uiso   1.00
N274   N     0.36720   0.43743   0.21593   0.00000  Uiso   1.00
N275   N     0.62295   0.12620   0.37037   0.00000  Uiso   1.00
N276   N     0.84392   0.52841   0.75725   0.00000  Uiso   1.00
C277   C     0.93481   0.28918   0.01213   0.00000  Uiso   1.00
C278   C     0.99070   0.19486   0.08592   0.00000  Uiso   1.00
C279   C     0.06132   0.16262   0.12748   0.00000  Uiso   1.00
C280   C     0.10394   0.07441   0.19345   0.00000  Uiso   1.00
C281   C     0.19486   0.93622   0.30448   0.00000  Uiso   1.00
C282   C     0.92022   0.38469   0.04337   0.00000  Uiso   1.00
C283   C     0.93158   0.51206   0.04915   0.00000  Uiso   1.00
C284   C     0.91487   0.58365   0.07929   0.00000  Uiso   1.00
C285   C     0.89632   0.74018   0.12420   0.00000  Uiso   1.00
C286   C     0.85933   0.21993   0.93676   0.00000  Uiso   1.00
C287   C     0.81948   0.20878   0.85287   0.00000  Uiso   1.00
C288   C     0.75149   0.14167   0.79324   0.00000  Uiso   1.00
C289   C     0.63839   0.04238   0.67261   0.00000  Uiso   1.00
C290   C     0.88492   0.18986   0.05538   0.00000  Uiso   1.00
C291   C     0.96360   0.14092   0.10941   0.00000  Uiso   1.00
C292   C     0.00612   0.05273   0.17533   0.00000  Uiso   1.00
C293   C     0.07680   0.02036   0.21698   0.00000  Uiso   1.00
C294   C     0.89312   0.33075   0.06686   0.00000  Uiso   1.00
C295   C     0.87638   0.40217   0.09700   0.00000  Uiso   1.00
C296   C     0.88772   0.52961   0.10282   0.00000  Uiso   1.00
C297   C     0.83223   0.16597   0.96025   0.00000  Uiso   1.00
C298   C     0.76429   0.09889   0.90073   0.00000  Uiso   1.00
C299   C     0.72434   0.08763   0.81678   0.00000  Uiso   1.00
H300   H     0.95591   0.33118   0.99385   0.00000  Uiso   1.00
H301   H     0.08227   0.20440   0.10929   0.00000  Uiso   1.00
H302   H     0.95255   0.55378   0.03095   0.00000  Uiso   1.00
H303   H     0.84047   0.25054   0.83472   0.00000  Uiso   1.00
H304   H     0.21044   0.04007   0.24766   0.00000  Uiso   1.00
H305   H     0.93687   0.77677   0.08246   0.00000  Uiso   1.00
H306   H     0.70053   0.13734   0.66866   0.00000  Uiso   1.00
H307   H     0.86382   0.14786   0.07367   0.00000  Uiso   1.00
H308   H     0.98514   0.01100   0.19350   0.00000  Uiso   1.00
H309   H     0.85541   0.36039   0.11517   0.00000  Uiso   1.00
H310   H     0.74333   0.05715   0.91893   0.00000  Uiso   1.00
H311   H     0.13160   0.88311   0.31601   0.00000  Uiso   1.00
H312   H     0.85803   0.61982   0.15081   0.00000  Uiso   1.00
H313   H     0.62169   0.98037   0.73701   0.00000  Uiso   1.00
O314   O     0.25249   0.87491   0.35924   0.00000  Uiso   1.00
O315   O     0.89358   0.84143   0.14249   0.00000  Uiso   1.00
O316   O     0.58351   0.00249   0.59959   0.00000  Uiso   1.00
N317   N     0.17523   0.02190   0.24729   0.00000  Uiso   1.00
N318   N     0.91947   0.71067   0.09285   0.00000  Uiso   1.00
N319   N     0.69850   0.11287   0.70597   0.00000  Uiso   1.00
N320   N     0.13280   0.93743   0.28407   0.00000  Uiso   1.00
N321   N     0.87705   0.62620   0.12963   0.00000  Uiso   1.00
N322   N     0.65608   0.02841   0.74275   0.00000  Uiso   1.00
C323   C     0.43481   0.78918   0.01213   0.00000  Uiso   1.00
C324   C     0.49070   0.69486   0.08592   0.00000  Uiso   1.00
C325   C     0.56132   0.66262   0.12748   0.00000  Uiso   1.00
C326   C     0.60394   0.57441   0.19345   0.00000  Uiso   1.00
C327   C     0.69486   0.43622   0.30448   0.00000  Uiso   1.00
C328   C     0.42022   0.88469   0.04337   0.00000  Uiso   1.00
C329   C     0.43158   0.01206   0.04915   0.00000  Uiso   1.00
C330   C     0.41487   0.08365   0.07929   0.00000  Uiso   1.00
C331   C     0.39632   0.24018   0.12420   0.00000  Uiso   1.00
C332   C     0.35933   0.71993   0.93676   0.00000  Uiso   1.00
C333   C     0.31948   0.70878   0.85287   0.00000  Uiso   1.00
C334   C     0.25149   0.64167   0.79324   0.00000  Uiso   1.00
C335   C     0.13839   0.54238   0.67261   0.00000  Uiso   1.00
C336   C     0.38492   0.68986   0.05538   0.00000  Uiso   1.00
C337   C     0.46360   0.64092   0.10941   0.00000  Uiso   1.00
C338   C     0.50612   0.55273   0.17533   0.00000  Uiso   1.00
C339   C     0.57680   0.52036   0.21698   0.00000  Uiso   1.00
C340   C     0.39312   0.83075   0.06686   0.00000  Uiso   1.00
C341   C     0.37638   0.90217   0.09700   0.00000  Uiso   1.00
C342   C     0.38772   0.02961   0.10282   0.00000  Uiso   1.00
C343   C     0.33223   0.66597   0.96025   0.00000  Uiso   1.00
C344   C     0.26429   0.59889   0.90073   0.00000  Uiso   1.00
C345   C     0.22434   0.58763   0.81678   0.00000  Uiso   1.00
H346   H     0.45591   0.83118   0.99385   0.00000  Uiso   1.00
H347   H     0.58227   0.70440   0.10929   0.00000  Uiso   1.00
H348   H     0.45255   0.05378   0.03095   0.00000  Uiso   1.00
H349   H     0.34047   0.75054   0.83472   0.00000  Uiso   1.00
H350   H     0.71044   0.54007   0.24766   0.00000  Uiso   1.00
H351   H     0.43687   0.27677   0.08246   0.00000  Uiso   1.00
H352   H     0.20053   0.63734   0.66866   0.00000  Uiso   1.00
H353   H     0.36382   0.64786   0.07367   0.00000  Uiso   1.00
H354   H     0.48514   0.51100   0.19350   0.00000  Uiso   1.00
H355   H     0.35541   0.86039   0.11517   0.00000  Uiso   1.00
H356   H     0.24333   0.55715   0.91893   0.00000  Uiso   1.00
H357   H     0.63160   0.38311   0.31601   0.00000  Uiso   1.00
H358   H     0.35803   0.11982   0.15081   0.00000  Uiso   1.00
H359   H     0.12169   0.48037   0.73701   0.00000  Uiso   1.00
O360   O     0.75249   0.37491   0.35924   0.00000  Uiso   1.00
O361   O     0.39358   0.34143   0.14249   0.00000  Uiso   1.00
O362   O     0.08351   0.50249   0.59959   0.00000  Uiso   1.00
N363   N     0.67523   0.52190   0.24729   0.00000  Uiso   1.00
N364   N     0.41947   0.21067   0.09285   0.00000  Uiso   1.00
N365   N     0.19850   0.61287   0.70597   0.00000  Uiso   1.00
N366   N     0.63280   0.43743   0.28407   0.00000  Uiso   1.00
N367   N     0.37705   0.12620   0.12963   0.00000  Uiso   1.00
N368   N     0.15608   0.52841   0.74275   0.00000  Uiso   1.00
