data_job_01513
_audit_creation_date              2018-12-19
_audit_creation_method            'Materials Studio'
_symmetry_space_group_name_H-M    'P1'
_symmetry_Int_Tables_number       1
_symmetry_cell_setting            triclinic
loop_
_symmetry_equiv_pos_as_xyz
  x,y,z
_cell_length_a                    12.0435
_cell_length_b                    12.0435
_cell_length_c                    33.5310
_cell_angle_alpha                 90.0000
_cell_angle_beta                  90.0000
_cell_angle_gamma                 90.0000
loop_
_atom_site_label
_atom_site_type_symbol
_atom_site_fract_x
_atom_site_fract_y
_atom_site_fract_z
_atom_site_U_iso_or_equiv
_atom_site_adp_type
_atom_site_occupancy
C1     C     0.63274   0.20544   0.39498   0.00000  Uiso   1.00
C2     C     0.56686   0.10449   0.38105   0.00000  Uiso   1.00
C3     C     0.57930   0.05084   0.34470   0.00000  Uiso   1.00
C4     C     0.51111   0.96002   0.33759   0.00000  Uiso   1.00
C5     C     0.42061   0.80875   0.31166   0.00000  Uiso   1.00
C6     C     0.54712   0.29439   0.40507   0.00000  Uiso   1.00
C7     C     0.54297   0.40040   0.38891   0.00000  Uiso   1.00
C8     C     0.45816   0.46944   0.40202   0.00000  Uiso   1.00
C9     C     0.33707   0.61302   0.41340   0.00000  Uiso   1.00
C10    C     0.68609   0.17229   0.43446   0.00000  Uiso   1.00
C11    C     0.79878   0.17566   0.44303   0.00000  Uiso   1.00
C12    C     0.83097   0.14192   0.48090   0.00000  Uiso   1.00
C13    C     0.92565   0.09592   0.53792   0.00000  Uiso   1.00
C14    C     0.48953   0.13956   0.44700   0.00000  Uiso   1.00
C15    C     0.48908   0.06871   0.40931   0.00000  Uiso   1.00
C16    C     0.42085   0.97794   0.40226   0.00000  Uiso   1.00
C17    C     0.43319   0.92416   0.36590   0.00000  Uiso   1.00
C18    C     0.46934   0.25861   0.43333   0.00000  Uiso   1.00
C19    C     0.38452   0.32751   0.44647   0.00000  Uiso   1.00
C20    C     0.38024   0.43359   0.43033   0.00000  Uiso   1.00
C21    C     0.60830   0.13650   0.46272   0.00000  Uiso   1.00
C22    C     0.64033   0.10276   0.50059   0.00000  Uiso   1.00
C23    C     0.75305   0.10608   0.50921   0.00000  Uiso   1.00
H24    H     0.69329   0.23331   0.37298   0.00000  Uiso   1.00
H25    H     0.63950   0.07857   0.32284   0.00000  Uiso   1.00
H26    H     0.60318   0.42808   0.36704   0.00000  Uiso   1.00
H27    H     0.85894   0.20336   0.42115   0.00000  Uiso   1.00
H28    H     0.54552   0.89125   0.27970   0.00000  Uiso   1.00
H29    H     0.46896   0.62822   0.37292   0.00000  Uiso   1.00
H30    H     0.00830   0.15438   0.48702   0.00000  Uiso   1.00
H31    H     0.42897   0.11170   0.46901   0.00000  Uiso   1.00
H32    H     0.36067   0.95027   0.42414   0.00000  Uiso   1.00
H33    H     0.32435   0.29979   0.46834   0.00000  Uiso   1.00
H34    H     0.58012   0.07507   0.52245   0.00000  Uiso   1.00
H35    H     0.31921   0.78712   0.36192   0.00000  Uiso   1.00
H36    H     0.24266   0.52411   0.45514   0.00000  Uiso   1.00
H37    H     0.78199   0.05025   0.56924   0.00000  Uiso   1.00
O38    O     0.39218   0.73521   0.28955   0.00000  Uiso   1.00
O39    O     0.29176   0.70211   0.41186   0.00000  Uiso   1.00
O40    O     0.99935   0.08042   0.56156   0.00000  Uiso   1.00
N41    N     0.50165   0.88888   0.30521   0.00000  Uiso   1.00
N42    N     0.43006   0.57791   0.39237   0.00000  Uiso   1.00
N43    N     0.93430   0.13493   0.49904   0.00000  Uiso   1.00
N44    N     0.37987   0.83285   0.34945   0.00000  Uiso   1.00
N45    N     0.30829   0.52188   0.43661   0.00000  Uiso   1.00
N46    N     0.81252   0.07890   0.54328   0.00000  Uiso   1.00
C47    C     0.36726   0.79456   0.89498   0.00000  Uiso   1.00
C48    C     0.43314   0.89551   0.88105   0.00000  Uiso   1.00
C49    C     0.42070   0.94916   0.84470   0.00000  Uiso   1.00
C50    C     0.48889   0.03998   0.83759   0.00000  Uiso   1.00
C51    C     0.57939   0.19125   0.81166   0.00000  Uiso   1.00
C52    C     0.45288   0.70561   0.90507   0.00000  Uiso   1.00
C53    C     0.45703   0.59960   0.88891   0.00000  Uiso   1.00
C54    C     0.54184   0.53056   0.90202   0.00000  Uiso   1.00
C55    C     0.66293   0.38698   0.91340   0.00000  Uiso   1.00
C56    C     0.31391   0.82771   0.93446   0.00000  Uiso   1.00
C57    C     0.20122   0.82434   0.94303   0.00000  Uiso   1.00
C58    C     0.16903   0.85808   0.98090   0.00000  Uiso   1.00
C59    C     0.07435   0.90408   0.03792   0.00000  Uiso   1.00
C60    C     0.51047   0.86044   0.94700   0.00000  Uiso   1.00
C61    C     0.51092   0.93129   0.90931   0.00000  Uiso   1.00
C62    C     0.57915   0.02206   0.90226   0.00000  Uiso   1.00
C63    C     0.56681   0.07584   0.86590   0.00000  Uiso   1.00
C64    C     0.53066   0.74139   0.93333   0.00000  Uiso   1.00
C65    C     0.61548   0.67249   0.94647   0.00000  Uiso   1.00
C66    C     0.61976   0.56641   0.93033   0.00000  Uiso   1.00
C67    C     0.39170   0.86350   0.96272   0.00000  Uiso   1.00
C68    C     0.35967   0.89724   0.00059   0.00000  Uiso   1.00
C69    C     0.24695   0.89392   0.00921   0.00000  Uiso   1.00
H70    H     0.30671   0.76669   0.87298   0.00000  Uiso   1.00
H71    H     0.36050   0.92143   0.82284   0.00000  Uiso   1.00
H72    H     0.39682   0.57192   0.86704   0.00000  Uiso   1.00
H73    H     0.14106   0.79664   0.92115   0.00000  Uiso   1.00
H74    H     0.45448   0.10875   0.77970   0.00000  Uiso   1.00
H75    H     0.53104   0.37178   0.87292   0.00000  Uiso   1.00
H76    H     0.99170   0.84562   0.98702   0.00000  Uiso   1.00
H77    H     0.57103   0.88830   0.96901   0.00000  Uiso   1.00
H78    H     0.63933   0.04973   0.92414   0.00000  Uiso   1.00
H79    H     0.67565   0.70021   0.96834   0.00000  Uiso   1.00
H80    H     0.41988   0.92493   0.02245   0.00000  Uiso   1.00
H81    H     0.68079   0.21288   0.86192   0.00000  Uiso   1.00
H82    H     0.75734   0.47589   0.95514   0.00000  Uiso   1.00
H83    H     0.21801   0.94975   0.06924   0.00000  Uiso   1.00
O84    O     0.60782   0.26479   0.78955   0.00000  Uiso   1.00
O85    O     0.70824   0.29789   0.91186   0.00000  Uiso   1.00
O86    O     0.00065   0.91958   0.06156   0.00000  Uiso   1.00
N87    N     0.49835   0.11112   0.80521   0.00000  Uiso   1.00
N88    N     0.56994   0.42209   0.89237   0.00000  Uiso   1.00
N89    N     0.06570   0.86507   0.99904   0.00000  Uiso   1.00
N90    N     0.62013   0.16715   0.84945   0.00000  Uiso   1.00
N91    N     0.69171   0.47812   0.93661   0.00000  Uiso   1.00
N92    N     0.18748   0.92110   0.04328   0.00000  Uiso   1.00
C93    C     0.29456   0.13274   0.14498   0.00000  Uiso   1.00
C94    C     0.39551   0.06686   0.13105   0.00000  Uiso   1.00
C95    C     0.44916   0.07930   0.09470   0.00000  Uiso   1.00
C96    C     0.53998   0.01111   0.08759   0.00000  Uiso   1.00
C97    C     0.69125   0.92061   0.06166   0.00000  Uiso   1.00
C98    C     0.20561   0.04712   0.15507   0.00000  Uiso   1.00
C99    C     0.09960   0.04297   0.13891   0.00000  Uiso   1.00
C100   C     0.03056   0.95816   0.15202   0.00000  Uiso   1.00
C101   C     0.88698   0.83707   0.16340   0.00000  Uiso   1.00
C102   C     0.32771   0.18609   0.18446   0.00000  Uiso   1.00
C103   C     0.32434   0.29878   0.19303   0.00000  Uiso   1.00
C104   C     0.35808   0.33097   0.23090   0.00000  Uiso   1.00
C105   C     0.40408   0.42565   0.28792   0.00000  Uiso   1.00
C106   C     0.36044   0.98953   0.19700   0.00000  Uiso   1.00
C107   C     0.43129   0.98908   0.15931   0.00000  Uiso   1.00
C108   C     0.52206   0.92085   0.15226   0.00000  Uiso   1.00
C109   C     0.57584   0.93319   0.11590   0.00000  Uiso   1.00
C110   C     0.24139   0.96934   0.18333   0.00000  Uiso   1.00
C111   C     0.17249   0.88452   0.19647   0.00000  Uiso   1.00
C112   C     0.06641   0.88024   0.18033   0.00000  Uiso   1.00
C113   C     0.36350   0.10830   0.21272   0.00000  Uiso   1.00
C114   C     0.39724   0.14033   0.25059   0.00000  Uiso   1.00
C115   C     0.39392   0.25305   0.25921   0.00000  Uiso   1.00
H116   H     0.26669   0.19329   0.12298   0.00000  Uiso   1.00
H117   H     0.42143   0.13950   0.07284   0.00000  Uiso   1.00
H118   H     0.07192   0.10318   0.11704   0.00000  Uiso   1.00
H119   H     0.29664   0.35894   0.17115   0.00000  Uiso   1.00
H120   H     0.60875   0.04552   0.02970   0.00000  Uiso   1.00
H121   H     0.87178   0.96896   0.12292   0.00000  Uiso   1.00
H122   H     0.34562   0.50830   0.23702   0.00000  Uiso   1.00
H123   H     0.38830   0.92897   0.21901   0.00000  Uiso   1.00
H124   H     0.54973   0.86067   0.17414   0.00000  Uiso   1.00
H125   H     0.20021   0.82435   0.21834   0.00000  Uiso   1.00
H126   H     0.42493   0.08012   0.27245   0.00000  Uiso   1.00
H127   H     0.71288   0.81921   0.11192   0.00000  Uiso   1.00
H128   H     0.97589   0.74266   0.20514   0.00000  Uiso   1.00
H129   H     0.44975   0.28199   0.31924   0.00000  Uiso   1.00
O130   O     0.76479   0.89218   0.03955   0.00000  Uiso   1.00
O131   O     0.79789   0.79176   0.16186   0.00000  Uiso   1.00
O132   O     0.41958   0.49935   0.31156   0.00000  Uiso   1.00
N133   N     0.61112   0.00165   0.05521   0.00000  Uiso   1.00
N134   N     0.92209   0.93006   0.14237   0.00000  Uiso   1.00
N135   N     0.36507   0.43430   0.24904   0.00000  Uiso   1.00
N136   N     0.66715   0.87987   0.09945   0.00000  Uiso   1.00
N137   N     0.97812   0.80829   0.18661   0.00000  Uiso   1.00
N138   N     0.42110   0.31252   0.29328   0.00000  Uiso   1.00
C139   C     0.70544   0.86726   0.64498   0.00000  Uiso   1.00
C140   C     0.60449   0.93314   0.63105   0.00000  Uiso   1.00
C141   C     0.55084   0.92070   0.59470   0.00000  Uiso   1.00
C142   C     0.46002   0.98889   0.58759   0.00000  Uiso   1.00
C143   C     0.30875   0.07939   0.56166   0.00000  Uiso   1.00
C144   C     0.79439   0.95288   0.65507   0.00000  Uiso   1.00
C145   C     0.90040   0.95703   0.63891   0.00000  Uiso   1.00
C146   C     0.96944   0.04184   0.65202   0.00000  Uiso   1.00
C147   C     0.11302   0.16293   0.66340   0.00000  Uiso   1.00
C148   C     0.67229   0.81391   0.68446   0.00000  Uiso   1.00
C149   C     0.67566   0.70122   0.69303   0.00000  Uiso   1.00
C150   C     0.64192   0.66903   0.73090   0.00000  Uiso   1.00
C151   C     0.59592   0.57435   0.78792   0.00000  Uiso   1.00
C152   C     0.63956   0.01047   0.69700   0.00000  Uiso   1.00
C153   C     0.56871   0.01092   0.65931   0.00000  Uiso   1.00
C154   C     0.47794   0.07915   0.65226   0.00000  Uiso   1.00
C155   C     0.42416   0.06681   0.61590   0.00000  Uiso   1.00
C156   C     0.75861   0.03066   0.68333   0.00000  Uiso   1.00
C157   C     0.82751   0.11548   0.69647   0.00000  Uiso   1.00
C158   C     0.93359   0.11976   0.68033   0.00000  Uiso   1.00
C159   C     0.63650   0.89170   0.71272   0.00000  Uiso   1.00
C160   C     0.60276   0.85967   0.75059   0.00000  Uiso   1.00
C161   C     0.60608   0.74695   0.75921   0.00000  Uiso   1.00
H162   H     0.73331   0.80671   0.62298   0.00000  Uiso   1.00
H163   H     0.57857   0.86050   0.57284   0.00000  Uiso   1.00
H164   H     0.92808   0.89682   0.61704   0.00000  Uiso   1.00
H165   H     0.70336   0.64106   0.67115   0.00000  Uiso   1.00
H166   H     0.39125   0.95448   0.52970   0.00000  Uiso   1.00
H167   H     0.12822   0.03104   0.62292   0.00000  Uiso   1.00
H168   H     0.65438   0.49170   0.73702   0.00000  Uiso   1.00
H169   H     0.61170   0.07103   0.71901   0.00000  Uiso   1.00
H170   H     0.45027   0.13933   0.67414   0.00000  Uiso   1.00
H171   H     0.79979   0.17565   0.71834   0.00000  Uiso   1.00
H172   H     0.57507   0.91988   0.77245   0.00000  Uiso   1.00
H173   H     0.28712   0.18079   0.61192   0.00000  Uiso   1.00
H174   H     0.02411   0.25734   0.70514   0.00000  Uiso   1.00
H175   H     0.55025   0.71801   0.81924   0.00000  Uiso   1.00
O176   O     0.23521   0.10782   0.53955   0.00000  Uiso   1.00
O177   O     0.20211   0.20824   0.66186   0.00000  Uiso   1.00
O178   O     0.58042   0.50065   0.81156   0.00000  Uiso   1.00
N179   N     0.38888   0.99835   0.55521   0.00000  Uiso   1.00
N180   N     0.07791   0.06994   0.64237   0.00000  Uiso   1.00
N181   N     0.63493   0.56570   0.74904   0.00000  Uiso   1.00
N182   N     0.33285   0.12013   0.59945   0.00000  Uiso   1.00
N183   N     0.02188   0.19171   0.68661   0.00000  Uiso   1.00
N184   N     0.57890   0.68748   0.79328   0.00000  Uiso   1.00
C185   C     0.86726   0.70544   0.35502   0.00000  Uiso   1.00
C186   C     0.93314   0.60449   0.36895   0.00000  Uiso   1.00
C187   C     0.92070   0.55084   0.40530   0.00000  Uiso   1.00
C188   C     0.98889   0.46002   0.41241   0.00000  Uiso   1.00
C189   C     0.07939   0.30875   0.43834   0.00000  Uiso   1.00
C190   C     0.95288   0.79439   0.34493   0.00000  Uiso   1.00
C191   C     0.95703   0.90040   0.36109   0.00000  Uiso   1.00
C192   C     0.04184   0.96944   0.34798   0.00000  Uiso   1.00
C193   C     0.16293   0.11302   0.33660   0.00000  Uiso   1.00
C194   C     0.81391   0.67229   0.31554   0.00000  Uiso   1.00
C195   C     0.70122   0.67566   0.30697   0.00000  Uiso   1.00
C196   C     0.66903   0.64192   0.26910   0.00000  Uiso   1.00
C197   C     0.57435   0.59592   0.21208   0.00000  Uiso   1.00
C198   C     0.01047   0.63956   0.30300   0.00000  Uiso   1.00
C199   C     0.01092   0.56871   0.34069   0.00000  Uiso   1.00
C200   C     0.07915   0.47794   0.34774   0.00000  Uiso   1.00
C201   C     0.06681   0.42416   0.38410   0.00000  Uiso   1.00
C202   C     0.03066   0.75861   0.31667   0.00000  Uiso   1.00
C203   C     0.11548   0.82751   0.30353   0.00000  Uiso   1.00
C204   C     0.11976   0.93359   0.31967   0.00000  Uiso   1.00
C205   C     0.89170   0.63650   0.28728   0.00000  Uiso   1.00
C206   C     0.85967   0.60276   0.24941   0.00000  Uiso   1.00
C207   C     0.74695   0.60608   0.24079   0.00000  Uiso   1.00
H208   H     0.80671   0.73331   0.37702   0.00000  Uiso   1.00
H209   H     0.86050   0.57857   0.42716   0.00000  Uiso   1.00
H210   H     0.89682   0.92808   0.38296   0.00000  Uiso   1.00
H211   H     0.64106   0.70336   0.32885   0.00000  Uiso   1.00
H212   H     0.95448   0.39125   0.47030   0.00000  Uiso   1.00
H213   H     0.03104   0.12822   0.37708   0.00000  Uiso   1.00
H214   H     0.49170   0.65438   0.26298   0.00000  Uiso   1.00
H215   H     0.07103   0.61170   0.28099   0.00000  Uiso   1.00
H216   H     0.13933   0.45027   0.32586   0.00000  Uiso   1.00
H217   H     0.17565   0.79979   0.28166   0.00000  Uiso   1.00
H218   H     0.91988   0.57507   0.22755   0.00000  Uiso   1.00
H219   H     0.18079   0.28712   0.38808   0.00000  Uiso   1.00
H220   H     0.25734   0.02411   0.29486   0.00000  Uiso   1.00
H221   H     0.71801   0.55025   0.18076   0.00000  Uiso   1.00
O222   O     0.10782   0.23521   0.46045   0.00000  Uiso   1.00
O223   O     0.20824   0.20211   0.33814   0.00000  Uiso   1.00
O224   O     0.50065   0.58042   0.18844   0.00000  Uiso   1.00
N225   N     0.99835   0.38888   0.44479   0.00000  Uiso   1.00
N226   N     0.06994   0.07791   0.35763   0.00000  Uiso   1.00
N227   N     0.56570   0.63493   0.25096   0.00000  Uiso   1.00
N228   N     0.12013   0.33285   0.40055   0.00000  Uiso   1.00
N229   N     0.19171   0.02188   0.31339   0.00000  Uiso   1.00
N230   N     0.68748   0.57890   0.20672   0.00000  Uiso   1.00
C231   C     0.13274   0.29456   0.85502   0.00000  Uiso   1.00
C232   C     0.06686   0.39551   0.86895   0.00000  Uiso   1.00
C233   C     0.07930   0.44916   0.90530   0.00000  Uiso   1.00
C234   C     0.01111   0.53998   0.91241   0.00000  Uiso   1.00
C235   C     0.92061   0.69125   0.93834   0.00000  Uiso   1.00
C236   C     0.04712   0.20561   0.84493   0.00000  Uiso   1.00
C237   C     0.04297   0.09960   0.86109   0.00000  Uiso   1.00
C238   C     0.95816   0.03056   0.84798   0.00000  Uiso   1.00
C239   C     0.83707   0.88698   0.83660   0.00000  Uiso   1.00
C240   C     0.18609   0.32771   0.81554   0.00000  Uiso   1.00
C241   C     0.29878   0.32434   0.80697   0.00000  Uiso   1.00
C242   C     0.33097   0.35808   0.76910   0.00000  Uiso   1.00
C243   C     0.42565   0.40408   0.71208   0.00000  Uiso   1.00
C244   C     0.98953   0.36044   0.80300   0.00000  Uiso   1.00
C245   C     0.98908   0.43129   0.84069   0.00000  Uiso   1.00
C246   C     0.92085   0.52206   0.84774   0.00000  Uiso   1.00
C247   C     0.93319   0.57584   0.88410   0.00000  Uiso   1.00
C248   C     0.96934   0.24139   0.81667   0.00000  Uiso   1.00
C249   C     0.88452   0.17249   0.80353   0.00000  Uiso   1.00
C250   C     0.88024   0.06641   0.81967   0.00000  Uiso   1.00
C251   C     0.10830   0.36350   0.78728   0.00000  Uiso   1.00
C252   C     0.14033   0.39724   0.74941   0.00000  Uiso   1.00
C253   C     0.25305   0.39392   0.74079   0.00000  Uiso   1.00
H254   H     0.19329   0.26669   0.87702   0.00000  Uiso   1.00
H255   H     0.13950   0.42143   0.92716   0.00000  Uiso   1.00
H256   H     0.10318   0.07192   0.88296   0.00000  Uiso   1.00
H257   H     0.35894   0.29664   0.82885   0.00000  Uiso   1.00
H258   H     0.04552   0.60875   0.97030   0.00000  Uiso   1.00
H259   H     0.96896   0.87178   0.87708   0.00000  Uiso   1.00
H260   H     0.50830   0.34562   0.76298   0.00000  Uiso   1.00
H261   H     0.92897   0.38830   0.78099   0.00000  Uiso   1.00
H262   H     0.86067   0.54973   0.82586   0.00000  Uiso   1.00
H263   H     0.82435   0.20021   0.78166   0.00000  Uiso   1.00
H264   H     0.08012   0.42493   0.72755   0.00000  Uiso   1.00
H265   H     0.81921   0.71288   0.88808   0.00000  Uiso   1.00
H266   H     0.74266   0.97589   0.79486   0.00000  Uiso   1.00
H267   H     0.28199   0.44975   0.68076   0.00000  Uiso   1.00
O268   O     0.89218   0.76479   0.96045   0.00000  Uiso   1.00
O269   O     0.79176   0.79789   0.83814   0.00000  Uiso   1.00
O270   O     0.49935   0.41958   0.68844   0.00000  Uiso   1.00
N271   N     0.00165   0.61112   0.94479   0.00000  Uiso   1.00
N272   N     0.93006   0.92209   0.85763   0.00000  Uiso   1.00
N273   N     0.43430   0.36507   0.75096   0.00000  Uiso   1.00
N274   N     0.87987   0.66715   0.90055   0.00000  Uiso   1.00
N275   N     0.80829   0.97812   0.81339   0.00000  Uiso   1.00
N276   N     0.31252   0.42110   0.70672   0.00000  Uiso   1.00
C277   C     0.20544   0.63274   0.60502   0.00000  Uiso   1.00
C278   C     0.10449   0.56686   0.61895   0.00000  Uiso   1.00
C279   C     0.05084   0.57930   0.65530   0.00000  Uiso   1.00
C280   C     0.96002   0.51111   0.66241   0.00000  Uiso   1.00
C281   C     0.80875   0.42061   0.68834   0.00000  Uiso   1.00
C282   C     0.29439   0.54712   0.59493   0.00000  Uiso   1.00
C283   C     0.40040   0.54297   0.61109   0.00000  Uiso   1.00
C284   C     0.46944   0.45816   0.59798   0.00000  Uiso   1.00
C285   C     0.61302   0.33707   0.58660   0.00000  Uiso   1.00
C286   C     0.17229   0.68609   0.56554   0.00000  Uiso   1.00
C287   C     0.17566   0.79878   0.55697   0.00000  Uiso   1.00
C288   C     0.14192   0.83097   0.51910   0.00000  Uiso   1.00
C289   C     0.09592   0.92565   0.46208   0.00000  Uiso   1.00
C290   C     0.13956   0.48953   0.55300   0.00000  Uiso   1.00
C291   C     0.06871   0.48908   0.59069   0.00000  Uiso   1.00
C292   C     0.97794   0.42085   0.59774   0.00000  Uiso   1.00
C293   C     0.92416   0.43319   0.63410   0.00000  Uiso   1.00
C294   C     0.25861   0.46934   0.56667   0.00000  Uiso   1.00
C295   C     0.32751   0.38452   0.55353   0.00000  Uiso   1.00
C296   C     0.43359   0.38024   0.56967   0.00000  Uiso   1.00
C297   C     0.13650   0.60830   0.53728   0.00000  Uiso   1.00
C298   C     0.10276   0.64033   0.49941   0.00000  Uiso   1.00
C299   C     0.10608   0.75305   0.49079   0.00000  Uiso   1.00
H300   H     0.23331   0.69329   0.62702   0.00000  Uiso   1.00
H301   H     0.07857   0.63950   0.67716   0.00000  Uiso   1.00
H302   H     0.42808   0.60318   0.63296   0.00000  Uiso   1.00
H303   H     0.20336   0.85894   0.57885   0.00000  Uiso   1.00
H304   H     0.89125   0.54552   0.72030   0.00000  Uiso   1.00
H305   H     0.62822   0.46896   0.62708   0.00000  Uiso   1.00
H306   H     0.15438   0.00830   0.51298   0.00000  Uiso   1.00
H307   H     0.11170   0.42897   0.53099   0.00000  Uiso   1.00
H308   H     0.95027   0.36067   0.57586   0.00000  Uiso   1.00
H309   H     0.29979   0.32435   0.53166   0.00000  Uiso   1.00
H310   H     0.07507   0.58012   0.47755   0.00000  Uiso   1.00
H311   H     0.78712   0.31921   0.63808   0.00000  Uiso   1.00
H312   H     0.52411   0.24266   0.54486   0.00000  Uiso   1.00
H313   H     0.05025   0.78199   0.43076   0.00000  Uiso   1.00
O314   O     0.73521   0.39218   0.71045   0.00000  Uiso   1.00
O315   O     0.70211   0.29176   0.58814   0.00000  Uiso   1.00
O316   O     0.08042   0.99935   0.43844   0.00000  Uiso   1.00
N317   N     0.88888   0.50165   0.69479   0.00000  Uiso   1.00
N318   N     0.57791   0.43006   0.60763   0.00000  Uiso   1.00
N319   N     0.13493   0.93430   0.50096   0.00000  Uiso   1.00
N320   N     0.83285   0.37987   0.65055   0.00000  Uiso   1.00
N321   N     0.52188   0.30829   0.56339   0.00000  Uiso   1.00
N322   N     0.07890   0.81252   0.45672   0.00000  Uiso   1.00
C323   C     0.79456   0.36726   0.10502   0.00000  Uiso   1.00
C324   C     0.89551   0.43314   0.11895   0.00000  Uiso   1.00
C325   C     0.94916   0.42070   0.15530   0.00000  Uiso   1.00
C326   C     0.03998   0.48889   0.16241   0.00000  Uiso   1.00
C327   C     0.19125   0.57939   0.18834   0.00000  Uiso   1.00
C328   C     0.70561   0.45288   0.09493   0.00000  Uiso   1.00
C329   C     0.59960   0.45703   0.11109   0.00000  Uiso   1.00
C330   C     0.53056   0.54184   0.09798   0.00000  Uiso   1.00
C331   C     0.38698   0.66293   0.08660   0.00000  Uiso   1.00
C332   C     0.82771   0.31391   0.06554   0.00000  Uiso   1.00
C333   C     0.82434   0.20122   0.05697   0.00000  Uiso   1.00
C334   C     0.85808   0.16903   0.01910   0.00000  Uiso   1.00
C335   C     0.90408   0.07435   0.96208   0.00000  Uiso   1.00
C336   C     0.86044   0.51047   0.05300   0.00000  Uiso   1.00
C337   C     0.93129   0.51092   0.09069   0.00000  Uiso   1.00
C338   C     0.02206   0.57915   0.09774   0.00000  Uiso   1.00
C339   C     0.07584   0.56681   0.13410   0.00000  Uiso   1.00
C340   C     0.74139   0.53066   0.06667   0.00000  Uiso   1.00
C341   C     0.67249   0.61548   0.05353   0.00000  Uiso   1.00
C342   C     0.56641   0.61976   0.06967   0.00000  Uiso   1.00
C343   C     0.86350   0.39170   0.03728   0.00000  Uiso   1.00
C344   C     0.89724   0.35967   0.99941   0.00000  Uiso   1.00
C345   C     0.89392   0.24695   0.99079   0.00000  Uiso   1.00
H346   H     0.76669   0.30671   0.12702   0.00000  Uiso   1.00
H347   H     0.92143   0.36050   0.17716   0.00000  Uiso   1.00
H348   H     0.57192   0.39682   0.13296   0.00000  Uiso   1.00
H349   H     0.79664   0.14106   0.07885   0.00000  Uiso   1.00
H350   H     0.10875   0.45448   0.22030   0.00000  Uiso   1.00
H351   H     0.37178   0.53104   0.12708   0.00000  Uiso   1.00
H352   H     0.84562   0.99170   0.01298   0.00000  Uiso   1.00
H353   H     0.88830   0.57103   0.03099   0.00000  Uiso   1.00
H354   H     0.04973   0.63933   0.07586   0.00000  Uiso   1.00
H355   H     0.70021   0.67565   0.03166   0.00000  Uiso   1.00
H356   H     0.92493   0.41988   0.97755   0.00000  Uiso   1.00
H357   H     0.21288   0.68079   0.13808   0.00000  Uiso   1.00
H358   H     0.47589   0.75734   0.04486   0.00000  Uiso   1.00
H359   H     0.94975   0.21801   0.93076   0.00000  Uiso   1.00
O360   O     0.26479   0.60782   0.21045   0.00000  Uiso   1.00
O361   O     0.29789   0.70824   0.08814   0.00000  Uiso   1.00
O362   O     0.91958   0.00065   0.93844   0.00000  Uiso   1.00
N363   N     0.11112   0.49835   0.19479   0.00000  Uiso   1.00
N364   N     0.42209   0.56994   0.10763   0.00000  Uiso   1.00
N365   N     0.86507   0.06570   0.00096   0.00000  Uiso   1.00
N366   N     0.16715   0.62013   0.15055   0.00000  Uiso   1.00
N367   N     0.47812   0.69171   0.06339   0.00000  Uiso   1.00
N368   N     0.92110   0.18748   0.95672   0.00000  Uiso   1.00
