data_job_05377
_audit_creation_date              2018-12-19
_audit_creation_method            'Materials Studio'
_symmetry_space_group_name_H-M    'P1'
_symmetry_Int_Tables_number       1
_symmetry_cell_setting            triclinic
loop_
_symmetry_equiv_pos_as_xyz
  x,y,z
_cell_length_a                    11.4787
_cell_length_b                    28.4530
_cell_length_c                    11.4141
_cell_angle_alpha                 90.0000
_cell_angle_beta                  114.1541
_cell_angle_gamma                 90.0000
loop_
_atom_site_label
_atom_site_type_symbol
_atom_site_fract_x
_atom_site_fract_y
_atom_site_fract_z
_atom_site_U_iso_or_equiv
_atom_site_adp_type
_atom_site_occupancy
C1     C     0.69186   0.62818   0.21964   0.00000  Uiso   1.00
C2     C     0.61436   0.63470   0.07582   0.00000  Uiso   1.00
C3     C     0.54060   0.67367   0.01783   0.00000  Uiso   1.00
C4     C     0.47695   0.67289   0.88495   0.00000  Uiso   1.00
C5     C     0.35508   0.68885   0.67262   0.00000  Uiso   1.00
C6     C     0.64486   0.58248   0.25518   0.00000  Uiso   1.00
C7     C     0.59676   0.57754   0.34801   0.00000  Uiso   1.00
C8     C     0.55880   0.53279   0.36614   0.00000  Uiso   1.00
C9     C     0.48437   0.46767   0.43234   0.00000  Uiso   1.00
C10    C     0.82877   0.61890   0.23687   0.00000  Uiso   1.00
C11    C     0.93531   0.64458   0.31433   0.00000  Uiso   1.00
C12    C     0.05220   0.63048   0.31706   0.00000  Uiso   1.00
C13    C     0.26330   0.62191   0.35482   0.00000  Uiso   1.00
C14    C     0.71001   0.55748   0.08679   0.00000  Uiso   1.00
C15    C     0.62422   0.59630   0.00366   0.00000  Uiso   1.00
C16    C     0.56068   0.59546   0.87084   0.00000  Uiso   1.00
C17    C     0.48683   0.63442   0.81266   0.00000  Uiso   1.00
C18    C     0.65472   0.54408   0.18303   0.00000  Uiso   1.00
C19    C     0.61684   0.49932   0.20103   0.00000  Uiso   1.00
C20    C     0.56868   0.49432   0.29385   0.00000  Uiso   1.00
C21    C     0.83863   0.58050   0.16471   0.00000  Uiso   1.00
C22    C     0.95538   0.56636   0.16733   0.00000  Uiso   1.00
C23    C     0.06207   0.59201   0.24477   0.00000  Uiso   1.00
H24    H     0.68418   0.65807   0.27582   0.00000  Uiso   1.00
H25    H     0.53299   0.70338   0.07371   0.00000  Uiso   1.00
H26    H     0.58915   0.60726   0.40385   0.00000  Uiso   1.00
H27    H     0.92764   0.67429   0.37015   0.00000  Uiso   1.00
H28    H     0.36967   0.73667   0.81780   0.00000  Uiso   1.00
H29    H     0.48814   0.53400   0.51396   0.00000  Uiso   1.00
H30    H     0.20191   0.67534   0.44291   0.00000  Uiso   1.00
H31    H     0.71768   0.52758   0.03061   0.00000  Uiso   1.00
H32    H     0.56832   0.56573   0.81502   0.00000  Uiso   1.00
H33    H     0.62448   0.46961   0.14517   0.00000  Uiso   1.00
H34    H     0.96297   0.53664   0.11148   0.00000  Uiso   1.00
H35    H     0.39834   0.62495   0.60785   0.00000  Uiso   1.00
H36    H     0.51682   0.42228   0.30401   0.00000  Uiso   1.00
H37    H     0.23058   0.56362   0.23296   0.00000  Uiso   1.00
O38    O     0.28512   0.70826   0.57544   0.00000  Uiso   1.00
O39    O     0.44057   0.44236   0.48879   0.00000  Uiso   1.00
O40    O     0.37701   0.62779   0.39557   0.00000  Uiso   1.00
N41    N     0.39694   0.70515   0.79797   0.00000  Uiso   1.00
N42    N     0.50768   0.51566   0.44882   0.00000  Uiso   1.00
N43    N     0.17500   0.64780   0.38243   0.00000  Uiso   1.00
N44    N     0.41237   0.64503   0.68500   0.00000  Uiso   1.00
N45    N     0.52311   0.45555   0.33585   0.00000  Uiso   1.00
N46    N     0.19043   0.58768   0.26946   0.00000  Uiso   1.00
C47    C     0.09022   0.36688   0.81741   0.00000  Uiso   1.00
C48    C     0.94722   0.36080   0.73853   0.00000  Uiso   1.00
C49    C     0.88916   0.32217   0.66296   0.00000  Uiso   1.00
C50    C     0.75712   0.32333   0.59826   0.00000  Uiso   1.00
C51    C     0.54593   0.30805   0.47410   0.00000  Uiso   1.00
C52    C     0.12685   0.41272   0.77195   0.00000  Uiso   1.00
C53    C     0.21983   0.41774   0.72449   0.00000  Uiso   1.00
C54    C     0.23902   0.46261   0.68794   0.00000  Uiso   1.00
C55    C     0.30677   0.52793   0.61577   0.00000  Uiso   1.00
C56    C     0.10664   0.37563   0.95511   0.00000  Uiso   1.00
C57    C     0.18266   0.34947   0.06167   0.00000  Uiso   1.00
C58    C     0.18484   0.36313   0.17934   0.00000  Uiso   1.00
C59    C     0.22122   0.37087   0.39156   0.00000  Uiso   1.00
C60    C     0.95897   0.43765   0.83690   0.00000  Uiso   1.00
C61    C     0.87593   0.39924   0.74911   0.00000  Uiso   1.00
C62    C     0.74394   0.40046   0.68452   0.00000  Uiso   1.00
C63    C     0.68570   0.36184   0.60886   0.00000  Uiso   1.00
C64    C     0.05556   0.45115   0.78253   0.00000  Uiso   1.00
C65    C     0.07462   0.49603   0.74605   0.00000  Uiso   1.00
C66    C     0.16760   0.50111   0.69855   0.00000  Uiso   1.00
C67    C     0.03534   0.41407   0.96570   0.00000  Uiso   1.00
C68    C     0.03743   0.42777   0.08323   0.00000  Uiso   1.00
C69    C     0.11343   0.40164   0.18995   0.00000  Uiso   1.00
H70    H     0.14572   0.33696   0.80917   0.00000  Uiso   1.00
H71    H     0.94437   0.29243   0.65478   0.00000  Uiso   1.00
H72    H     0.27499   0.38799   0.71632   0.00000  Uiso   1.00
H73    H     0.23781   0.31973   0.05345   0.00000  Uiso   1.00
H74    H     0.68969   0.26002   0.48824   0.00000  Uiso   1.00
H75    H     0.38687   0.46150   0.61805   0.00000  Uiso   1.00
H76    H     0.30846   0.31758   0.32894   0.00000  Uiso   1.00
H77    H     0.90346   0.46757   0.84514   0.00000  Uiso   1.00
H78    H     0.68880   0.43021   0.69272   0.00000  Uiso   1.00
H79    H     0.01944   0.52577   0.75426   0.00000  Uiso   1.00
H80    H     0.98225   0.45751   0.09139   0.00000  Uiso   1.00
H81    H     0.48226   0.37185   0.51903   0.00000  Uiso   1.00
H82    H     0.17945   0.57333   0.64884   0.00000  Uiso   1.00
H83    H     0.10104   0.42941   0.35973   0.00000  Uiso   1.00
O84    O     0.44914   0.28901   0.40268   0.00000  Uiso   1.00
O85    O     0.36383   0.55335   0.57301   0.00000  Uiso   1.00
O86    O     0.26096   0.36452   0.50568   0.00000  Uiso   1.00
N87    N     0.67033   0.29146   0.51642   0.00000  Uiso   1.00
N88    N     0.32214   0.47984   0.63777   0.00000  Uiso   1.00
N89    N     0.24886   0.34529   0.30240   0.00000  Uiso   1.00
N90    N     0.55871   0.35164   0.53299   0.00000  Uiso   1.00
N91    N     0.21052   0.54001   0.65434   0.00000  Uiso   1.00
N92    N     0.13725   0.40546   0.31897   0.00000  Uiso   1.00
C93    C     0.30814   0.12818   0.78036   0.00000  Uiso   1.00
C94    C     0.38564   0.13470   0.92418   0.00000  Uiso   1.00
C95    C     0.45940   0.17367   0.98217   0.00000  Uiso   1.00
C96    C     0.52305   0.17289   0.11505   0.00000  Uiso   1.00
C97    C     0.64492   0.18885   0.32738   0.00000  Uiso   1.00
C98    C     0.35514   0.08248   0.74482   0.00000  Uiso   1.00
C99    C     0.40324   0.07754   0.65199   0.00000  Uiso   1.00
C100   C     0.44120   0.03279   0.63386   0.00000  Uiso   1.00
C101   C     0.51563   0.96767   0.56766   0.00000  Uiso   1.00
C102   C     0.17123   0.11890   0.76313   0.00000  Uiso   1.00
C103   C     0.06469   0.14458   0.68567   0.00000  Uiso   1.00
C104   C     0.94780   0.13048   0.68294   0.00000  Uiso   1.00
C105   C     0.73670   0.12191   0.64518   0.00000  Uiso   1.00
C106   C     0.28999   0.05748   0.91321   0.00000  Uiso   1.00
C107   C     0.37578   0.09630   0.99634   0.00000  Uiso   1.00
C108   C     0.43932   0.09546   0.12916   0.00000  Uiso   1.00
C109   C     0.51317   0.13442   0.18734   0.00000  Uiso   1.00
C110   C     0.34528   0.04408   0.81697   0.00000  Uiso   1.00
C111   C     0.38316   0.99932   0.79897   0.00000  Uiso   1.00
C112   C     0.43132   0.99432   0.70615   0.00000  Uiso   1.00
C113   C     0.16137   0.08050   0.83529   0.00000  Uiso   1.00
C114   C     0.04462   0.06636   0.83267   0.00000  Uiso   1.00
C115   C     0.93793   0.09201   0.75523   0.00000  Uiso   1.00
H116   H     0.31582   0.15807   0.72418   0.00000  Uiso   1.00
H117   H     0.46701   0.20338   0.92629   0.00000  Uiso   1.00
H118   H     0.41085   0.10726   0.59615   0.00000  Uiso   1.00
H119   H     0.07236   0.17429   0.62985   0.00000  Uiso   1.00
H120   H     0.63033   0.23667   0.18220   0.00000  Uiso   1.00
H121   H     0.51186   0.03400   0.48604   0.00000  Uiso   1.00
H122   H     0.79809   0.17534   0.55709   0.00000  Uiso   1.00
H123   H     0.28232   0.02758   0.96939   0.00000  Uiso   1.00
H124   H     0.43168   0.06573   0.18498   0.00000  Uiso   1.00
H125   H     0.37552   0.96961   0.85483   0.00000  Uiso   1.00
H126   H     0.03703   0.03664   0.88852   0.00000  Uiso   1.00
H127   H     0.60166   0.12495   0.39215   0.00000  Uiso   1.00
H128   H     0.48318   0.92228   0.69599   0.00000  Uiso   1.00
H129   H     0.76942   0.06362   0.76704   0.00000  Uiso   1.00
O130   O     0.71488   0.20826   0.42456   0.00000  Uiso   1.00
O131   O     0.55943   0.94236   0.51121   0.00000  Uiso   1.00
O132   O     0.62299   0.12779   0.60443   0.00000  Uiso   1.00
N133   N     0.60306   0.20515   0.20203   0.00000  Uiso   1.00
N134   N     0.49232   0.01566   0.55118   0.00000  Uiso   1.00
N135   N     0.82500   0.14780   0.61757   0.00000  Uiso   1.00
N136   N     0.58763   0.14503   0.31500   0.00000  Uiso   1.00
N137   N     0.47689   0.95555   0.66415   0.00000  Uiso   1.00
N138   N     0.80957   0.08768   0.73054   0.00000  Uiso   1.00
C139   C     0.90978   0.86688   0.18259   0.00000  Uiso   1.00
C140   C     0.05278   0.86080   0.26147   0.00000  Uiso   1.00
C141   C     0.11084   0.82217   0.33704   0.00000  Uiso   1.00
C142   C     0.24288   0.82333   0.40174   0.00000  Uiso   1.00
C143   C     0.45407   0.80805   0.52590   0.00000  Uiso   1.00
C144   C     0.87315   0.91272   0.22805   0.00000  Uiso   1.00
C145   C     0.78017   0.91774   0.27551   0.00000  Uiso   1.00
C146   C     0.76098   0.96261   0.31206   0.00000  Uiso   1.00
C147   C     0.69323   0.02793   0.38423   0.00000  Uiso   1.00
C148   C     0.89336   0.87563   0.04489   0.00000  Uiso   1.00
C149   C     0.81734   0.84947   0.93833   0.00000  Uiso   1.00
C150   C     0.81516   0.86313   0.82066   0.00000  Uiso   1.00
C151   C     0.77878   0.87087   0.60844   0.00000  Uiso   1.00
C152   C     0.04103   0.93765   0.16310   0.00000  Uiso   1.00
C153   C     0.12407   0.89924   0.25089   0.00000  Uiso   1.00
C154   C     0.25606   0.90046   0.31548   0.00000  Uiso   1.00
C155   C     0.31430   0.86184   0.39114   0.00000  Uiso   1.00
C156   C     0.94444   0.95115   0.21747   0.00000  Uiso   1.00
C157   C     0.92538   0.99603   0.25395   0.00000  Uiso   1.00
C158   C     0.83240   0.00111   0.30145   0.00000  Uiso   1.00
C159   C     0.96466   0.91407   0.03430   0.00000  Uiso   1.00
C160   C     0.96257   0.92777   0.91677   0.00000  Uiso   1.00
C161   C     0.88657   0.90164   0.81005   0.00000  Uiso   1.00
H162   H     0.85428   0.83696   0.19083   0.00000  Uiso   1.00
H163   H     0.05563   0.79243   0.34522   0.00000  Uiso   1.00
H164   H     0.72501   0.88799   0.28368   0.00000  Uiso   1.00
H165   H     0.76219   0.81973   0.94655   0.00000  Uiso   1.00
H166   H     0.31031   0.76002   0.51176   0.00000  Uiso   1.00
H167   H     0.61313   0.96150   0.38195   0.00000  Uiso   1.00
H168   H     0.69154   0.81758   0.67106   0.00000  Uiso   1.00
H169   H     0.09654   0.96757   0.15486   0.00000  Uiso   1.00
H170   H     0.31120   0.93021   0.30728   0.00000  Uiso   1.00
H171   H     0.98056   0.02577   0.24574   0.00000  Uiso   1.00
H172   H     0.01775   0.95751   0.90861   0.00000  Uiso   1.00
H173   H     0.51774   0.87185   0.48097   0.00000  Uiso   1.00
H174   H     0.82055   0.07333   0.35116   0.00000  Uiso   1.00
H175   H     0.89896   0.92941   0.64027   0.00000  Uiso   1.00
O176   O     0.55086   0.78901   0.59732   0.00000  Uiso   1.00
O177   O     0.63617   0.05335   0.42699   0.00000  Uiso   1.00
O178   O     0.73904   0.86452   0.49432   0.00000  Uiso   1.00
N179   N     0.32967   0.79146   0.48358   0.00000  Uiso   1.00
N180   N     0.67786   0.97984   0.36223   0.00000  Uiso   1.00
N181   N     0.75114   0.84529   0.69760   0.00000  Uiso   1.00
N182   N     0.44129   0.85164   0.46701   0.00000  Uiso   1.00
N183   N     0.78948   0.04001   0.34566   0.00000  Uiso   1.00
N184   N     0.86275   0.90546   0.68103   0.00000  Uiso   1.00
