data_job_05106
_audit_creation_date              2018-12-19
_audit_creation_method            'Materials Studio'
_symmetry_space_group_name_H-M    'P1'
_symmetry_Int_Tables_number       1
_symmetry_cell_setting            triclinic
loop_
_symmetry_equiv_pos_as_xyz
  x,y,z
_cell_length_a                    13.5183
_cell_length_b                    22.6311
_cell_length_c                    27.7461
_cell_angle_alpha                 90.0000
_cell_angle_beta                  49.5897
_cell_angle_gamma                 90.0000
loop_
_atom_site_label
_atom_site_type_symbol
_atom_site_fract_x
_atom_site_fract_y
_atom_site_fract_z
_atom_site_U_iso_or_equiv
_atom_site_adp_type
_atom_site_occupancy
C1     C     0.31627   0.86299   0.83129   0.00000  Uiso   1.00
C2     C     0.33040   0.87357   0.88084   0.00000  Uiso   1.00
C3     C     0.44216   0.89275   0.86874   0.00000  Uiso   1.00
C4     C     0.43535   0.89971   0.92054   0.00000  Uiso   1.00
C5     C     0.47474   0.91791   0.98811   0.00000  Uiso   1.00
C6     C     0.27120   0.79915   0.84002   0.00000  Uiso   1.00
C7     C     0.33317   0.75578   0.79358   0.00000  Uiso   1.00
C8     C     0.27650   0.70011   0.81101   0.00000  Uiso   1.00
C9     C     0.22392   0.60279   0.81518   0.00000  Uiso   1.00
C10    C     0.20272   0.90134   0.85079   0.00000  Uiso   1.00
C11    C     0.20709   0.94387   0.81341   0.00000  Uiso   1.00
C12    C     0.09276   0.97422   0.83992   0.00000  Uiso   1.00
C13    C     0.93385   0.03555   0.86082   0.00000  Uiso   1.00
C14    C     0.10543   0.84125   0.94481   0.00000  Uiso   1.00
C15    C     0.21588   0.86175   0.94251   0.00000  Uiso   1.00
C16    C     0.20890   0.86870   0.99434   0.00000  Uiso   1.00
C17    C     0.32063   0.88789   0.98232   0.00000  Uiso   1.00
C18    C     0.15668   0.78734   0.90167   0.00000  Uiso   1.00
C19    C     0.09990   0.73173   0.91918   0.00000  Uiso   1.00
C20    C     0.16178   0.68828   0.87278   0.00000  Uiso   1.00
C21    C     0.08819   0.88953   0.91246   0.00000  Uiso   1.00
C22    C     0.97383   0.91981   0.93902   0.00000  Uiso   1.00
C23    C     0.97803   0.96238   0.90169   0.00000  Uiso   1.00
H24    H     0.40542   0.87218   0.78328   0.00000  Uiso   1.00
H25    H     0.53077   0.90188   0.82101   0.00000  Uiso   1.00
H26    H     0.42178   0.76493   0.74586   0.00000  Uiso   1.00
H27    H     0.29573   0.95299   0.76570   0.00000  Uiso   1.00
H28    H     0.61926   0.92958   0.89004   0.00000  Uiso   1.00
H29    H     0.38943   0.64083   0.73157   0.00000  Uiso   1.00
H30    H     0.12361   0.03739   0.77340   0.00000  Uiso   1.00
H31    H     0.01626   0.83205   0.99282   0.00000  Uiso   1.00
H32    H     0.12026   0.85955   0.04206   0.00000  Uiso   1.00
H33    H     0.01128   0.72260   0.96690   0.00000  Uiso   1.00
H34    H     0.88522   0.91066   0.98674   0.00000  Uiso   1.00
H35    H     0.28607   0.89522   0.06945   0.00000  Uiso   1.00
H36    H     0.05624   0.60647   0.91098   0.00000  Uiso   1.00
H37    H     0.79043   0.00303   0.95281   0.00000  Uiso   1.00
O38    O     0.52811   0.93120   0.00835   0.00000  Uiso   1.00
O39    O     0.22657   0.55237   0.80044   0.00000  Uiso   1.00
O40    O     0.87784   0.07265   0.85532   0.00000  Uiso   1.00
N41    N     0.52656   0.91773   0.92551   0.00000  Uiso   1.00
N42    N     0.31170   0.64776   0.77735   0.00000  Uiso   1.00
N43    N     0.06318   0.01850   0.81645   0.00000  Uiso   1.00
N44    N     0.34728   0.89924   0.02204   0.00000  Uiso   1.00
N45    N     0.13241   0.62928   0.87389   0.00000  Uiso   1.00
N46    N     0.88389   0.00001   0.91299   0.00000  Uiso   1.00
C47    C     0.81627   0.36299   0.83129   0.00000  Uiso   1.00
C48    C     0.83040   0.37357   0.88084   0.00000  Uiso   1.00
C49    C     0.94216   0.39275   0.86874   0.00000  Uiso   1.00
C50    C     0.93535   0.39971   0.92054   0.00000  Uiso   1.00
C51    C     0.97474   0.41791   0.98811   0.00000  Uiso   1.00
C52    C     0.77120   0.29915   0.84002   0.00000  Uiso   1.00
C53    C     0.83317   0.25578   0.79358   0.00000  Uiso   1.00
C54    C     0.77650   0.20011   0.81101   0.00000  Uiso   1.00
C55    C     0.72392   0.10279   0.81518   0.00000  Uiso   1.00
C56    C     0.70272   0.40134   0.85079   0.00000  Uiso   1.00
C57    C     0.70709   0.44387   0.81341   0.00000  Uiso   1.00
C58    C     0.59276   0.47422   0.83992   0.00000  Uiso   1.00
C59    C     0.43385   0.53555   0.86082   0.00000  Uiso   1.00
C60    C     0.60543   0.34125   0.94481   0.00000  Uiso   1.00
C61    C     0.71588   0.36175   0.94251   0.00000  Uiso   1.00
C62    C     0.70890   0.36870   0.99434   0.00000  Uiso   1.00
C63    C     0.82063   0.38789   0.98232   0.00000  Uiso   1.00
C64    C     0.65668   0.28734   0.90167   0.00000  Uiso   1.00
C65    C     0.59990   0.23173   0.91918   0.00000  Uiso   1.00
C66    C     0.66178   0.18828   0.87278   0.00000  Uiso   1.00
C67    C     0.58819   0.38953   0.91246   0.00000  Uiso   1.00
C68    C     0.47383   0.41981   0.93902   0.00000  Uiso   1.00
C69    C     0.47803   0.46238   0.90169   0.00000  Uiso   1.00
H70    H     0.90542   0.37218   0.78328   0.00000  Uiso   1.00
H71    H     0.03077   0.40188   0.82101   0.00000  Uiso   1.00
H72    H     0.92178   0.26493   0.74586   0.00000  Uiso   1.00
H73    H     0.79573   0.45299   0.76570   0.00000  Uiso   1.00
H74    H     0.11926   0.42958   0.89004   0.00000  Uiso   1.00
H75    H     0.88943   0.14083   0.73157   0.00000  Uiso   1.00
H76    H     0.62361   0.53739   0.77340   0.00000  Uiso   1.00
H77    H     0.51626   0.33205   0.99282   0.00000  Uiso   1.00
H78    H     0.62026   0.35955   0.04206   0.00000  Uiso   1.00
H79    H     0.51128   0.22260   0.96690   0.00000  Uiso   1.00
H80    H     0.38522   0.41066   0.98674   0.00000  Uiso   1.00
H81    H     0.78607   0.39522   0.06945   0.00000  Uiso   1.00
H82    H     0.55624   0.10647   0.91098   0.00000  Uiso   1.00
H83    H     0.29043   0.50303   0.95281   0.00000  Uiso   1.00
O84    O     0.02811   0.43120   0.00835   0.00000  Uiso   1.00
O85    O     0.72657   0.05237   0.80044   0.00000  Uiso   1.00
O86    O     0.37784   0.57265   0.85532   0.00000  Uiso   1.00
N87    N     0.02656   0.41773   0.92551   0.00000  Uiso   1.00
N88    N     0.81170   0.14776   0.77735   0.00000  Uiso   1.00
N89    N     0.56318   0.51850   0.81645   0.00000  Uiso   1.00
N90    N     0.84728   0.39924   0.02204   0.00000  Uiso   1.00
N91    N     0.63241   0.12928   0.87389   0.00000  Uiso   1.00
N92    N     0.38389   0.50001   0.91299   0.00000  Uiso   1.00
C93    C     0.68373   0.86299   0.66871   0.00000  Uiso   1.00
C94    C     0.66960   0.87357   0.61916   0.00000  Uiso   1.00
C95    C     0.55784   0.89275   0.63126   0.00000  Uiso   1.00
C96    C     0.56465   0.89971   0.57946   0.00000  Uiso   1.00
C97    C     0.52526   0.91791   0.51189   0.00000  Uiso   1.00
C98    C     0.72880   0.79915   0.65998   0.00000  Uiso   1.00
C99    C     0.66683   0.75578   0.70642   0.00000  Uiso   1.00
C100   C     0.72350   0.70011   0.68899   0.00000  Uiso   1.00
C101   C     0.77608   0.60279   0.68482   0.00000  Uiso   1.00
C102   C     0.79728   0.90134   0.64921   0.00000  Uiso   1.00
C103   C     0.79291   0.94387   0.68659   0.00000  Uiso   1.00
C104   C     0.90724   0.97422   0.66008   0.00000  Uiso   1.00
C105   C     0.06615   0.03555   0.63918   0.00000  Uiso   1.00
C106   C     0.89457   0.84125   0.55519   0.00000  Uiso   1.00
C107   C     0.78412   0.86175   0.55749   0.00000  Uiso   1.00
C108   C     0.79110   0.86870   0.50566   0.00000  Uiso   1.00
C109   C     0.67937   0.88789   0.51768   0.00000  Uiso   1.00
C110   C     0.84332   0.78734   0.59833   0.00000  Uiso   1.00
C111   C     0.90010   0.73173   0.58082   0.00000  Uiso   1.00
C112   C     0.83822   0.68828   0.62722   0.00000  Uiso   1.00
C113   C     0.91181   0.88953   0.58754   0.00000  Uiso   1.00
C114   C     0.02617   0.91981   0.56098   0.00000  Uiso   1.00
C115   C     0.02197   0.96238   0.59831   0.00000  Uiso   1.00
H116   H     0.59458   0.87218   0.71672   0.00000  Uiso   1.00
H117   H     0.46923   0.90188   0.67899   0.00000  Uiso   1.00
H118   H     0.57822   0.76493   0.75414   0.00000  Uiso   1.00
H119   H     0.70427   0.95299   0.73430   0.00000  Uiso   1.00
H120   H     0.38074   0.92958   0.60996   0.00000  Uiso   1.00
H121   H     0.61057   0.64083   0.76843   0.00000  Uiso   1.00
H122   H     0.87639   0.03739   0.72660   0.00000  Uiso   1.00
H123   H     0.98374   0.83205   0.50718   0.00000  Uiso   1.00
H124   H     0.87974   0.85955   0.45794   0.00000  Uiso   1.00
H125   H     0.98872   0.72260   0.53310   0.00000  Uiso   1.00
H126   H     0.11478   0.91066   0.51326   0.00000  Uiso   1.00
H127   H     0.71393   0.89522   0.43055   0.00000  Uiso   1.00
H128   H     0.94376   0.60647   0.58902   0.00000  Uiso   1.00
H129   H     0.20957   0.00303   0.54719   0.00000  Uiso   1.00
O130   O     0.47189   0.93120   0.49165   0.00000  Uiso   1.00
O131   O     0.77343   0.55237   0.69956   0.00000  Uiso   1.00
O132   O     0.12216   0.07265   0.64468   0.00000  Uiso   1.00
N133   N     0.47344   0.91773   0.57449   0.00000  Uiso   1.00
N134   N     0.68830   0.64776   0.72265   0.00000  Uiso   1.00
N135   N     0.93682   0.01850   0.68355   0.00000  Uiso   1.00
N136   N     0.65272   0.89924   0.47796   0.00000  Uiso   1.00
N137   N     0.86759   0.62928   0.62611   0.00000  Uiso   1.00
N138   N     0.11611   0.00001   0.58701   0.00000  Uiso   1.00
C139   C     0.18373   0.36299   0.66871   0.00000  Uiso   1.00
C140   C     0.16960   0.37357   0.61916   0.00000  Uiso   1.00
C141   C     0.05784   0.39275   0.63126   0.00000  Uiso   1.00
C142   C     0.06465   0.39971   0.57946   0.00000  Uiso   1.00
C143   C     0.02526   0.41791   0.51189   0.00000  Uiso   1.00
C144   C     0.22880   0.29915   0.65998   0.00000  Uiso   1.00
C145   C     0.16683   0.25578   0.70642   0.00000  Uiso   1.00
C146   C     0.22350   0.20011   0.68899   0.00000  Uiso   1.00
C147   C     0.27608   0.10279   0.68482   0.00000  Uiso   1.00
C148   C     0.29728   0.40134   0.64921   0.00000  Uiso   1.00
C149   C     0.29291   0.44387   0.68659   0.00000  Uiso   1.00
C150   C     0.40724   0.47422   0.66008   0.00000  Uiso   1.00
C151   C     0.56615   0.53555   0.63918   0.00000  Uiso   1.00
C152   C     0.39457   0.34125   0.55519   0.00000  Uiso   1.00
C153   C     0.28412   0.36175   0.55749   0.00000  Uiso   1.00
C154   C     0.29110   0.36870   0.50566   0.00000  Uiso   1.00
C155   C     0.17937   0.38789   0.51768   0.00000  Uiso   1.00
C156   C     0.34332   0.28734   0.59833   0.00000  Uiso   1.00
C157   C     0.40010   0.23173   0.58082   0.00000  Uiso   1.00
C158   C     0.33822   0.18828   0.62722   0.00000  Uiso   1.00
C159   C     0.41181   0.38953   0.58754   0.00000  Uiso   1.00
C160   C     0.52617   0.41981   0.56098   0.00000  Uiso   1.00
C161   C     0.52197   0.46238   0.59831   0.00000  Uiso   1.00
H162   H     0.09458   0.37218   0.71672   0.00000  Uiso   1.00
H163   H     0.96923   0.40188   0.67899   0.00000  Uiso   1.00
H164   H     0.07822   0.26493   0.75414   0.00000  Uiso   1.00
H165   H     0.20427   0.45299   0.73430   0.00000  Uiso   1.00
H166   H     0.88074   0.42958   0.60996   0.00000  Uiso   1.00
H167   H     0.11057   0.14083   0.76843   0.00000  Uiso   1.00
H168   H     0.37639   0.53739   0.72660   0.00000  Uiso   1.00
H169   H     0.48374   0.33205   0.50718   0.00000  Uiso   1.00
H170   H     0.37974   0.35955   0.45794   0.00000  Uiso   1.00
H171   H     0.48872   0.22260   0.53310   0.00000  Uiso   1.00
H172   H     0.61478   0.41066   0.51326   0.00000  Uiso   1.00
H173   H     0.21393   0.39522   0.43055   0.00000  Uiso   1.00
H174   H     0.44376   0.10647   0.58902   0.00000  Uiso   1.00
H175   H     0.70957   0.50303   0.54719   0.00000  Uiso   1.00
O176   O     0.97189   0.43120   0.49165   0.00000  Uiso   1.00
O177   O     0.27343   0.05237   0.69956   0.00000  Uiso   1.00
O178   O     0.62216   0.57265   0.64468   0.00000  Uiso   1.00
N179   N     0.97344   0.41773   0.57449   0.00000  Uiso   1.00
N180   N     0.18830   0.14776   0.72265   0.00000  Uiso   1.00
N181   N     0.43682   0.51850   0.68355   0.00000  Uiso   1.00
N182   N     0.15272   0.39924   0.47796   0.00000  Uiso   1.00
N183   N     0.36759   0.12928   0.62611   0.00000  Uiso   1.00
N184   N     0.61611   0.50001   0.58701   0.00000  Uiso   1.00
C185   C     0.68373   0.13701   0.16871   0.00000  Uiso   1.00
C186   C     0.66960   0.12643   0.11916   0.00000  Uiso   1.00
C187   C     0.55784   0.10725   0.13126   0.00000  Uiso   1.00
C188   C     0.56465   0.10029   0.07946   0.00000  Uiso   1.00
C189   C     0.52526   0.08209   0.01189   0.00000  Uiso   1.00
C190   C     0.72880   0.20085   0.15998   0.00000  Uiso   1.00
C191   C     0.66683   0.24422   0.20642   0.00000  Uiso   1.00
C192   C     0.72350   0.29989   0.18899   0.00000  Uiso   1.00
C193   C     0.77608   0.39721   0.18482   0.00000  Uiso   1.00
C194   C     0.79728   0.09866   0.14921   0.00000  Uiso   1.00
C195   C     0.79291   0.05613   0.18659   0.00000  Uiso   1.00
C196   C     0.90724   0.02578   0.16008   0.00000  Uiso   1.00
C197   C     0.06615   0.96445   0.13918   0.00000  Uiso   1.00
C198   C     0.89457   0.15875   0.05519   0.00000  Uiso   1.00
C199   C     0.78412   0.13825   0.05749   0.00000  Uiso   1.00
C200   C     0.79110   0.13130   0.00566   0.00000  Uiso   1.00
C201   C     0.67937   0.11211   0.01768   0.00000  Uiso   1.00
C202   C     0.84332   0.21266   0.09833   0.00000  Uiso   1.00
C203   C     0.90010   0.26827   0.08082   0.00000  Uiso   1.00
C204   C     0.83822   0.31172   0.12722   0.00000  Uiso   1.00
C205   C     0.91181   0.11047   0.08754   0.00000  Uiso   1.00
C206   C     0.02617   0.08019   0.06098   0.00000  Uiso   1.00
C207   C     0.02197   0.03762   0.09831   0.00000  Uiso   1.00
H208   H     0.59458   0.12782   0.21672   0.00000  Uiso   1.00
H209   H     0.46923   0.09812   0.17899   0.00000  Uiso   1.00
H210   H     0.57822   0.23507   0.25414   0.00000  Uiso   1.00
H211   H     0.70427   0.04701   0.23430   0.00000  Uiso   1.00
H212   H     0.38074   0.07042   0.10996   0.00000  Uiso   1.00
H213   H     0.61057   0.35917   0.26843   0.00000  Uiso   1.00
H214   H     0.87639   0.96261   0.22660   0.00000  Uiso   1.00
H215   H     0.98374   0.16795   0.00718   0.00000  Uiso   1.00
H216   H     0.87974   0.14045   0.95794   0.00000  Uiso   1.00
H217   H     0.98872   0.27740   0.03310   0.00000  Uiso   1.00
H218   H     0.11478   0.08934   0.01326   0.00000  Uiso   1.00
H219   H     0.71393   0.10478   0.93055   0.00000  Uiso   1.00
H220   H     0.94376   0.39353   0.08902   0.00000  Uiso   1.00
H221   H     0.20957   0.99697   0.04719   0.00000  Uiso   1.00
O222   O     0.47189   0.06880   0.99165   0.00000  Uiso   1.00
O223   O     0.77343   0.44763   0.19956   0.00000  Uiso   1.00
O224   O     0.12216   0.92735   0.14468   0.00000  Uiso   1.00
N225   N     0.47344   0.08227   0.07449   0.00000  Uiso   1.00
N226   N     0.68830   0.35224   0.22265   0.00000  Uiso   1.00
N227   N     0.93682   0.98150   0.18355   0.00000  Uiso   1.00
N228   N     0.65272   0.10076   0.97796   0.00000  Uiso   1.00
N229   N     0.86759   0.37072   0.12611   0.00000  Uiso   1.00
N230   N     0.11611   0.99999   0.08701   0.00000  Uiso   1.00
C231   C     0.18373   0.63701   0.16871   0.00000  Uiso   1.00
C232   C     0.16960   0.62643   0.11916   0.00000  Uiso   1.00
C233   C     0.05784   0.60725   0.13126   0.00000  Uiso   1.00
C234   C     0.06465   0.60029   0.07946   0.00000  Uiso   1.00
C235   C     0.02526   0.58209   0.01189   0.00000  Uiso   1.00
C236   C     0.22880   0.70085   0.15998   0.00000  Uiso   1.00
C237   C     0.16683   0.74422   0.20642   0.00000  Uiso   1.00
C238   C     0.22350   0.79989   0.18899   0.00000  Uiso   1.00
C239   C     0.27608   0.89721   0.18482   0.00000  Uiso   1.00
C240   C     0.29728   0.59866   0.14921   0.00000  Uiso   1.00
C241   C     0.29291   0.55613   0.18659   0.00000  Uiso   1.00
C242   C     0.40724   0.52578   0.16008   0.00000  Uiso   1.00
C243   C     0.56615   0.46445   0.13918   0.00000  Uiso   1.00
C244   C     0.39457   0.65875   0.05519   0.00000  Uiso   1.00
C245   C     0.28412   0.63825   0.05749   0.00000  Uiso   1.00
C246   C     0.29110   0.63130   0.00566   0.00000  Uiso   1.00
C247   C     0.17937   0.61211   0.01768   0.00000  Uiso   1.00
C248   C     0.34332   0.71266   0.09833   0.00000  Uiso   1.00
C249   C     0.40010   0.76827   0.08082   0.00000  Uiso   1.00
C250   C     0.33822   0.81172   0.12722   0.00000  Uiso   1.00
C251   C     0.41181   0.61047   0.08754   0.00000  Uiso   1.00
C252   C     0.52617   0.58019   0.06098   0.00000  Uiso   1.00
C253   C     0.52197   0.53762   0.09831   0.00000  Uiso   1.00
H254   H     0.09458   0.62782   0.21672   0.00000  Uiso   1.00
H255   H     0.96923   0.59812   0.17899   0.00000  Uiso   1.00
H256   H     0.07822   0.73507   0.25414   0.00000  Uiso   1.00
H257   H     0.20427   0.54701   0.23430   0.00000  Uiso   1.00
H258   H     0.88074   0.57042   0.10996   0.00000  Uiso   1.00
H259   H     0.11057   0.85917   0.26843   0.00000  Uiso   1.00
H260   H     0.37639   0.46261   0.22660   0.00000  Uiso   1.00
H261   H     0.48374   0.66795   0.00718   0.00000  Uiso   1.00
H262   H     0.37974   0.64045   0.95794   0.00000  Uiso   1.00
H263   H     0.48872   0.77740   0.03310   0.00000  Uiso   1.00
H264   H     0.61478   0.58934   0.01326   0.00000  Uiso   1.00
H265   H     0.21393   0.60478   0.93055   0.00000  Uiso   1.00
H266   H     0.44376   0.89353   0.08902   0.00000  Uiso   1.00
H267   H     0.70957   0.49697   0.04719   0.00000  Uiso   1.00
O268   O     0.97189   0.56880   0.99165   0.00000  Uiso   1.00
O269   O     0.27343   0.94763   0.19956   0.00000  Uiso   1.00
O270   O     0.62216   0.42735   0.14468   0.00000  Uiso   1.00
N271   N     0.97344   0.58227   0.07449   0.00000  Uiso   1.00
N272   N     0.18830   0.85224   0.22265   0.00000  Uiso   1.00
N273   N     0.43682   0.48150   0.18355   0.00000  Uiso   1.00
N274   N     0.15272   0.60076   0.97796   0.00000  Uiso   1.00
N275   N     0.36759   0.87072   0.12611   0.00000  Uiso   1.00
N276   N     0.61611   0.49999   0.08701   0.00000  Uiso   1.00
C277   C     0.31627   0.13701   0.33129   0.00000  Uiso   1.00
C278   C     0.33040   0.12643   0.38084   0.00000  Uiso   1.00
C279   C     0.44216   0.10725   0.36874   0.00000  Uiso   1.00
C280   C     0.43535   0.10029   0.42054   0.00000  Uiso   1.00
C281   C     0.47474   0.08209   0.48811   0.00000  Uiso   1.00
C282   C     0.27120   0.20085   0.34002   0.00000  Uiso   1.00
C283   C     0.33317   0.24422   0.29358   0.00000  Uiso   1.00
C284   C     0.27650   0.29989   0.31101   0.00000  Uiso   1.00
C285   C     0.22392   0.39721   0.31518   0.00000  Uiso   1.00
C286   C     0.20272   0.09866   0.35079   0.00000  Uiso   1.00
C287   C     0.20709   0.05613   0.31341   0.00000  Uiso   1.00
C288   C     0.09276   0.02578   0.33992   0.00000  Uiso   1.00
C289   C     0.93385   0.96445   0.36082   0.00000  Uiso   1.00
C290   C     0.10543   0.15875   0.44481   0.00000  Uiso   1.00
C291   C     0.21588   0.13825   0.44251   0.00000  Uiso   1.00
C292   C     0.20890   0.13130   0.49434   0.00000  Uiso   1.00
C293   C     0.32063   0.11211   0.48232   0.00000  Uiso   1.00
C294   C     0.15668   0.21266   0.40167   0.00000  Uiso   1.00
C295   C     0.09990   0.26827   0.41918   0.00000  Uiso   1.00
C296   C     0.16178   0.31172   0.37278   0.00000  Uiso   1.00
C297   C     0.08819   0.11047   0.41246   0.00000  Uiso   1.00
C298   C     0.97383   0.08019   0.43902   0.00000  Uiso   1.00
C299   C     0.97803   0.03762   0.40169   0.00000  Uiso   1.00
H300   H     0.40542   0.12782   0.28328   0.00000  Uiso   1.00
H301   H     0.53077   0.09812   0.32101   0.00000  Uiso   1.00
H302   H     0.42178   0.23507   0.24586   0.00000  Uiso   1.00
H303   H     0.29573   0.04701   0.26570   0.00000  Uiso   1.00
H304   H     0.61926   0.07042   0.39004   0.00000  Uiso   1.00
H305   H     0.38943   0.35917   0.23157   0.00000  Uiso   1.00
H306   H     0.12361   0.96261   0.27340   0.00000  Uiso   1.00
H307   H     0.01626   0.16795   0.49282   0.00000  Uiso   1.00
H308   H     0.12026   0.14045   0.54206   0.00000  Uiso   1.00
H309   H     0.01128   0.27740   0.46690   0.00000  Uiso   1.00
H310   H     0.88522   0.08934   0.48674   0.00000  Uiso   1.00
H311   H     0.28607   0.10478   0.56945   0.00000  Uiso   1.00
H312   H     0.05624   0.39353   0.41098   0.00000  Uiso   1.00
H313   H     0.79043   0.99697   0.45281   0.00000  Uiso   1.00
O314   O     0.52811   0.06880   0.50835   0.00000  Uiso   1.00
O315   O     0.22657   0.44763   0.30044   0.00000  Uiso   1.00
O316   O     0.87784   0.92735   0.35532   0.00000  Uiso   1.00
N317   N     0.52656   0.08227   0.42551   0.00000  Uiso   1.00
N318   N     0.31170   0.35224   0.27735   0.00000  Uiso   1.00
N319   N     0.06318   0.98150   0.31645   0.00000  Uiso   1.00
N320   N     0.34728   0.10076   0.52204   0.00000  Uiso   1.00
N321   N     0.13241   0.37072   0.37389   0.00000  Uiso   1.00
N322   N     0.88389   0.99999   0.41299   0.00000  Uiso   1.00
C323   C     0.81627   0.63701   0.33129   0.00000  Uiso   1.00
C324   C     0.83040   0.62643   0.38084   0.00000  Uiso   1.00
C325   C     0.94216   0.60725   0.36874   0.00000  Uiso   1.00
C326   C     0.93535   0.60029   0.42054   0.00000  Uiso   1.00
C327   C     0.97474   0.58209   0.48811   0.00000  Uiso   1.00
C328   C     0.77120   0.70085   0.34002   0.00000  Uiso   1.00
C329   C     0.83317   0.74422   0.29358   0.00000  Uiso   1.00
C330   C     0.77650   0.79989   0.31101   0.00000  Uiso   1.00
C331   C     0.72392   0.89721   0.31518   0.00000  Uiso   1.00
C332   C     0.70272   0.59866   0.35079   0.00000  Uiso   1.00
C333   C     0.70709   0.55613   0.31341   0.00000  Uiso   1.00
C334   C     0.59276   0.52578   0.33992   0.00000  Uiso   1.00
C335   C     0.43385   0.46445   0.36082   0.00000  Uiso   1.00
C336   C     0.60543   0.65875   0.44481   0.00000  Uiso   1.00
C337   C     0.71588   0.63825   0.44251   0.00000  Uiso   1.00
C338   C     0.70890   0.63130   0.49434   0.00000  Uiso   1.00
C339   C     0.82063   0.61211   0.48232   0.00000  Uiso   1.00
C340   C     0.65668   0.71266   0.40167   0.00000  Uiso   1.00
C341   C     0.59990   0.76827   0.41918   0.00000  Uiso   1.00
C342   C     0.66178   0.81172   0.37278   0.00000  Uiso   1.00
C343   C     0.58819   0.61047   0.41246   0.00000  Uiso   1.00
C344   C     0.47383   0.58019   0.43902   0.00000  Uiso   1.00
C345   C     0.47803   0.53762   0.40169   0.00000  Uiso   1.00
H346   H     0.90542   0.62782   0.28328   0.00000  Uiso   1.00
H347   H     0.03077   0.59812   0.32101   0.00000  Uiso   1.00
H348   H     0.92178   0.73507   0.24586   0.00000  Uiso   1.00
H349   H     0.79573   0.54701   0.26570   0.00000  Uiso   1.00
H350   H     0.11926   0.57042   0.39004   0.00000  Uiso   1.00
H351   H     0.88943   0.85917   0.23157   0.00000  Uiso   1.00
H352   H     0.62361   0.46261   0.27340   0.00000  Uiso   1.00
H353   H     0.51626   0.66795   0.49282   0.00000  Uiso   1.00
H354   H     0.62026   0.64045   0.54206   0.00000  Uiso   1.00
H355   H     0.51128   0.77740   0.46690   0.00000  Uiso   1.00
H356   H     0.38522   0.58934   0.48674   0.00000  Uiso   1.00
H357   H     0.78607   0.60478   0.56945   0.00000  Uiso   1.00
H358   H     0.55624   0.89353   0.41098   0.00000  Uiso   1.00
H359   H     0.29043   0.49697   0.45281   0.00000  Uiso   1.00
O360   O     0.02811   0.56880   0.50835   0.00000  Uiso   1.00
O361   O     0.72657   0.94763   0.30044   0.00000  Uiso   1.00
O362   O     0.37784   0.42735   0.35532   0.00000  Uiso   1.00
N363   N     0.02656   0.58227   0.42551   0.00000  Uiso   1.00
N364   N     0.81170   0.85224   0.27735   0.00000  Uiso   1.00
N365   N     0.56318   0.48150   0.31645   0.00000  Uiso   1.00
N366   N     0.84728   0.60076   0.52204   0.00000  Uiso   1.00
N367   N     0.63241   0.87072   0.37389   0.00000  Uiso   1.00
N368   N     0.38389   0.49999   0.41299   0.00000  Uiso   1.00
