data_job_05246
_audit_creation_date              2018-12-19
_audit_creation_method            'Materials Studio'
_symmetry_space_group_name_H-M    'P1'
_symmetry_Int_Tables_number       1
_symmetry_cell_setting            triclinic
loop_
_symmetry_equiv_pos_as_xyz
  x,y,z
_cell_length_a                    20.0251
_cell_length_b                    14.6612
_cell_length_c                    12.3379
_cell_angle_alpha                 90.0000
_cell_angle_beta                  57.3688
_cell_angle_gamma                 90.0000
loop_
_atom_site_label
_atom_site_type_symbol
_atom_site_fract_x
_atom_site_fract_y
_atom_site_fract_z
_atom_site_U_iso_or_equiv
_atom_site_adp_type
_atom_site_occupancy
C1     C     0.19419   0.45539   0.64404   0.00000  Uiso   1.00
C2     C     0.21618   0.38434   0.70991   0.00000  Uiso   1.00
C3     C     0.25075   0.40226   0.77949   0.00000  Uiso   1.00
C4     C     0.26626   0.32789   0.83226   0.00000  Uiso   1.00
C5     C     0.30325   0.23111   0.93697   0.00000  Uiso   1.00
C6     C     0.23713   0.42722   0.50296   0.00000  Uiso   1.00
C7     C     0.28931   0.48121   0.39854   0.00000  Uiso   1.00
C8     C     0.32245   0.44294   0.27711   0.00000  Uiso   1.00
C9     C     0.39191   0.41276   0.06052   0.00000  Uiso   1.00
C10    C     0.10603   0.44224   0.69867   0.00000  Uiso   1.00
C11    C     0.04796   0.50886   0.75878   0.00000  Uiso   1.00
C12    C     0.97072   0.48324   0.80209   0.00000  Uiso   1.00
C13    C     0.83662   0.47639   0.88937   0.00000  Uiso   1.00
C14    C     0.16027   0.29143   0.61404   0.00000  Uiso   1.00
C15    C     0.19776   0.29529   0.69361   0.00000  Uiso   1.00
C16    C     0.21322   0.22086   0.74630   0.00000  Uiso   1.00
C17    C     0.24780   0.23867   0.81594   0.00000  Uiso   1.00
C18    C     0.21871   0.33817   0.48666   0.00000  Uiso   1.00
C19    C     0.25178   0.29981   0.36535   0.00000  Uiso   1.00
C20    C     0.30399   0.35372   0.26078   0.00000  Uiso   1.00
C21    C     0.08760   0.35319   0.68238   0.00000  Uiso   1.00
C22    C     0.01043   0.32746   0.72559   0.00000  Uiso   1.00
C23    C     0.95226   0.39403   0.78576   0.00000  Uiso   1.00
H24    H     0.20854   0.52472   0.65671   0.00000  Uiso   1.00
H25    H     0.26501   0.47119   0.79206   0.00000  Uiso   1.00
H26    H     0.30355   0.55013   0.41118   0.00000  Uiso   1.00
H27    H     0.06224   0.57777   0.77137   0.00000  Uiso   1.00
H28    H     0.31951   0.37256   0.93490   0.00000  Uiso   1.00
H29    H     0.40076   0.53902   0.13179   0.00000  Uiso   1.00
H30    H     0.89191   0.59731   0.89131   0.00000  Uiso   1.00
H31    H     0.14593   0.22210   0.60135   0.00000  Uiso   1.00
H32    H     0.19896   0.15196   0.73367   0.00000  Uiso   1.00
H33    H     0.23750   0.23090   0.35278   0.00000  Uiso   1.00
H34    H     0.99620   0.25854   0.71297   0.00000  Uiso   1.00
H35    H     0.26591   0.11346   0.88750   0.00000  Uiso   1.00
H36    H     0.34715   0.27992   0.08438   0.00000  Uiso   1.00
H37    H     0.83831   0.33821   0.84391   0.00000  Uiso   1.00
O38    O     0.32875   0.20233   0.99921   0.00000  Uiso   1.00
O39    O     0.43532   0.42072   0.94555   0.00000  Uiso   1.00
O40    O     0.76774   0.49720   0.94203   0.00000  Uiso   1.00
N41    N     0.29960   0.32121   0.90561   0.00000  Uiso   1.00
N42    N     0.37557   0.47683   0.15474   0.00000  Uiso   1.00
N43    N     0.89985   0.53134   0.86480   0.00000  Uiso   1.00
N44    N     0.27076   0.18179   0.88010   0.00000  Uiso   1.00
N45    N     0.34673   0.33741   0.12924   0.00000  Uiso   1.00
N46    N     0.87101   0.39192   0.83930   0.00000  Uiso   1.00
C47    C     0.69419   0.95539   0.64404   0.00000  Uiso   1.00
C48    C     0.71618   0.88434   0.70991   0.00000  Uiso   1.00
C49    C     0.75075   0.90226   0.77949   0.00000  Uiso   1.00
C50    C     0.76626   0.82789   0.83226   0.00000  Uiso   1.00
C51    C     0.80325   0.73111   0.93697   0.00000  Uiso   1.00
C52    C     0.73713   0.92722   0.50296   0.00000  Uiso   1.00
C53    C     0.78931   0.98121   0.39854   0.00000  Uiso   1.00
C54    C     0.82245   0.94294   0.27711   0.00000  Uiso   1.00
C55    C     0.89191   0.91276   0.06052   0.00000  Uiso   1.00
C56    C     0.60603   0.94224   0.69867   0.00000  Uiso   1.00
C57    C     0.54796   0.00886   0.75878   0.00000  Uiso   1.00
C58    C     0.47072   0.98324   0.80209   0.00000  Uiso   1.00
C59    C     0.33662   0.97639   0.88937   0.00000  Uiso   1.00
C60    C     0.66027   0.79143   0.61404   0.00000  Uiso   1.00
C61    C     0.69776   0.79529   0.69361   0.00000  Uiso   1.00
C62    C     0.71322   0.72086   0.74630   0.00000  Uiso   1.00
C63    C     0.74780   0.73867   0.81594   0.00000  Uiso   1.00
C64    C     0.71871   0.83817   0.48666   0.00000  Uiso   1.00
C65    C     0.75178   0.79981   0.36535   0.00000  Uiso   1.00
C66    C     0.80399   0.85372   0.26078   0.00000  Uiso   1.00
C67    C     0.58760   0.85319   0.68238   0.00000  Uiso   1.00
C68    C     0.51043   0.82746   0.72559   0.00000  Uiso   1.00
C69    C     0.45226   0.89403   0.78576   0.00000  Uiso   1.00
H70    H     0.70854   0.02472   0.65671   0.00000  Uiso   1.00
H71    H     0.76501   0.97119   0.79206   0.00000  Uiso   1.00
H72    H     0.80355   0.05013   0.41118   0.00000  Uiso   1.00
H73    H     0.56224   0.07777   0.77137   0.00000  Uiso   1.00
H74    H     0.81951   0.87256   0.93490   0.00000  Uiso   1.00
H75    H     0.90076   0.03902   0.13179   0.00000  Uiso   1.00
H76    H     0.39191   0.09731   0.89131   0.00000  Uiso   1.00
H77    H     0.64593   0.72210   0.60135   0.00000  Uiso   1.00
H78    H     0.69896   0.65196   0.73367   0.00000  Uiso   1.00
H79    H     0.73750   0.73090   0.35278   0.00000  Uiso   1.00
H80    H     0.49620   0.75854   0.71297   0.00000  Uiso   1.00
H81    H     0.76591   0.61346   0.88750   0.00000  Uiso   1.00
H82    H     0.84715   0.77992   0.08438   0.00000  Uiso   1.00
H83    H     0.33831   0.83821   0.84391   0.00000  Uiso   1.00
O84    O     0.82875   0.70233   0.99921   0.00000  Uiso   1.00
O85    O     0.93532   0.92072   0.94555   0.00000  Uiso   1.00
O86    O     0.26774   0.99720   0.94203   0.00000  Uiso   1.00
N87    N     0.79960   0.82121   0.90561   0.00000  Uiso   1.00
N88    N     0.87557   0.97683   0.15474   0.00000  Uiso   1.00
N89    N     0.39985   0.03134   0.86480   0.00000  Uiso   1.00
N90    N     0.77076   0.68179   0.88010   0.00000  Uiso   1.00
N91    N     0.84673   0.83741   0.12924   0.00000  Uiso   1.00
N92    N     0.37101   0.89192   0.83930   0.00000  Uiso   1.00
C93    C     0.80581   0.45539   0.35596   0.00000  Uiso   1.00
C94    C     0.78382   0.38434   0.29009   0.00000  Uiso   1.00
C95    C     0.74925   0.40226   0.22051   0.00000  Uiso   1.00
C96    C     0.73374   0.32789   0.16774   0.00000  Uiso   1.00
C97    C     0.69675   0.23111   0.06303   0.00000  Uiso   1.00
C98    C     0.76287   0.42722   0.49704   0.00000  Uiso   1.00
C99    C     0.71069   0.48121   0.60146   0.00000  Uiso   1.00
C100   C     0.67755   0.44294   0.72289   0.00000  Uiso   1.00
C101   C     0.60809   0.41276   0.93948   0.00000  Uiso   1.00
C102   C     0.89397   0.44224   0.30133   0.00000  Uiso   1.00
C103   C     0.95204   0.50886   0.24122   0.00000  Uiso   1.00
C104   C     0.02928   0.48324   0.19791   0.00000  Uiso   1.00
C105   C     0.16338   0.47639   0.11063   0.00000  Uiso   1.00
C106   C     0.83973   0.29143   0.38596   0.00000  Uiso   1.00
C107   C     0.80224   0.29529   0.30639   0.00000  Uiso   1.00
C108   C     0.78678   0.22086   0.25370   0.00000  Uiso   1.00
C109   C     0.75220   0.23867   0.18406   0.00000  Uiso   1.00
C110   C     0.78129   0.33817   0.51334   0.00000  Uiso   1.00
C111   C     0.74822   0.29981   0.63465   0.00000  Uiso   1.00
C112   C     0.69601   0.35372   0.73922   0.00000  Uiso   1.00
C113   C     0.91240   0.35319   0.31762   0.00000  Uiso   1.00
C114   C     0.98957   0.32746   0.27441   0.00000  Uiso   1.00
C115   C     0.04774   0.39403   0.21424   0.00000  Uiso   1.00
H116   H     0.79146   0.52472   0.34329   0.00000  Uiso   1.00
H117   H     0.73499   0.47119   0.20794   0.00000  Uiso   1.00
H118   H     0.69645   0.55013   0.58882   0.00000  Uiso   1.00
H119   H     0.93776   0.57777   0.22863   0.00000  Uiso   1.00
H120   H     0.68049   0.37256   0.06510   0.00000  Uiso   1.00
H121   H     0.59924   0.53902   0.86821   0.00000  Uiso   1.00
H122   H     0.10809   0.59731   0.10869   0.00000  Uiso   1.00
H123   H     0.85407   0.22210   0.39865   0.00000  Uiso   1.00
H124   H     0.80104   0.15196   0.26633   0.00000  Uiso   1.00
H125   H     0.76250   0.23090   0.64722   0.00000  Uiso   1.00
H126   H     0.00380   0.25854   0.28703   0.00000  Uiso   1.00
H127   H     0.73409   0.11346   0.11250   0.00000  Uiso   1.00
H128   H     0.65285   0.27992   0.91562   0.00000  Uiso   1.00
H129   H     0.16169   0.33821   0.15609   0.00000  Uiso   1.00
O130   O     0.67125   0.20233   0.00079   0.00000  Uiso   1.00
O131   O     0.56468   0.42072   0.05445   0.00000  Uiso   1.00
O132   O     0.23226   0.49720   0.05797   0.00000  Uiso   1.00
N133   N     0.70040   0.32121   0.09439   0.00000  Uiso   1.00
N134   N     0.62443   0.47683   0.84526   0.00000  Uiso   1.00
N135   N     0.10015   0.53134   0.13520   0.00000  Uiso   1.00
N136   N     0.72924   0.18179   0.11990   0.00000  Uiso   1.00
N137   N     0.65327   0.33741   0.87076   0.00000  Uiso   1.00
N138   N     0.12899   0.39192   0.16070   0.00000  Uiso   1.00
C139   C     0.30581   0.95539   0.35596   0.00000  Uiso   1.00
C140   C     0.28382   0.88434   0.29009   0.00000  Uiso   1.00
C141   C     0.24925   0.90226   0.22051   0.00000  Uiso   1.00
C142   C     0.23374   0.82789   0.16774   0.00000  Uiso   1.00
C143   C     0.19675   0.73111   0.06303   0.00000  Uiso   1.00
C144   C     0.26287   0.92722   0.49704   0.00000  Uiso   1.00
C145   C     0.21069   0.98121   0.60146   0.00000  Uiso   1.00
C146   C     0.17755   0.94294   0.72289   0.00000  Uiso   1.00
C147   C     0.10809   0.91276   0.93948   0.00000  Uiso   1.00
C148   C     0.39397   0.94224   0.30133   0.00000  Uiso   1.00
C149   C     0.45204   0.00886   0.24122   0.00000  Uiso   1.00
C150   C     0.52928   0.98324   0.19791   0.00000  Uiso   1.00
C151   C     0.66338   0.97639   0.11063   0.00000  Uiso   1.00
C152   C     0.33973   0.79143   0.38596   0.00000  Uiso   1.00
C153   C     0.30224   0.79529   0.30639   0.00000  Uiso   1.00
C154   C     0.28678   0.72086   0.25370   0.00000  Uiso   1.00
C155   C     0.25220   0.73867   0.18406   0.00000  Uiso   1.00
C156   C     0.28129   0.83817   0.51334   0.00000  Uiso   1.00
C157   C     0.24822   0.79981   0.63465   0.00000  Uiso   1.00
C158   C     0.19601   0.85372   0.73922   0.00000  Uiso   1.00
C159   C     0.41240   0.85319   0.31762   0.00000  Uiso   1.00
C160   C     0.48957   0.82746   0.27441   0.00000  Uiso   1.00
C161   C     0.54774   0.89403   0.21424   0.00000  Uiso   1.00
H162   H     0.29146   0.02472   0.34329   0.00000  Uiso   1.00
H163   H     0.23499   0.97119   0.20794   0.00000  Uiso   1.00
H164   H     0.19645   0.05013   0.58882   0.00000  Uiso   1.00
H165   H     0.43776   0.07777   0.22863   0.00000  Uiso   1.00
H166   H     0.18049   0.87256   0.06510   0.00000  Uiso   1.00
H167   H     0.09924   0.03902   0.86821   0.00000  Uiso   1.00
H168   H     0.60809   0.09731   0.10869   0.00000  Uiso   1.00
H169   H     0.35407   0.72210   0.39865   0.00000  Uiso   1.00
H170   H     0.30104   0.65196   0.26633   0.00000  Uiso   1.00
H171   H     0.26250   0.73090   0.64722   0.00000  Uiso   1.00
H172   H     0.50380   0.75854   0.28703   0.00000  Uiso   1.00
H173   H     0.23409   0.61346   0.11250   0.00000  Uiso   1.00
H174   H     0.15285   0.77992   0.91562   0.00000  Uiso   1.00
H175   H     0.66169   0.83821   0.15609   0.00000  Uiso   1.00
O176   O     0.17125   0.70233   0.00079   0.00000  Uiso   1.00
O177   O     0.06468   0.92072   0.05445   0.00000  Uiso   1.00
O178   O     0.73226   0.99720   0.05797   0.00000  Uiso   1.00
N179   N     0.20040   0.82121   0.09439   0.00000  Uiso   1.00
N180   N     0.12443   0.97683   0.84526   0.00000  Uiso   1.00
N181   N     0.60015   0.03134   0.13520   0.00000  Uiso   1.00
N182   N     0.22924   0.68179   0.11990   0.00000  Uiso   1.00
N183   N     0.15327   0.83741   0.87076   0.00000  Uiso   1.00
N184   N     0.62899   0.89192   0.16070   0.00000  Uiso   1.00
