data_job_04489
_audit_creation_date              2018-12-19
_audit_creation_method            'Materials Studio'
_symmetry_space_group_name_H-M    'P1'
_symmetry_Int_Tables_number       1
_symmetry_cell_setting            triclinic
loop_
_symmetry_equiv_pos_as_xyz
  x,y,z
_cell_length_a                    11.8512
_cell_length_b                    11.8512
_cell_length_c                    15.9540
_cell_angle_alpha                 90.0000
_cell_angle_beta                  90.0000
_cell_angle_gamma                 90.0000
loop_
_atom_site_label
_atom_site_type_symbol
_atom_site_fract_x
_atom_site_fract_y
_atom_site_fract_z
_atom_site_U_iso_or_equiv
_atom_site_adp_type
_atom_site_occupancy
C1     C     0.84433   0.24218   0.19862   0.00000  Uiso   1.00
C2     C     0.81260   0.24272   0.29125   0.00000  Uiso   1.00
C3     C     0.88180   0.27697   0.35665   0.00000  Uiso   1.00
C4     C     0.83712   0.27108   0.43697   0.00000  Uiso   1.00
C5     C     0.80460   0.27777   0.57863   0.00000  Uiso   1.00
C6     C     0.82634   0.12145   0.16837   0.00000  Uiso   1.00
C7     C     0.90710   0.05375   0.13044   0.00000  Uiso   1.00
C8     C     0.87398   0.94577   0.10731   0.00000  Uiso   1.00
C9     C     0.86277   0.76421   0.05814   0.00000  Uiso   1.00
C10    C     0.75534   0.31343   0.15432   0.00000  Uiso   1.00
C11    C     0.77639   0.40714   0.10454   0.00000  Uiso   1.00
C12    C     0.68348   0.46078   0.06956   0.00000  Uiso   1.00
C13    C     0.56203   0.57731   0.99856   0.00000  Uiso   1.00
C14    C     0.64190   0.17080   0.22499   0.00000  Uiso   1.00
C15    C     0.70265   0.20395   0.30557   0.00000  Uiso   1.00
C16    C     0.65785   0.19801   0.38582   0.00000  Uiso   1.00
C17    C     0.72697   0.23224   0.45132   0.00000  Uiso   1.00
C18    C     0.71640   0.08268   0.18270   0.00000  Uiso   1.00
C19    C     0.68314   0.97478   0.15962   0.00000  Uiso   1.00
C20    C     0.76383   0.90693   0.12166   0.00000  Uiso   1.00
C21    C     0.64538   0.27467   0.16864   0.00000  Uiso   1.00
C22    C     0.55243   0.32817   0.13372   0.00000  Uiso   1.00
C23    C     0.57334   0.42194   0.08391   0.00000  Uiso   1.00
H24    H     0.92993   0.27235   0.18747   0.00000  Uiso   1.00
H25    H     0.96689   0.30696   0.34554   0.00000  Uiso   1.00
H26    H     0.99218   0.08378   0.11936   0.00000  Uiso   1.00
H27    H     0.86149   0.43711   0.09347   0.00000  Uiso   1.00
H28    H     0.95940   0.32819   0.52710   0.00000  Uiso   1.00
H29    H     0.01271   0.85761   0.05017   0.00000  Uiso   1.00
H30    H     0.73712   0.60269   0.99557   0.00000  Uiso   1.00
H31    H     0.55630   0.14062   0.23614   0.00000  Uiso   1.00
H32    H     0.57276   0.16800   0.39689   0.00000  Uiso   1.00
H33    H     0.59805   0.94481   0.17071   0.00000  Uiso   1.00
H34    H     0.46736   0.29815   0.14482   0.00000  Uiso   1.00
H35    H     0.63951   0.21540   0.56878   0.00000  Uiso   1.00
H36    H     0.69282   0.74482   0.09184   0.00000  Uiso   1.00
H37    H     0.41722   0.48990   0.03725   0.00000  Uiso   1.00
O38    O     0.81703   0.29215   0.65281   0.00000  Uiso   1.00
O39    O     0.88697   0.67478   0.02707   0.00000  Uiso   1.00
O40    O     0.52540   0.65230   0.95545   0.00000  Uiso   1.00
N41    N     0.88184   0.29791   0.51485   0.00000  Uiso   1.00
N42    N     0.93169   0.85794   0.06895   0.00000  Uiso   1.00
N43    N     0.67404   0.55451   0.01790   0.00000  Uiso   1.00
N44    N     0.70971   0.23722   0.53728   0.00000  Uiso   1.00
N45    N     0.75956   0.79725   0.09138   0.00000  Uiso   1.00
N46    N     0.50191   0.49382   0.04033   0.00000  Uiso   1.00
C47    C     0.15567   0.75782   0.69862   0.00000  Uiso   1.00
C48    C     0.18740   0.75728   0.79125   0.00000  Uiso   1.00
C49    C     0.11820   0.72303   0.85665   0.00000  Uiso   1.00
C50    C     0.16288   0.72892   0.93697   0.00000  Uiso   1.00
C51    C     0.19540   0.72223   0.07863   0.00000  Uiso   1.00
C52    C     0.17366   0.87855   0.66837   0.00000  Uiso   1.00
C53    C     0.09290   0.94625   0.63044   0.00000  Uiso   1.00
C54    C     0.12602   0.05423   0.60731   0.00000  Uiso   1.00
C55    C     0.13723   0.23579   0.55814   0.00000  Uiso   1.00
C56    C     0.24466   0.68657   0.65432   0.00000  Uiso   1.00
C57    C     0.22361   0.59286   0.60454   0.00000  Uiso   1.00
C58    C     0.31652   0.53922   0.56956   0.00000  Uiso   1.00
C59    C     0.43797   0.42269   0.49856   0.00000  Uiso   1.00
C60    C     0.35810   0.82920   0.72499   0.00000  Uiso   1.00
C61    C     0.29735   0.79605   0.80557   0.00000  Uiso   1.00
C62    C     0.34215   0.80199   0.88582   0.00000  Uiso   1.00
C63    C     0.27303   0.76776   0.95132   0.00000  Uiso   1.00
C64    C     0.28360   0.91732   0.68270   0.00000  Uiso   1.00
C65    C     0.31686   0.02522   0.65962   0.00000  Uiso   1.00
C66    C     0.23617   0.09307   0.62166   0.00000  Uiso   1.00
C67    C     0.35462   0.72533   0.66864   0.00000  Uiso   1.00
C68    C     0.44757   0.67183   0.63372   0.00000  Uiso   1.00
C69    C     0.42666   0.57806   0.58391   0.00000  Uiso   1.00
H70    H     0.07007   0.72765   0.68747   0.00000  Uiso   1.00
H71    H     0.03311   0.69304   0.84554   0.00000  Uiso   1.00
H72    H     0.00782   0.91622   0.61936   0.00000  Uiso   1.00
H73    H     0.13851   0.56289   0.59347   0.00000  Uiso   1.00
H74    H     0.04060   0.67181   0.02710   0.00000  Uiso   1.00
H75    H     0.98729   0.14239   0.55017   0.00000  Uiso   1.00
H76    H     0.26288   0.39731   0.49557   0.00000  Uiso   1.00
H77    H     0.44370   0.85938   0.73614   0.00000  Uiso   1.00
H78    H     0.42724   0.83200   0.89689   0.00000  Uiso   1.00
H79    H     0.40195   0.05519   0.67071   0.00000  Uiso   1.00
H80    H     0.53264   0.70185   0.64482   0.00000  Uiso   1.00
H81    H     0.36049   0.78460   0.06878   0.00000  Uiso   1.00
H82    H     0.30718   0.25518   0.59184   0.00000  Uiso   1.00
H83    H     0.58278   0.51010   0.53725   0.00000  Uiso   1.00
O84    O     0.18297   0.70785   0.15281   0.00000  Uiso   1.00
O85    O     0.11303   0.32522   0.52707   0.00000  Uiso   1.00
O86    O     0.47460   0.34770   0.45545   0.00000  Uiso   1.00
N87    N     0.11816   0.70209   0.01485   0.00000  Uiso   1.00
N88    N     0.06831   0.14206   0.56895   0.00000  Uiso   1.00
N89    N     0.32596   0.44549   0.51790   0.00000  Uiso   1.00
N90    N     0.29029   0.76278   0.03728   0.00000  Uiso   1.00
N91    N     0.24044   0.20275   0.59138   0.00000  Uiso   1.00
N92    N     0.49809   0.50618   0.54033   0.00000  Uiso   1.00
C93    C     0.75782   0.84433   0.44862   0.00000  Uiso   1.00
C94    C     0.75728   0.81260   0.54125   0.00000  Uiso   1.00
C95    C     0.72303   0.88180   0.60665   0.00000  Uiso   1.00
C96    C     0.72892   0.83712   0.68697   0.00000  Uiso   1.00
C97    C     0.72223   0.80460   0.82863   0.00000  Uiso   1.00
C98    C     0.87855   0.82634   0.41837   0.00000  Uiso   1.00
C99    C     0.94625   0.90710   0.38044   0.00000  Uiso   1.00
C100   C     0.05423   0.87398   0.35731   0.00000  Uiso   1.00
C101   C     0.23579   0.86277   0.30814   0.00000  Uiso   1.00
C102   C     0.68657   0.75534   0.40432   0.00000  Uiso   1.00
C103   C     0.59286   0.77639   0.35454   0.00000  Uiso   1.00
C104   C     0.53922   0.68348   0.31956   0.00000  Uiso   1.00
C105   C     0.42269   0.56203   0.24856   0.00000  Uiso   1.00
C106   C     0.82920   0.64190   0.47499   0.00000  Uiso   1.00
C107   C     0.79605   0.70265   0.55557   0.00000  Uiso   1.00
C108   C     0.80199   0.65785   0.63582   0.00000  Uiso   1.00
C109   C     0.76776   0.72697   0.70132   0.00000  Uiso   1.00
C110   C     0.91732   0.71640   0.43270   0.00000  Uiso   1.00
C111   C     0.02522   0.68314   0.40962   0.00000  Uiso   1.00
C112   C     0.09307   0.76383   0.37166   0.00000  Uiso   1.00
C113   C     0.72533   0.64538   0.41864   0.00000  Uiso   1.00
C114   C     0.67183   0.55243   0.38372   0.00000  Uiso   1.00
C115   C     0.57806   0.57334   0.33391   0.00000  Uiso   1.00
H116   H     0.72765   0.92993   0.43747   0.00000  Uiso   1.00
H117   H     0.69304   0.96689   0.59554   0.00000  Uiso   1.00
H118   H     0.91622   0.99218   0.36936   0.00000  Uiso   1.00
H119   H     0.56289   0.86149   0.34347   0.00000  Uiso   1.00
H120   H     0.67181   0.95940   0.77710   0.00000  Uiso   1.00
H121   H     0.14239   0.01271   0.30017   0.00000  Uiso   1.00
H122   H     0.39731   0.73712   0.24557   0.00000  Uiso   1.00
H123   H     0.85938   0.55630   0.48614   0.00000  Uiso   1.00
H124   H     0.83200   0.57276   0.64689   0.00000  Uiso   1.00
H125   H     0.05519   0.59805   0.42071   0.00000  Uiso   1.00
H126   H     0.70185   0.46736   0.39482   0.00000  Uiso   1.00
H127   H     0.78460   0.63951   0.81878   0.00000  Uiso   1.00
H128   H     0.25518   0.69282   0.34184   0.00000  Uiso   1.00
H129   H     0.51010   0.41722   0.28725   0.00000  Uiso   1.00
O130   O     0.70785   0.81703   0.90281   0.00000  Uiso   1.00
O131   O     0.32522   0.88697   0.27707   0.00000  Uiso   1.00
O132   O     0.34770   0.52540   0.20545   0.00000  Uiso   1.00
N133   N     0.70209   0.88184   0.76485   0.00000  Uiso   1.00
N134   N     0.14206   0.93169   0.31895   0.00000  Uiso   1.00
N135   N     0.44549   0.67404   0.26790   0.00000  Uiso   1.00
N136   N     0.76278   0.70971   0.78728   0.00000  Uiso   1.00
N137   N     0.20275   0.75956   0.34138   0.00000  Uiso   1.00
N138   N     0.50618   0.50191   0.29033   0.00000  Uiso   1.00
C139   C     0.24218   0.15567   0.94862   0.00000  Uiso   1.00
C140   C     0.24272   0.18740   0.04125   0.00000  Uiso   1.00
C141   C     0.27697   0.11820   0.10665   0.00000  Uiso   1.00
C142   C     0.27108   0.16288   0.18697   0.00000  Uiso   1.00
C143   C     0.27777   0.19540   0.32863   0.00000  Uiso   1.00
C144   C     0.12145   0.17366   0.91837   0.00000  Uiso   1.00
C145   C     0.05375   0.09290   0.88044   0.00000  Uiso   1.00
C146   C     0.94577   0.12602   0.85731   0.00000  Uiso   1.00
C147   C     0.76421   0.13723   0.80814   0.00000  Uiso   1.00
C148   C     0.31343   0.24466   0.90432   0.00000  Uiso   1.00
C149   C     0.40714   0.22361   0.85454   0.00000  Uiso   1.00
C150   C     0.46078   0.31652   0.81956   0.00000  Uiso   1.00
C151   C     0.57731   0.43797   0.74856   0.00000  Uiso   1.00
C152   C     0.17080   0.35810   0.97499   0.00000  Uiso   1.00
C153   C     0.20395   0.29735   0.05557   0.00000  Uiso   1.00
C154   C     0.19801   0.34215   0.13582   0.00000  Uiso   1.00
C155   C     0.23224   0.27303   0.20132   0.00000  Uiso   1.00
C156   C     0.08268   0.28360   0.93270   0.00000  Uiso   1.00
C157   C     0.97478   0.31686   0.90962   0.00000  Uiso   1.00
C158   C     0.90693   0.23617   0.87166   0.00000  Uiso   1.00
C159   C     0.27467   0.35462   0.91864   0.00000  Uiso   1.00
C160   C     0.32817   0.44757   0.88372   0.00000  Uiso   1.00
C161   C     0.42194   0.42666   0.83391   0.00000  Uiso   1.00
H162   H     0.27235   0.07007   0.93747   0.00000  Uiso   1.00
H163   H     0.30696   0.03311   0.09554   0.00000  Uiso   1.00
H164   H     0.08378   0.00782   0.86936   0.00000  Uiso   1.00
H165   H     0.43711   0.13851   0.84347   0.00000  Uiso   1.00
H166   H     0.32819   0.04060   0.27710   0.00000  Uiso   1.00
H167   H     0.85761   0.98729   0.80017   0.00000  Uiso   1.00
H168   H     0.60269   0.26288   0.74557   0.00000  Uiso   1.00
H169   H     0.14062   0.44370   0.98614   0.00000  Uiso   1.00
H170   H     0.16800   0.42724   0.14689   0.00000  Uiso   1.00
H171   H     0.94481   0.40195   0.92071   0.00000  Uiso   1.00
H172   H     0.29815   0.53264   0.89482   0.00000  Uiso   1.00
H173   H     0.21540   0.36049   0.31878   0.00000  Uiso   1.00
H174   H     0.74482   0.30718   0.84184   0.00000  Uiso   1.00
H175   H     0.48990   0.58278   0.78725   0.00000  Uiso   1.00
O176   O     0.29215   0.18297   0.40281   0.00000  Uiso   1.00
O177   O     0.67478   0.11303   0.77707   0.00000  Uiso   1.00
O178   O     0.65230   0.47460   0.70545   0.00000  Uiso   1.00
N179   N     0.29791   0.11816   0.26485   0.00000  Uiso   1.00
N180   N     0.85794   0.06831   0.81895   0.00000  Uiso   1.00
N181   N     0.55451   0.32596   0.76790   0.00000  Uiso   1.00
N182   N     0.23722   0.29029   0.28728   0.00000  Uiso   1.00
N183   N     0.79725   0.24044   0.84138   0.00000  Uiso   1.00
N184   N     0.49382   0.49809   0.79033   0.00000  Uiso   1.00
