data_job_05223
_audit_creation_date              2018-12-19
_audit_creation_method            'Materials Studio'
_symmetry_space_group_name_H-M    'P1'
_symmetry_Int_Tables_number       1
_symmetry_cell_setting            triclinic
loop_
_symmetry_equiv_pos_as_xyz
  x,y,z
_cell_length_a                    23.8211
_cell_length_b                    15.3717
_cell_length_c                    22.7022
_cell_angle_alpha                 90.0000
_cell_angle_beta                  157.7146
_cell_angle_gamma                 90.0000
loop_
_atom_site_label
_atom_site_type_symbol
_atom_site_fract_x
_atom_site_fract_y
_atom_site_fract_z
_atom_site_U_iso_or_equiv
_atom_site_adp_type
_atom_site_occupancy
C1     C     0.15095   0.04136   0.93870   0.00000  Uiso   1.00
C2     C     0.09593   0.09045   0.83117   0.00000  Uiso   1.00
C3     C     0.15625   0.16664   0.86739   0.00000  Uiso   1.00
C4     C     0.08993   0.20142   0.75311   0.00000  Uiso   1.00
C5     C     0.02305   0.28375   0.60820   0.00000  Uiso   1.00
C6     C     0.01847   0.03409   0.85141   0.00000  Uiso   1.00
C7     C     0.01368   0.06289   0.90467   0.00000  Uiso   1.00
C8     C     0.88215   0.05022   0.80743   0.00000  Uiso   1.00
C9     C     0.69505   0.04500   0.69399   0.00000  Uiso   1.00
C10    C     0.18422   0.94904   0.95029   0.00000  Uiso   1.00
C11    C     0.31878   0.90632   0.08669   0.00000  Uiso   1.00
C12    C     0.32679   0.82203   0.07271   0.00000  Uiso   1.00
C13    C     0.39704   0.68476   0.11281   0.00000  Uiso   1.00
C14    C     0.92590   0.96765   0.67132   0.00000  Uiso   1.00
C15    C     0.97368   0.05041   0.68594   0.00000  Uiso   1.00
C16    C     0.90726   0.08509   0.57157   0.00000  Uiso   1.00
C17    C     0.96748   0.16132   0.60763   0.00000  Uiso   1.00
C18    C     0.89623   0.99406   0.70618   0.00000  Uiso   1.00
C19    C     0.76468   0.98134   0.60885   0.00000  Uiso   1.00
C20    C     0.75969   0.01011   0.66194   0.00000  Uiso   1.00
C21    C     0.06198   0.90901   0.80506   0.00000  Uiso   1.00
C22    C     0.06978   0.82477   0.79087   0.00000  Uiso   1.00
C23    C     0.20433   0.78193   0.92722   0.00000  Uiso   1.00
H24    H     0.24611   0.07253   0.05176   0.00000  Uiso   1.00
H25    H     0.25084   0.19760   0.97979   0.00000  Uiso   1.00
H26    H     0.10830   0.09386   0.01706   0.00000  Uiso   1.00
H27    H     0.41335   0.93732   0.19905   0.00000  Uiso   1.00
H28    H     0.20215   0.31863   0.83593   0.00000  Uiso   1.00
H29    H     0.90160   0.09986   0.91454   0.00000  Uiso   1.00
H30    H     0.54486   0.76975   0.29832   0.00000  Uiso   1.00
H31    H     0.83072   0.93648   0.55825   0.00000  Uiso   1.00
H32    H     0.81266   0.05409   0.45920   0.00000  Uiso   1.00
H33    H     0.67011   0.95035   0.49647   0.00000  Uiso   1.00
H34    H     0.97517   0.79381   0.67847   0.00000  Uiso   1.00
H35    H     0.84650   0.20216   0.41340   0.00000  Uiso   1.00
H36    H     0.54595   0.98338   0.49202   0.00000  Uiso   1.00
H37    H     0.18921   0.65328   0.87578   0.00000  Uiso   1.00
O38    O     0.01991   0.34023   0.56839   0.00000  Uiso   1.00
O39    O     0.62561   0.05319   0.67154   0.00000  Uiso   1.00
O40    O     0.46956   0.62011   0.17504   0.00000  Uiso   1.00
N41    N     0.12094   0.27507   0.75009   0.00000  Uiso   1.00
N42    N     0.83994   0.07054   0.82358   0.00000  Uiso   1.00
N43    N     0.44133   0.76191   0.18238   0.00000  Uiso   1.00
N44    N     0.92957   0.21239   0.52273   0.00000  Uiso   1.00
N45    N     0.64857   0.00787   0.59622   0.00000  Uiso   1.00
N46    N     0.24996   0.69924   0.95502   0.00000  Uiso   1.00
C47    C     0.84905   0.54136   0.56130   0.00000  Uiso   1.00
C48    C     0.90407   0.59045   0.66883   0.00000  Uiso   1.00
C49    C     0.84375   0.66664   0.63261   0.00000  Uiso   1.00
C50    C     0.91007   0.70142   0.74689   0.00000  Uiso   1.00
C51    C     0.97695   0.78375   0.89180   0.00000  Uiso   1.00
C52    C     0.98153   0.53409   0.64859   0.00000  Uiso   1.00
C53    C     0.98632   0.56289   0.59533   0.00000  Uiso   1.00
C54    C     0.11785   0.55022   0.69257   0.00000  Uiso   1.00
C55    C     0.30495   0.54500   0.80601   0.00000  Uiso   1.00
C56    C     0.81578   0.44904   0.54971   0.00000  Uiso   1.00
C57    C     0.68122   0.40632   0.41331   0.00000  Uiso   1.00
C58    C     0.67321   0.32203   0.42729   0.00000  Uiso   1.00
C59    C     0.60296   0.18476   0.38719   0.00000  Uiso   1.00
C60    C     0.07410   0.46765   0.82868   0.00000  Uiso   1.00
C61    C     0.02632   0.55041   0.81406   0.00000  Uiso   1.00
C62    C     0.09274   0.58509   0.92843   0.00000  Uiso   1.00
C63    C     0.03252   0.66132   0.89237   0.00000  Uiso   1.00
C64    C     0.10377   0.49406   0.79382   0.00000  Uiso   1.00
C65    C     0.23532   0.48134   0.89115   0.00000  Uiso   1.00
C66    C     0.24031   0.51011   0.83806   0.00000  Uiso   1.00
C67    C     0.93802   0.40901   0.69494   0.00000  Uiso   1.00
C68    C     0.93022   0.32477   0.70913   0.00000  Uiso   1.00
C69    C     0.79567   0.28193   0.57278   0.00000  Uiso   1.00
H70    H     0.75389   0.57253   0.44824   0.00000  Uiso   1.00
H71    H     0.74916   0.69760   0.52021   0.00000  Uiso   1.00
H72    H     0.89170   0.59386   0.48294   0.00000  Uiso   1.00
H73    H     0.58665   0.43732   0.30095   0.00000  Uiso   1.00
H74    H     0.79785   0.81863   0.66407   0.00000  Uiso   1.00
H75    H     0.09840   0.59986   0.58546   0.00000  Uiso   1.00
H76    H     0.45514   0.26975   0.20168   0.00000  Uiso   1.00
H77    H     0.16928   0.43648   0.94175   0.00000  Uiso   1.00
H78    H     0.18734   0.55409   0.04080   0.00000  Uiso   1.00
H79    H     0.32989   0.45035   0.00353   0.00000  Uiso   1.00
H80    H     0.02483   0.29381   0.82153   0.00000  Uiso   1.00
H81    H     0.15350   0.70216   0.08660   0.00000  Uiso   1.00
H82    H     0.45405   0.48338   0.00798   0.00000  Uiso   1.00
H83    H     0.81079   0.15328   0.62422   0.00000  Uiso   1.00
O84    O     0.98009   0.84023   0.93161   0.00000  Uiso   1.00
O85    O     0.37439   0.55319   0.82846   0.00000  Uiso   1.00
O86    O     0.53044   0.12011   0.32496   0.00000  Uiso   1.00
N87    N     0.87906   0.77507   0.74991   0.00000  Uiso   1.00
N88    N     0.16006   0.57054   0.67642   0.00000  Uiso   1.00
N89    N     0.55867   0.26191   0.31762   0.00000  Uiso   1.00
N90    N     0.07043   0.71239   0.97727   0.00000  Uiso   1.00
N91    N     0.35143   0.50787   0.90378   0.00000  Uiso   1.00
N92    N     0.75004   0.19924   0.54498   0.00000  Uiso   1.00
C93    C     0.84905   0.95864   0.06130   0.00000  Uiso   1.00
C94    C     0.90407   0.90955   0.16883   0.00000  Uiso   1.00
C95    C     0.84375   0.83336   0.13261   0.00000  Uiso   1.00
C96    C     0.91007   0.79858   0.24689   0.00000  Uiso   1.00
C97    C     0.97695   0.71625   0.39180   0.00000  Uiso   1.00
C98    C     0.98153   0.96591   0.14859   0.00000  Uiso   1.00
C99    C     0.98632   0.93711   0.09533   0.00000  Uiso   1.00
C100   C     0.11785   0.94978   0.19257   0.00000  Uiso   1.00
C101   C     0.30495   0.95500   0.30601   0.00000  Uiso   1.00
C102   C     0.81578   0.05096   0.04971   0.00000  Uiso   1.00
C103   C     0.68122   0.09368   0.91331   0.00000  Uiso   1.00
C104   C     0.67321   0.17797   0.92729   0.00000  Uiso   1.00
C105   C     0.60296   0.31524   0.88719   0.00000  Uiso   1.00
C106   C     0.07410   0.03235   0.32868   0.00000  Uiso   1.00
C107   C     0.02632   0.94959   0.31406   0.00000  Uiso   1.00
C108   C     0.09274   0.91491   0.42843   0.00000  Uiso   1.00
C109   C     0.03252   0.83868   0.39237   0.00000  Uiso   1.00
C110   C     0.10377   0.00594   0.29382   0.00000  Uiso   1.00
C111   C     0.23532   0.01866   0.39115   0.00000  Uiso   1.00
C112   C     0.24031   0.98989   0.33806   0.00000  Uiso   1.00
C113   C     0.93802   0.09099   0.19494   0.00000  Uiso   1.00
C114   C     0.93022   0.17523   0.20913   0.00000  Uiso   1.00
C115   C     0.79567   0.21807   0.07278   0.00000  Uiso   1.00
H116   H     0.75389   0.92747   0.94824   0.00000  Uiso   1.00
H117   H     0.74916   0.80240   0.02021   0.00000  Uiso   1.00
H118   H     0.89170   0.90614   0.98294   0.00000  Uiso   1.00
H119   H     0.58665   0.06268   0.80095   0.00000  Uiso   1.00
H120   H     0.79785   0.68137   0.16407   0.00000  Uiso   1.00
H121   H     0.09840   0.90014   0.08546   0.00000  Uiso   1.00
H122   H     0.45514   0.23025   0.70168   0.00000  Uiso   1.00
H123   H     0.16928   0.06352   0.44175   0.00000  Uiso   1.00
H124   H     0.18734   0.94591   0.54080   0.00000  Uiso   1.00
H125   H     0.32989   0.04965   0.50353   0.00000  Uiso   1.00
H126   H     0.02483   0.20619   0.32153   0.00000  Uiso   1.00
H127   H     0.15350   0.79784   0.58660   0.00000  Uiso   1.00
H128   H     0.45405   0.01662   0.50798   0.00000  Uiso   1.00
H129   H     0.81079   0.34672   0.12422   0.00000  Uiso   1.00
O130   O     0.98009   0.65977   0.43161   0.00000  Uiso   1.00
O131   O     0.37439   0.94681   0.32846   0.00000  Uiso   1.00
O132   O     0.53044   0.37989   0.82496   0.00000  Uiso   1.00
N133   N     0.87906   0.72493   0.24991   0.00000  Uiso   1.00
N134   N     0.16006   0.92946   0.17642   0.00000  Uiso   1.00
N135   N     0.55867   0.23809   0.81762   0.00000  Uiso   1.00
N136   N     0.07043   0.78761   0.47727   0.00000  Uiso   1.00
N137   N     0.35143   0.99213   0.40378   0.00000  Uiso   1.00
N138   N     0.75004   0.30076   0.04498   0.00000  Uiso   1.00
C139   C     0.15095   0.45864   0.43870   0.00000  Uiso   1.00
C140   C     0.09593   0.40955   0.33117   0.00000  Uiso   1.00
C141   C     0.15625   0.33336   0.36739   0.00000  Uiso   1.00
C142   C     0.08993   0.29858   0.25311   0.00000  Uiso   1.00
C143   C     0.02305   0.21625   0.10820   0.00000  Uiso   1.00
C144   C     0.01847   0.46591   0.35141   0.00000  Uiso   1.00
C145   C     0.01368   0.43711   0.40467   0.00000  Uiso   1.00
C146   C     0.88215   0.44978   0.30743   0.00000  Uiso   1.00
C147   C     0.69505   0.45500   0.19399   0.00000  Uiso   1.00
C148   C     0.18422   0.55096   0.45029   0.00000  Uiso   1.00
C149   C     0.31878   0.59368   0.58669   0.00000  Uiso   1.00
C150   C     0.32679   0.67797   0.57271   0.00000  Uiso   1.00
C151   C     0.39704   0.81524   0.61281   0.00000  Uiso   1.00
C152   C     0.92590   0.53235   0.17132   0.00000  Uiso   1.00
C153   C     0.97368   0.44959   0.18594   0.00000  Uiso   1.00
C154   C     0.90726   0.41491   0.07157   0.00000  Uiso   1.00
C155   C     0.96748   0.33868   0.10763   0.00000  Uiso   1.00
C156   C     0.89623   0.50594   0.20618   0.00000  Uiso   1.00
C157   C     0.76468   0.51866   0.10885   0.00000  Uiso   1.00
C158   C     0.75969   0.48989   0.16194   0.00000  Uiso   1.00
C159   C     0.06198   0.59099   0.30506   0.00000  Uiso   1.00
C160   C     0.06978   0.67523   0.29087   0.00000  Uiso   1.00
C161   C     0.20433   0.71807   0.42722   0.00000  Uiso   1.00
H162   H     0.24611   0.42747   0.55176   0.00000  Uiso   1.00
H163   H     0.25084   0.30240   0.47979   0.00000  Uiso   1.00
H164   H     0.10830   0.40614   0.51706   0.00000  Uiso   1.00
H165   H     0.41335   0.56268   0.69905   0.00000  Uiso   1.00
H166   H     0.20215   0.18137   0.33593   0.00000  Uiso   1.00
H167   H     0.90160   0.40014   0.41454   0.00000  Uiso   1.00
H168   H     0.54486   0.73025   0.79832   0.00000  Uiso   1.00
H169   H     0.83072   0.56352   0.05825   0.00000  Uiso   1.00
H170   H     0.81266   0.44591   0.95920   0.00000  Uiso   1.00
H171   H     0.67011   0.54965   0.99647   0.00000  Uiso   1.00
H172   H     0.97517   0.70619   0.17847   0.00000  Uiso   1.00
H173   H     0.84650   0.29784   0.91340   0.00000  Uiso   1.00
H174   H     0.54595   0.51662   0.99202   0.00000  Uiso   1.00
H175   H     0.18921   0.84672   0.37578   0.00000  Uiso   1.00
O176   O     0.01991   0.15977   0.06839   0.00000  Uiso   1.00
O177   O     0.62561   0.44681   0.17154   0.00000  Uiso   1.00
O178   O     0.46956   0.87989   0.67504   0.00000  Uiso   1.00
N179   N     0.12094   0.22493   0.25009   0.00000  Uiso   1.00
N180   N     0.83994   0.42946   0.32358   0.00000  Uiso   1.00
N181   N     0.44133   0.73809   0.68238   0.00000  Uiso   1.00
N182   N     0.92957   0.28761   0.02273   0.00000  Uiso   1.00
N183   N     0.64857   0.49213   0.09622   0.00000  Uiso   1.00
N184   N     0.24996   0.80076   0.45502   0.00000  Uiso   1.00
