data_job_06725
_audit_creation_date              2018-12-19
_audit_creation_method            'Materials Studio'
_symmetry_space_group_name_H-M    'P1'
_symmetry_Int_Tables_number       1
_symmetry_cell_setting            triclinic
loop_
_symmetry_equiv_pos_as_xyz
  x,y,z
_cell_length_a                    19.8002
_cell_length_b                    21.9021
_cell_length_c                    26.1682
_cell_angle_alpha                 67.0867
_cell_angle_beta                  90.0035
_cell_angle_gamma                 116.3114
loop_
_atom_site_label
_atom_site_type_symbol
_atom_site_fract_x
_atom_site_fract_y
_atom_site_fract_z
_atom_site_U_iso_or_equiv
_atom_site_adp_type
_atom_site_occupancy
C1     C     0.39536   0.91472   0.37301   0.00000  Uiso   1.00
C2     C     0.41326   0.99716   0.34753   0.00000  Uiso   1.00
C3     C     0.48263   0.05898   0.31349   0.00000  Uiso   1.00
C4     C     0.48752   0.12979   0.29441   0.00000  Uiso   1.00
C5     C     0.52479   0.25649   0.25267   0.00000  Uiso   1.00
C6     C     0.37016   0.88431   0.43689   0.00000  Uiso   1.00
C7     C     0.40330   0.85124   0.47799   0.00000  Uiso   1.00
C8     C     0.37190   0.82704   0.53413   0.00000  Uiso   1.00
C9     C     0.34224   0.77849   0.63113   0.00000  Uiso   1.00
C10    C     0.32407   0.87353   0.35288   0.00000  Uiso   1.00
C11    C     0.31844   0.83138   0.32334   0.00000  Uiso   1.00
C12    C     0.24823   0.79809   0.30877   0.00000  Uiso   1.00
C13    C     0.14700   0.73280   0.27531   0.00000  Uiso   1.00
C14    C     0.28067   0.93052   0.39965   0.00000  Uiso   1.00
C15    C     0.35096   0.00574   0.36200   0.00000  Uiso   1.00
C16    C     0.35574   0.07647   0.34297   0.00000  Uiso   1.00
C17    C     0.42511   0.13839   0.30891   0.00000  Uiso   1.00
C18    C     0.30787   0.89289   0.45136   0.00000  Uiso   1.00
C19    C     0.27641   0.86873   0.50746   0.00000  Uiso   1.00
C20    C     0.30949   0.83564   0.54863   0.00000  Uiso   1.00
C21    C     0.26177   0.88211   0.36735   0.00000  Uiso   1.00
C22    C     0.19155   0.84887   0.35282   0.00000  Uiso   1.00
C23    C     0.18582   0.80669   0.32326   0.00000  Uiso   1.00
H24    H     0.44386   0.90804   0.36175   0.00000  Uiso   1.00
H25    H     0.53083   0.05232   0.30231   0.00000  Uiso   1.00
H26    H     0.45150   0.84460   0.46678   0.00000  Uiso   1.00
H27    H     0.36666   0.82475   0.31215   0.00000  Uiso   1.00
H28    H     0.59979   0.21607   0.24280   0.00000  Uiso   1.00
H29    H     0.43251   0.77807   0.58960   0.00000  Uiso   1.00
H30    H     0.25360   0.73620   0.26355   0.00000  Uiso   1.00
H31    H     0.23217   0.93720   0.41092   0.00000  Uiso   1.00
H32    H     0.30752   0.08309   0.35417   0.00000  Uiso   1.00
H33    H     0.22820   0.87538   0.51864   0.00000  Uiso   1.00
H34    H     0.14336   0.85552   0.36402   0.00000  Uiso   1.00
H35    H     0.41855   0.24104   0.28490   0.00000  Uiso   1.00
H36    H     0.25126   0.80304   0.63170   0.00000  Uiso   1.00
H37    H     0.07236   0.76118   0.30564   0.00000  Uiso   1.00
O38    O     0.56257   0.32400   0.22565   0.00000  Uiso   1.00
O39    O     0.34309   0.74935   0.68063   0.00000  Uiso   1.00
O40    O     0.10838   0.69443   0.25286   0.00000  Uiso   1.00
N41    N     0.54679   0.20192   0.26049   0.00000  Uiso   1.00
N42    N     0.39040   0.79243   0.58472   0.00000  Uiso   1.00
N43    N     0.22313   0.75328   0.27990   0.00000  Uiso   1.00
N44    N     0.44926   0.21536   0.28314   0.00000  Uiso   1.00
N45    N     0.29287   0.80587   0.60737   0.00000  Uiso   1.00
N46    N     0.12561   0.76672   0.30255   0.00000  Uiso   1.00
C47    C     0.97736   0.41640   0.27417   0.00000  Uiso   1.00
C48    C     0.91677   0.37816   0.24508   0.00000  Uiso   1.00
C49    C     0.86798   0.40382   0.21787   0.00000  Uiso   1.00
C50    C     0.81656   0.36077   0.19392   0.00000  Uiso   1.00
C51    C     0.72282   0.31146   0.14830   0.00000  Uiso   1.00
C52    C     0.95854   0.35712   0.33508   0.00000  Uiso   1.00
C53    C     0.94488   0.36509   0.38354   0.00000  Uiso   1.00
C54    C     0.92862   0.30434   0.43535   0.00000  Uiso   1.00
C55    C     0.89979   0.22238   0.52946   0.00000  Uiso   1.00
C56    C     0.05365   0.43027   0.24634   0.00000  Uiso   1.00
C57    C     0.11996   0.49976   0.22019   0.00000  Uiso   1.00
C58    C     0.18379   0.50059   0.19729   0.00000  Uiso   1.00
C59    C     0.30263   0.53221   0.15360   0.00000  Uiso   1.00
C60    C     0.97281   0.29433   0.28001   0.00000  Uiso   1.00
C61    C     0.91430   0.31185   0.24826   0.00000  Uiso   1.00
C62    C     0.86294   0.26876   0.22433   0.00000  Uiso   1.00
C63    C     0.81408   0.29435   0.19709   0.00000  Uiso   1.00
C64    C     0.95607   0.29081   0.33826   0.00000  Uiso   1.00
C65    C     0.93984   0.23003   0.39000   0.00000  Uiso   1.00
C66    C     0.92614   0.23791   0.43853   0.00000  Uiso   1.00
C67    C     0.05118   0.36397   0.24951   0.00000  Uiso   1.00
C68    C     0.11492   0.36470   0.22665   0.00000  Uiso   1.00
C69    C     0.18131   0.43417   0.20046   0.00000  Uiso   1.00
H70    H     0.97929   0.46802   0.27170   0.00000  Uiso   1.00
H71    H     0.86991   0.45513   0.21543   0.00000  Uiso   1.00
H72    H     0.94680   0.41641   0.38107   0.00000  Uiso   1.00
H73    H     0.12186   0.55105   0.21774   0.00000  Uiso   1.00
H74    H     0.74753   0.41158   0.15447   0.00000  Uiso   1.00
H75    H     0.90969   0.32995   0.50373   0.00000  Uiso   1.00
H76    H     0.27883   0.61387   0.15931   0.00000  Uiso   1.00
H77    H     0.97088   0.24271   0.28248   0.00000  Uiso   1.00
H78    H     0.86104   0.21745   0.22680   0.00000  Uiso   1.00
H79    H     0.93793   0.17874   0.39244   0.00000  Uiso   1.00
H80    H     0.11298   0.31338   0.22911   0.00000  Uiso   1.00
H81    H     0.74032   0.21867   0.16369   0.00000  Uiso   1.00
H82    H     0.90249   0.13705   0.51296   0.00000  Uiso   1.00
H83    H     0.27163   0.42096   0.16854   0.00000  Uiso   1.00
O84    O     0.67180   0.30256   0.12228   0.00000  Uiso   1.00
O85    O     0.88457   0.19548   0.58049   0.00000  Uiso   1.00
O86    O     0.36886   0.56797   0.12863   0.00000  Uiso   1.00
N87    N     0.76092   0.36965   0.16427   0.00000  Uiso   1.00
N88    N     0.91252   0.29333   0.49081   0.00000  Uiso   1.00
N89    N     0.25764   0.55877   0.16882   0.00000  Uiso   1.00
N90    N     0.75704   0.26585   0.16923   0.00000  Uiso   1.00
N91    N     0.90864   0.18953   0.49578   0.00000  Uiso   1.00
N92    N     0.25376   0.45497   0.17379   0.00000  Uiso   1.00
C93    C     0.50517   0.49421   0.34949   0.00000  Uiso   1.00
C94    C     0.57223   0.51264   0.30726   0.00000  Uiso   1.00
C95    C     0.57051   0.47011   0.27896   0.00000  Uiso   1.00
C96    C     0.63787   0.49649   0.24206   0.00000  Uiso   1.00
C97    C     0.73189   0.51497   0.17776   0.00000  Uiso   1.00
C98    C     0.53423   0.49053   0.40402   0.00000  Uiso   1.00
C99    C     0.50054   0.42942   0.45709   0.00000  Uiso   1.00
C100   C     0.53590   0.43720   0.50165   0.00000  Uiso   1.00
C101   C     0.57087   0.42137   0.58759   0.00000  Uiso   1.00
C102   C     0.49312   0.56339   0.32677   0.00000  Uiso   1.00
C103   C     0.42487   0.56354   0.31489   0.00000  Uiso   1.00
C104   C     0.42562   0.63266   0.29441   0.00000  Uiso   1.00
C105   C     0.39677   0.72996   0.26040   0.00000  Uiso   1.00
C106   C     0.62785   0.61669   0.33427   0.00000  Uiso   1.00
C107   C     0.63887   0.57917   0.29899   0.00000  Uiso   1.00
C108   C     0.70625   0.60563   0.26212   0.00000  Uiso   1.00
C109   C     0.70463   0.56314   0.23378   0.00000  Uiso   1.00
C110   C     0.60086   0.55706   0.39576   0.00000  Uiso   1.00
C111   C     0.63628   0.56493   0.44025   0.00000  Uiso   1.00
C112   C     0.60266   0.50385   0.49337   0.00000  Uiso   1.00
C113   C     0.55976   0.62992   0.31850   0.00000  Uiso   1.00
C114   C     0.56061   0.69906   0.29805   0.00000  Uiso   1.00
C115   C     0.49238   0.69931   0.28613   0.00000  Uiso   1.00
H116   H     0.45329   0.44241   0.35593   0.00000  Uiso   1.00
H117   H     0.51893   0.41862   0.28537   0.00000  Uiso   1.00
H118   H     0.44897   0.37794   0.46347   0.00000  Uiso   1.00
H119   H     0.37331   0.51204   0.32129   0.00000  Uiso   1.00
H120   H     0.62111   0.42157   0.20352   0.00000  Uiso   1.00
H121   H     0.47357   0.33581   0.57906   0.00000  Uiso   1.00
H122   H     0.31403   0.61859   0.27924   0.00000  Uiso   1.00
H123   H     0.67974   0.66849   0.32784   0.00000  Uiso   1.00
H124   H     0.75781   0.65711   0.25573   0.00000  Uiso   1.00
H125   H     0.68784   0.61643   0.43384   0.00000  Uiso   1.00
H126   H     0.61219   0.75053   0.29165   0.00000  Uiso   1.00
H127   H     0.81500   0.61514   0.17947   0.00000  Uiso   1.00
H128   H     0.66745   0.52937   0.55501   0.00000  Uiso   1.00
H129   H     0.50791   0.81215   0.25518   0.00000  Uiso   1.00
O130   O     0.76534   0.50677   0.14459   0.00000  Uiso   1.00
O131   O     0.57175   0.39426   0.63728   0.00000  Uiso   1.00
O132   O     0.36245   0.76526   0.24392   0.00000  Uiso   1.00
N133   N     0.65602   0.46870   0.20775   0.00000  Uiso   1.00
N134   N     0.51808   0.38851   0.55885   0.00000  Uiso   1.00
N135   N     0.36893   0.65288   0.27856   0.00000  Uiso   1.00
N136   N     0.76035   0.57285   0.19480   0.00000  Uiso   1.00
N137   N     0.62241   0.49266   0.54591   0.00000  Uiso   1.00
N138   N     0.47325   0.75703   0.26561   0.00000  Uiso   1.00
C139   C     0.15109   0.95599   0.87560   0.00000  Uiso   1.00
C140   C     0.19246   0.04204   0.84378   0.00000  Uiso   1.00
C141   C     0.16193   0.08538   0.80916   0.00000  Uiso   1.00
C142   C     0.20899   0.16325   0.78386   0.00000  Uiso   1.00
C143   C     0.26182   0.29180   0.73311   0.00000  Uiso   1.00
C144   C     0.15295   0.93768   0.93792   0.00000  Uiso   1.00
C145   C     0.08920   0.89326   0.98245   0.00000  Uiso   1.00
C146   C     0.10301   0.88328   0.03639   0.00000  Uiso   1.00
C147   C     0.09450   0.84975   0.13179   0.00000  Uiso   1.00
C148   C     0.20234   0.93023   0.85649   0.00000  Uiso   1.00
C149   C     0.18012   0.87954   0.83257   0.00000  Uiso   1.00
C150   C     0.23551   0.86328   0.81798   0.00000  Uiso   1.00
C151   C     0.30369   0.81820   0.78695   0.00000  Uiso   1.00
C152   C     0.28895   0.01723   0.89223   0.00000  Uiso   1.00
C153   C     0.26733   0.07529   0.85282   0.00000  Uiso   1.00
C154   C     0.31446   0.15312   0.82756   0.00000  Uiso   1.00
C155   C     0.28401   0.19657   0.79291   0.00000  Uiso   1.00
C156   C     0.22782   0.97093   0.94695   0.00000  Uiso   1.00
C157   C     0.24173   0.96101   0.00084   0.00000  Uiso   1.00
C158   C     0.17802   0.91660   0.04544   0.00000  Uiso   1.00
C159   C     0.27722   0.96349   0.86552   0.00000  Uiso   1.00
C160   C     0.33265   0.94730   0.85097   0.00000  Uiso   1.00
C161   C     0.31052   0.89660   0.82702   0.00000  Uiso   1.00
H162   H     0.09279   0.93010   0.86857   0.00000  Uiso   1.00
H163   H     0.10398   0.05962   0.80219   0.00000  Uiso   1.00
H164   H     0.03127   0.86752   0.97545   0.00000  Uiso   1.00
H165   H     0.12217   0.85382   0.82559   0.00000  Uiso   1.00
H166   H     0.14939   0.21788   0.73259   0.00000  Uiso   1.00
H167   H     0.99607   0.81282   0.09791   0.00000  Uiso   1.00
H168   H     0.18777   0.78391   0.78192   0.00000  Uiso   1.00
H169   H     0.34725   0.04312   0.89926   0.00000  Uiso   1.00
H170   H     0.37240   0.17885   0.83456   0.00000  Uiso   1.00
H171   H     0.29968   0.98675   0.00781   0.00000  Uiso   1.00
H172   H     0.39059   0.97304   0.85796   0.00000  Uiso   1.00
H173   H     0.36725   0.31465   0.75886   0.00000  Uiso   1.00
H174   H     0.21393   0.90959   0.12419   0.00000  Uiso   1.00
H175   H     0.40562   0.88068   0.80819   0.00000  Uiso   1.00
O176   O     0.27027   0.35351   0.70263   0.00000  Uiso   1.00
O177   O     0.06911   0.82208   0.18192   0.00000  Uiso   1.00
O178   O     0.32062   0.78415   0.76734   0.00000  Uiso   1.00
N179   N     0.19722   0.22203   0.74764   0.00000  Uiso   1.00
N180   N     0.05387   0.84333   0.08920   0.00000  Uiso   1.00
N181   N     0.23309   0.81629   0.79379   0.00000  Uiso   1.00
N182   N     0.31445   0.27410   0.76178   0.00000  Uiso   1.00
N183   N     0.17110   0.89541   0.10334   0.00000  Uiso   1.00
N184   N     0.35031   0.86836   0.80792   0.00000  Uiso   1.00
C185   C     0.88408   0.37578   0.82504   0.00000  Uiso   1.00
C186   C     0.90697   0.33309   0.80069   0.00000  Uiso   1.00
C187   C     0.98180   0.35074   0.78218   0.00000  Uiso   1.00
C188   C     0.99066   0.30475   0.76133   0.00000  Uiso   1.00
C189   C     0.03591   0.24778   0.72389   0.00000  Uiso   1.00
C190   C     0.83257   0.31742   0.88330   0.00000  Uiso   1.00
C191   C     0.84484   0.32191   0.93424   0.00000  Uiso   1.00
C192   C     0.79106   0.26273   0.98292   0.00000  Uiso   1.00
C193   C     0.72077   0.18146   0.07373   0.00000  Uiso   1.00
C194   C     0.83227   0.39936   0.78831   0.00000  Uiso   1.00
C195   C     0.84428   0.47273   0.75939   0.00000  Uiso   1.00
C196   C     0.79024   0.48253   0.72811   0.00000  Uiso   1.00
C197   C     0.71948   0.52848   0.67143   0.00000  Uiso   1.00
C198   C     0.76675   0.26273   0.82093   0.00000  Uiso   1.00
C199   C     0.84324   0.27168   0.79846   0.00000  Uiso   1.00
C200   C     0.85199   0.22566   0.77763   0.00000  Uiso   1.00
C201   C     0.92682   0.24324   0.75909   0.00000  Uiso   1.00
C202   C     0.76884   0.25602   0.88107   0.00000  Uiso   1.00
C203   C     0.71503   0.19682   0.92969   0.00000  Uiso   1.00
C204   C     0.72722   0.20121   0.98069   0.00000  Uiso   1.00
C205   C     0.76855   0.33795   0.78607   0.00000  Uiso   1.00
C206   C     0.71447   0.34764   0.75484   0.00000  Uiso   1.00
C207   C     0.72639   0.42101   0.72587   0.00000  Uiso   1.00
H208   H     0.93369   0.42359   0.82678   0.00000  Uiso   1.00
H209   H     0.03111   0.39826   0.78392   0.00000  Uiso   1.00
H210   H     0.89416   0.36944   0.93595   0.00000  Uiso   1.00
H211   H     0.89360   0.52023   0.76113   0.00000  Uiso   1.00
H212   H     0.11101   0.34309   0.73543   0.00000  Uiso   1.00
H213   H     0.82224   0.28232   0.05600   0.00000  Uiso   1.00
H214   H     0.82106   0.60030   0.68735   0.00000  Uiso   1.00
H215   H     0.71713   0.21492   0.81919   0.00000  Uiso   1.00
H216   H     0.80266   0.17814   0.77591   0.00000  Uiso   1.00
H217   H     0.66572   0.14932   0.92795   0.00000  Uiso   1.00
H218   H     0.66516   0.30011   0.75312   0.00000  Uiso   1.00
H219   H     0.92560   0.16442   0.72894   0.00000  Uiso   1.00
H220   H     0.63682   0.10366   0.04951   0.00000  Uiso   1.00
H221   H     0.63564   0.42164   0.68085   0.00000  Uiso   1.00
O222   O     0.07848   0.23331   0.70387   0.00000  Uiso   1.00
O223   O     0.69961   0.15360   0.12444   0.00000  Uiso   1.00
O224   O     0.69807   0.57078   0.64078   0.00000  Uiso   1.00
N225   N     0.05563   0.30609   0.73983   0.00000  Uiso   1.00
N226   N     0.78565   0.24927   0.03955   0.00000  Uiso   1.00
N227   N     0.78454   0.54656   0.69490   0.00000  Uiso   1.00
N228   N     0.95586   0.20996   0.73634   0.00000  Uiso   1.00
N229   N     0.68588   0.15314   0.03605   0.00000  Uiso   1.00
N230   N     0.68477   0.45043   0.69140   0.00000  Uiso   1.00
C231   C     0.47919   0.49865   0.84921   0.00000  Uiso   1.00
C232   C     0.43384   0.52415   0.80651   0.00000  Uiso   1.00
C233   C     0.39293   0.48676   0.77530   0.00000  Uiso   1.00
C234   C     0.35526   0.51924   0.73848   0.00000  Uiso   1.00
C235   C     0.28433   0.54855   0.67300   0.00000  Uiso   1.00
C236   C     0.44657   0.49244   0.90488   0.00000  Uiso   1.00
C237   C     0.41637   0.42840   0.95639   0.00000  Uiso   1.00
C238   C     0.38942   0.43419   0.00237   0.00000  Uiso   1.00
C239   C     0.33830   0.41429   0.08963   0.00000  Uiso   1.00
C240   C     0.56117   0.56446   0.82946   0.00000  Uiso   1.00
C241   C     0.62733   0.56097   0.81757   0.00000  Uiso   1.00
C242   C     0.69687   0.62740   0.80007   0.00000  Uiso   1.00
C243   C     0.82368   0.71932   0.77024   0.00000  Uiso   1.00
C244   C     0.48504   0.62282   0.83930   0.00000  Uiso   1.00
C245   C     0.43702   0.59159   0.80112   0.00000  Uiso   1.00
C246   C     0.39941   0.62414   0.76433   0.00000  Uiso   1.00
C247   C     0.35845   0.58681   0.73308   0.00000  Uiso   1.00
C248   C     0.44975   0.55988   0.89949   0.00000  Uiso   1.00
C249   C     0.42285   0.56578   0.94541   0.00000  Uiso   1.00
C250   C     0.39261   0.50176   0.99697   0.00000  Uiso   1.00
C251   C     0.56435   0.63191   0.82407   0.00000  Uiso   1.00
C252   C     0.63380   0.69835   0.80660   0.00000  Uiso   1.00
C253   C     0.70006   0.69497   0.79468   0.00000  Uiso   1.00
H254   H     0.47671   0.44614   0.85341   0.00000  Uiso   1.00
H255   H     0.39048   0.43456   0.77949   0.00000  Uiso   1.00
H256   H     0.41392   0.37622   0.96054   0.00000  Uiso   1.00
H257   H     0.62484   0.50877   0.82175   0.00000  Uiso   1.00
H258   H     0.29625   0.45145   0.69517   0.00000  Uiso   1.00
H259   H     0.34571   0.32843   0.07694   0.00000  Uiso   1.00
H260   H     0.79048   0.60795   0.78426   0.00000  Uiso   1.00
H261   H     0.48752   0.67533   0.83510   0.00000  Uiso   1.00
H262   H     0.40188   0.67633   0.76017   0.00000  Uiso   1.00
H263   H     0.42532   0.61798   0.94123   0.00000  Uiso   1.00
H264   H     0.63624   0.75053   0.80243   0.00000  Uiso   1.00
H265   H     0.30549   0.64768   0.67949   0.00000  Uiso   1.00
H266   H     0.35496   0.52465   0.06126   0.00000  Uiso   1.00
H267   H     0.79973   0.80417   0.76859   0.00000  Uiso   1.00
O268   O     0.24431   0.54607   0.63839   0.00000  Uiso   1.00
O269   O     0.30922   0.38467   0.13925   0.00000  Uiso   1.00
O270   O     0.89275   0.75139   0.75527   0.00000  Uiso   1.00
N271   N     0.31019   0.49751   0.70176   0.00000  Uiso   1.00
N272   N     0.35642   0.38248   0.05869   0.00000  Uiso   1.00
N273   N     0.77225   0.64380   0.78507   0.00000  Uiso   1.00
N274   N     0.31517   0.60309   0.69332   0.00000  Uiso   1.00
N275   N     0.36140   0.48807   0.05025   0.00000  Uiso   1.00
N276   N     0.77723   0.74939   0.77664   0.00000  Uiso   1.00
C277   C     0.85594   0.52824   0.54313   0.00000  Uiso   1.00
C278   C     0.84231   0.44722   0.57240   0.00000  Uiso   1.00
C279   C     0.77472   0.38475   0.60849   0.00000  Uiso   1.00
C280   C     0.77376   0.31548   0.63097   0.00000  Uiso   1.00
C281   C     0.74280   0.19066   0.67841   0.00000  Uiso   1.00
C282   C     0.87992   0.55392   0.47980   0.00000  Uiso   1.00
C283   C     0.84396   0.58117   0.43804   0.00000  Uiso   1.00
C284   C     0.87466   0.60173   0.38257   0.00000  Uiso   1.00
C285   C     0.90212   0.64262   0.28624   0.00000  Uiso   1.00
C286   C     0.92679   0.57541   0.56055   0.00000  Uiso   1.00
C287   C     0.93025   0.62074   0.58668   0.00000  Uiso   1.00
C288   C     0.00043   0.65941   0.59918   0.00000  Uiso   1.00
C289   C     0.10066   0.73366   0.62823   0.00000  Uiso   1.00
C290   C     0.97443   0.51633   0.51887   0.00000  Uiso   1.00
C291   C     0.90667   0.44075   0.55922   0.00000  Uiso   1.00
C292   C     0.90582   0.37156   0.58165   0.00000  Uiso   1.00
C293   C     0.83824   0.30899   0.61778   0.00000  Uiso   1.00
C294   C     0.94428   0.54745   0.46662   0.00000  Uiso   1.00
C295   C     0.97505   0.56799   0.41120   0.00000  Uiso   1.00
C296   C     0.93914   0.59525   0.36937   0.00000  Uiso   1.00
C297   C     0.99115   0.56894   0.54738   0.00000  Uiso   1.00
C298   C     0.06135   0.60755   0.55984   0.00000  Uiso   1.00
C299   C     0.06491   0.65293   0.58598   0.00000  Uiso   1.00
H300   H     0.80584   0.53329   0.55338   0.00000  Uiso   1.00
H301   H     0.72492   0.38978   0.61867   0.00000  Uiso   1.00
H302   H     0.79416   0.58618   0.44825   0.00000  Uiso   1.00
H303   H     0.88043   0.62574   0.59687   0.00000  Uiso   1.00
H304   H     0.66359   0.22782   0.68524   0.00000  Uiso   1.00
H305   H     0.80958   0.64196   0.32589   0.00000  Uiso   1.00
H306   H     0.99152   0.72539   0.63927   0.00000  Uiso   1.00
H307   H     0.02454   0.51129   0.50861   0.00000  Uiso   1.00
H308   H     0.95563   0.36657   0.57145   0.00000  Uiso   1.00
H309   H     0.02486   0.56297   0.40102   0.00000  Uiso   1.00
H310   H     0.11114   0.60253   0.54964   0.00000  Uiso   1.00
H311   H     0.85084   0.20898   0.64690   0.00000  Uiso   1.00
H312   H     0.99683   0.62313   0.28755   0.00000  Uiso   1.00
H313   H     0.17877   0.70655   0.60094   0.00000  Uiso   1.00
O314   O     0.70793   0.12359   0.70820   0.00000  Uiso   1.00
O315   O     0.89947   0.66695   0.23675   0.00000  Uiso   1.00
O316   O     0.13817   0.77639   0.64790   0.00000  Uiso   1.00
N317   N     0.71712   0.24325   0.66760   0.00000  Uiso   1.00
N318   N     0.85361   0.63044   0.33163   0.00000  Uiso   1.00
N319   N     0.02371   0.70845   0.62460   0.00000  Uiso   1.00
N320   N     0.81788   0.23311   0.64697   0.00000  Uiso   1.00
N321   N     0.95437   0.62030   0.31100   0.00000  Uiso   1.00
N322   N     0.12447   0.69831   0.60398   0.00000  Uiso   1.00
C323   C     0.27141   0.04826   0.63087   0.00000  Uiso   1.00
C324   C     0.32933   0.08602   0.66164   0.00000  Uiso   1.00
C325   C     0.37770   0.06076   0.69006   0.00000  Uiso   1.00
C326   C     0.42654   0.10324   0.71549   0.00000  Uiso   1.00
C327   C     0.51644   0.15195   0.76369   0.00000  Uiso   1.00
C328   C     0.29191   0.10847   0.57009   0.00000  Uiso   1.00
C329   C     0.30882   0.10208   0.52154   0.00000  Uiso   1.00
C330   C     0.32615   0.16346   0.46989   0.00000  Uiso   1.00
C331   C     0.35791   0.24700   0.37597   0.00000  Uiso   1.00
C332   C     0.19346   0.03278   0.65717   0.00000  Uiso   1.00
C333   C     0.12758   0.96275   0.68182   0.00000  Uiso   1.00
C334   C     0.06201   0.96041   0.70348   0.00000  Uiso   1.00
C335   C     0.94091   0.92643   0.74476   0.00000  Uiso   1.00
C336   C     0.27210   0.16862   0.62549   0.00000  Uiso   1.00
C337   C     0.32970   0.15139   0.65872   0.00000  Uiso   1.00
C338   C     0.37847   0.19392   0.68411   0.00000  Uiso   1.00
C339   C     0.42691   0.16873   0.71256   0.00000  Uiso   1.00
C340   C     0.29229   0.17384   0.56717   0.00000  Uiso   1.00
C341   C     0.30959   0.23524   0.51559   0.00000  Uiso   1.00
C342   C     0.32653   0.22895   0.46697   0.00000  Uiso   1.00
C343   C     0.19384   0.09815   0.65425   0.00000  Uiso   1.00
C344   C     0.12835   0.09592   0.67587   0.00000  Uiso   1.00
C345   C     0.06239   0.02590   0.70056   0.00000  Uiso   1.00
H346   H     0.27111   0.99737   0.63314   0.00000  Uiso   1.00
H347   H     0.37740   0.01017   0.69231   0.00000  Uiso   1.00
H348   H     0.30852   0.05148   0.52381   0.00000  Uiso   1.00
H349   H     0.12731   0.91218   0.68408   0.00000  Uiso   1.00
H350   H     0.49543   0.05321   0.75660   0.00000  Uiso   1.00
H351   H     0.35016   0.14031   0.40132   0.00000  Uiso   1.00
H352   H     0.96804   0.84656   0.73927   0.00000  Uiso   1.00
H353   H     0.27239   0.21951   0.62321   0.00000  Uiso   1.00
H354   H     0.37875   0.24451   0.68184   0.00000  Uiso   1.00
H355   H     0.30987   0.28582   0.51334   0.00000  Uiso   1.00
H356   H     0.12866   0.14652   0.67361   0.00000  Uiso   1.00
H357   H     0.49653   0.24341   0.74810   0.00000  Uiso   1.00
H358   H     0.35126   0.33050   0.39282   0.00000  Uiso   1.00
H359   H     0.96914   0.03676   0.73077   0.00000  Uiso   1.00
O360   O     0.56594   0.16076   0.79108   0.00000  Uiso   1.00
O361   O     0.37534   0.27501   0.32496   0.00000  Uiso   1.00
O362   O     0.87402   0.88962   0.76835   0.00000  Uiso   1.00
N363   N     0.48108   0.09453   0.74657   0.00000  Uiso   1.00
N364   N     0.34528   0.17597   0.41440   0.00000  Uiso   1.00
N365   N     0.98802   0.90134   0.73034   0.00000  Uiso   1.00
N366   N     0.48167   0.19688   0.74199   0.00000  Uiso   1.00
N367   N     0.34587   0.27831   0.40982   0.00000  Uiso   1.00
N368   N     0.98861   0.00369   0.72576   0.00000  Uiso   1.00
C369   C     0.74980   0.97636   0.55545   0.00000  Uiso   1.00
C370   C     0.68369   0.95785   0.59859   0.00000  Uiso   1.00
C371   C     0.68700   0.99938   0.62816   0.00000  Uiso   1.00
C372   C     0.62029   0.97309   0.66572   0.00000  Uiso   1.00
C373   C     0.52790   0.95432   0.73151   0.00000  Uiso   1.00
C374   C     0.72008   0.98227   0.50089   0.00000  Uiso   1.00
C375   C     0.75400   0.04433   0.44831   0.00000  Uiso   1.00
C376   C     0.71793   0.03860   0.40363   0.00000  Uiso   1.00
C377   C     0.68207   0.05772   0.31773   0.00000  Uiso   1.00
C378   C     0.76041   0.90638   0.57655   0.00000  Uiso   1.00
C379   C     0.82826   0.90463   0.58759   0.00000  Uiso   1.00
C380   C     0.82615   0.83500   0.60660   0.00000  Uiso   1.00
C381   C     0.85291   0.73629   0.63818   0.00000  Uiso   1.00
C382   C     0.62544   0.85582   0.56958   0.00000  Uiso   1.00
C383   C     0.61614   0.89237   0.60626   0.00000  Uiso   1.00
C384   C     0.54941   0.86601   0.64379   0.00000  Uiso   1.00
C385   C     0.55262   0.90750   0.67341   0.00000  Uiso   1.00
C386   C     0.65253   0.91679   0.50856   0.00000  Uiso   1.00
C387   C     0.61641   0.91096   0.46394   0.00000  Uiso   1.00
C388   C     0.65026   0.97300   0.41132   0.00000  Uiso   1.00
C389   C     0.69287   0.84090   0.58423   0.00000  Uiso   1.00
C390   C     0.69066   0.77126   0.60322   0.00000  Uiso   1.00
C391   C     0.75848   0.76941   0.61428   0.00000  Uiso   1.00
H392   H     0.80239   0.02734   0.54948   0.00000  Uiso   1.00
H393   H     0.73929   0.05005   0.62221   0.00000  Uiso   1.00
H394   H     0.80628   0.09499   0.44239   0.00000  Uiso   1.00
H395   H     0.88052   0.95531   0.58165   0.00000  Uiso   1.00
H396   H     0.63952   0.04637   0.70621   0.00000  Uiso   1.00
H397   H     0.78080   0.14112   0.32705   0.00000  Uiso   1.00
H398   H     0.93734   0.84657   0.62070   0.00000  Uiso   1.00
H399   H     0.57285   0.80484   0.57555   0.00000  Uiso   1.00
H400   H     0.49714   0.81534   0.64971   0.00000  Uiso   1.00
H401   H     0.56414   0.86028   0.46989   0.00000  Uiso   1.00
H402   H     0.63837   0.72060   0.60915   0.00000  Uiso   1.00
H403   H     0.44299   0.85587   0.72853   0.00000  Uiso   1.00
H404   H     0.58427   0.95062   0.34937   0.00000  Uiso   1.00
H405   H     0.74081   0.65608   0.64302   0.00000  Uiso   1.00
O406   O     0.49559   0.96206   0.76568   0.00000  Uiso   1.00
O407   O     0.68095   0.08636   0.26823   0.00000  Uiso   1.00
O408   O     0.88633   0.69992   0.65349   0.00000  Uiso   1.00
N409   N     0.60366   0.00009   0.70130   0.00000  Uiso   1.00
N410   N     0.73574   0.08868   0.34681   0.00000  Uiso   1.00
N411   N     0.88210   0.81331   0.62133   0.00000  Uiso   1.00
N412   N     0.49791   0.89758   0.71331   0.00000  Uiso   1.00
N413   N     0.62999   0.98617   0.35882   0.00000  Uiso   1.00
N414   N     0.77635   0.71080   0.63334   0.00000  Uiso   1.00
C415   C     0.13320   0.53839   0.00401   0.00000  Uiso   1.00
C416   C     0.10335   0.45380   0.03869   0.00000  Uiso   1.00
C417   C     0.14416   0.42083   0.07082   0.00000  Uiso   1.00
C418   C     0.10667   0.34247   0.09945   0.00000  Uiso   1.00
C419   C     0.07182   0.21777   0.15379   0.00000  Uiso   1.00
C420   C     0.12496   0.54983   0.94348   0.00000  Uiso   1.00
C421   C     0.18395   0.59760   0.89557   0.00000  Uiso   1.00
C422   C     0.16465   0.60007   0.84405   0.00000  Uiso   1.00
C423   C     0.16335   0.62450   0.75058   0.00000  Uiso   1.00
C424   C     0.07595   0.55635   0.02553   0.00000  Uiso   1.00
C425   C     0.09372   0.60963   0.04660   0.00000  Uiso   1.00
C426   C     0.03316   0.61761   0.06415   0.00000  Uiso   1.00
C427   C     0.95575   0.65217   0.09808   0.00000  Uiso   1.00
C428   C     0.99406   0.45785   0.99771   0.00000  Uiso   1.00
C429   C     0.02777   0.41006   0.03526   0.00000  Uiso   1.00
C430   C     0.99021   0.33172   0.06385   0.00000  Uiso   1.00
C431   C     0.03096   0.29864   0.09602   0.00000  Uiso   1.00
C432   C     0.04939   0.50608   0.94006   0.00000  Uiso   1.00
C433   C     0.03000   0.50849   0.88860   0.00000  Uiso   1.00
C434   C     0.08894   0.55624   0.84062   0.00000  Uiso   1.00
C435   C     0.00037   0.51260   0.02211   0.00000  Uiso   1.00
C436   C     0.93977   0.52051   0.03963   0.00000  Uiso   1.00
C437   C     0.95744   0.57378   0.06072   0.00000  Uiso   1.00
H438   H     0.19204   0.57246   0.00667   0.00000  Uiso   1.00
H439   H     0.20265   0.45471   0.07345   0.00000  Uiso   1.00
H440   H     0.24243   0.63145   0.89823   0.00000  Uiso   1.00
H441   H     0.15221   0.64347   0.04924   0.00000  Uiso   1.00
H442   H     0.18108   0.30487   0.14597   0.00000  Uiso   1.00
H443   H     0.26496   0.67756   0.77650   0.00000  Uiso   1.00
H444   H     0.07472   0.70292   0.09493   0.00000  Uiso   1.00
H445   H     0.93521   0.42379   0.99504   0.00000  Uiso   1.00
H446   H     0.93172   0.29788   0.06120   0.00000  Uiso   1.00
H447   H     0.97151   0.47462   0.88596   0.00000  Uiso   1.00
H448   H     0.88129   0.48665   0.03698   0.00000  Uiso   1.00
H449   H     0.96119   0.17758   0.13602   0.00000  Uiso   1.00
H450   H     0.04507   0.55028   0.76654   0.00000  Uiso   1.00
H451   H     0.85483   0.57563   0.08498   0.00000  Uiso   1.00
O452   O     0.07348   0.16108   0.18471   0.00000  Uiso   1.00
O453   O     0.18352   0.65005   0.69997   0.00000  Uiso   1.00
O454   O     0.93393   0.68331   0.11775   0.00000  Uiso   1.00
N455   N     0.12981   0.29219   0.13456   0.00000  Uiso   1.00
N456   N     0.20823   0.64063   0.78912   0.00000  Uiso   1.00
N457   N     0.03037   0.66435   0.08682   0.00000  Uiso   1.00
N458   N     0.01148   0.22370   0.12921   0.00000  Uiso   1.00
N459   N     0.08990   0.57214   0.78377   0.00000  Uiso   1.00
N460   N     0.91205   0.59585   0.08147   0.00000  Uiso   1.00
C461   C     0.33073   0.09900   0.11751   0.00000  Uiso   1.00
C462   C     0.32010   0.13965   0.15016   0.00000  Uiso   1.00
C463   C     0.25066   0.12086   0.18025   0.00000  Uiso   1.00
C464   C     0.25306   0.16502   0.20723   0.00000  Uiso   1.00
C465   C     0.22600   0.21892   0.25837   0.00000  Uiso   1.00
C466   C     0.37006   0.15921   0.05684   0.00000  Uiso   1.00
C467   C     0.34262   0.15686   0.00846   0.00000  Uiso   1.00
C468   C     0.38708   0.21748   0.95689   0.00000  Uiso   1.00
C469   C     0.43760   0.30172   0.86314   0.00000  Uiso   1.00
C470   C     0.38956   0.07478   0.14170   0.00000  Uiso   1.00
C471   C     0.37853   0.00145   0.16466   0.00000  Uiso   1.00
C472   C     0.43941   0.99099   0.18453   0.00000  Uiso   1.00
C473   C     0.52022   0.94415   0.22254   0.00000  Uiso   1.00
C474   C     0.45846   0.21083   0.11194   0.00000  Uiso   1.00
C475   C     0.38948   0.20039   0.14713   0.00000  Uiso   1.00
C476   C     0.39199   0.24459   0.17408   0.00000  Uiso   1.00
C477   C     0.32256   0.22587   0.20420   0.00000  Uiso   1.00
C478   C     0.43943   0.21995   0.05381   0.00000  Uiso   1.00
C479   C     0.48394   0.28058   0.00230   0.00000  Uiso   1.00
C480   C     0.45658   0.27833   0.95386   0.00000  Uiso   1.00
C481   C     0.45894   0.13552   0.13868   0.00000  Uiso   1.00
C482   C     0.51985   0.12518   0.15850   0.00000  Uiso   1.00
C483   C     0.50892   0.05184   0.18150   0.00000  Uiso   1.00
H484   H     0.27671   0.05171   0.11986   0.00000  Uiso   1.00
H485   H     0.19698   0.07385   0.18257   0.00000  Uiso   1.00
H486   H     0.28893   0.10984   0.01082   0.00000  Uiso   1.00
H487   H     0.32483   0.95446   0.16700   0.00000  Uiso   1.00
H488   H     0.13917   0.12521   0.25075   0.00000  Uiso   1.00
H489   H     0.33307   0.20107   0.88859   0.00000  Uiso   1.00
H490   H     0.40878   0.87342   0.21793   0.00000  Uiso   1.00
H491   H     0.51248   0.25812   0.10958   0.00000  Uiso   1.00
H492   H     0.44569   0.29159   0.17173   0.00000  Uiso   1.00
H493   H     0.53763   0.32758   0.99997   0.00000  Uiso   1.00
H494   H     0.57354   0.17220   0.15615   0.00000  Uiso   1.00
H495   H     0.34103   0.30194   0.24195   0.00000  Uiso   1.00
H496   H     0.53493   0.37780   0.87979   0.00000  Uiso   1.00
H497   H     0.61064   0.05015   0.20913   0.00000  Uiso   1.00
O498   O     0.19191   0.23188   0.28740   0.00000  Uiso   1.00
O499   O     0.44629   0.33141   0.81227   0.00000  Uiso   1.00
O500   O     0.54562   0.90153   0.24435   0.00000  Uiso   1.00
N501   N     0.19585   0.16220   0.24016   0.00000  Uiso   1.00
N502   N     0.37712   0.23313   0.90156   0.00000  Uiso   1.00
N503   N     0.44791   0.92681   0.20945   0.00000  Uiso   1.00
N504   N     0.30447   0.25729   0.23542   0.00000  Uiso   1.00
N505   N     0.48574   0.32823   0.89683   0.00000  Uiso   1.00
N506   N     0.55653   0.02190   0.20472   0.00000  Uiso   1.00
C507   C     0.75296   0.93632   0.05490   0.00000  Uiso   1.00
C508   C     0.79558   0.90320   0.09587   0.00000  Uiso   1.00
C509   C     0.83989   0.93471   0.12899   0.00000  Uiso   1.00
C510   C     0.87420   0.89570   0.16373   0.00000  Uiso   1.00
C511   C     0.94189   0.85463   0.22710   0.00000  Uiso   1.00
C512   C     0.78226   0.94492   0.99731   0.00000  Uiso   1.00
C513   C     0.81536   0.01152   0.94755   0.00000  Uiso   1.00
C514   C     0.83844   0.00762   0.89932   0.00000  Uiso   1.00
C515   C     0.88540   0.03133   0.80966   0.00000  Uiso   1.00
C516   C     0.66880   0.87497   0.07343   0.00000  Uiso   1.00
C517   C     0.60649   0.88276   0.08766   0.00000  Uiso   1.00
C518   C     0.53404   0.81998   0.10350   0.00000  Uiso   1.00
C519   C     0.40483   0.73508   0.13203   0.00000  Uiso   1.00
C520   C     0.73510   0.81100   0.05771   0.00000  Uiso   1.00
C521   C     0.78588   0.83512   0.09740   0.00000  Uiso   1.00
C522   C     0.82013   0.79605   0.13210   0.00000  Uiso   1.00
C523   C     0.86448   0.82750   0.16526   0.00000  Uiso   1.00
C524   C     0.77256   0.87685   0.99883   0.00000  Uiso   1.00
C525   C     0.79560   0.87286   0.95066   0.00000  Uiso   1.00
C526   C     0.82873   0.93943   0.90085   0.00000  Uiso   1.00
C527   C     0.65910   0.80690   0.07496   0.00000  Uiso   1.00
C528   C     0.58673   0.74410   0.09077   0.00000  Uiso   1.00
C529   C     0.52432   0.75179   0.10503   0.00000  Uiso   1.00
H530   H     0.76051   0.98932   0.05371   0.00000  Uiso   1.00
H531   H     0.84739   0.98740   0.12779   0.00000  Uiso   1.00
H532   H     0.82285   0.06418   0.94639   0.00000  Uiso   1.00
H533   H     0.61402   0.93545   0.08648   0.00000  Uiso   1.00
H534   H     0.93945   0.95526   0.21059   0.00000  Uiso   1.00
H535   H     0.88769   0.11716   0.82808   0.00000  Uiso   1.00
H536   H     0.44732   0.84570   0.12348   0.00000  Uiso   1.00
H537   H     0.72755   0.75800   0.05889   0.00000  Uiso   1.00
H538   H     0.81261   0.74337   0.13327   0.00000  Uiso   1.00
H539   H     0.78808   0.82017   0.95186   0.00000  Uiso   1.00
H540   H     0.57925   0.69143   0.09195   0.00000  Uiso   1.00
H541   H     0.91123   0.75720   0.21503   0.00000  Uiso   1.00
H542   H     0.85947   0.91911   0.83252   0.00000  Uiso   1.00
H543   H     0.41910   0.64764   0.12792   0.00000  Uiso   1.00
O544   O     0.98191   0.85080   0.26163   0.00000  Uiso   1.00
O545   O     0.91399   0.06321   0.75979   0.00000  Uiso   1.00
O546   O     0.33624   0.70705   0.14735   0.00000  Uiso   1.00
N547   N     0.92112   0.91064   0.20144   0.00000  Uiso   1.00
N548   N     0.87274   0.06202   0.84381   0.00000  Uiso   1.00
N549   N     0.46103   0.80823   0.11998   0.00000  Uiso   1.00
N550   N     0.90593   0.80407   0.20383   0.00000  Uiso   1.00
N551   N     0.85755   0.95545   0.84620   0.00000  Uiso   1.00
N552   N     0.44584   0.70165   0.12237   0.00000  Uiso   1.00
