data_job_03958
_audit_creation_date              2018-12-19
_audit_creation_method            'Materials Studio'
_symmetry_space_group_name_H-M    'P1'
_symmetry_Int_Tables_number       1
_symmetry_cell_setting            triclinic
loop_
_symmetry_equiv_pos_as_xyz
  x,y,z
_cell_length_a                    23.8381
_cell_length_b                    23.1555
_cell_length_c                    12.7649
_cell_angle_alpha                 90.0000
_cell_angle_beta                  90.0000
_cell_angle_gamma                 90.0000
loop_
_atom_site_label
_atom_site_type_symbol
_atom_site_fract_x
_atom_site_fract_y
_atom_site_fract_z
_atom_site_U_iso_or_equiv
_atom_site_adp_type
_atom_site_occupancy
C1     C     0.83287   0.38302   0.90993   0.00000  Uiso   1.00
C2     C     0.87418   0.43111   0.88330   0.00000  Uiso   1.00
C3     C     0.89523   0.47162   0.95311   0.00000  Uiso   1.00
C4     C     0.93256   0.51211   0.91340   0.00000  Uiso   1.00
C5     C     0.99430   0.58682   0.88812   0.00000  Uiso   1.00
C6     C     0.78310   0.39103   0.83630   0.00000  Uiso   1.00
C7     C     0.72758   0.39782   0.86660   0.00000  Uiso   1.00
C8     C     0.68824   0.40455   0.78732   0.00000  Uiso   1.00
C9     C     0.60856   0.41698   0.68908   0.00000  Uiso   1.00
C10    C     0.86111   0.32682   0.87679   0.00000  Uiso   1.00
C11    C     0.87116   0.27963   0.94112   0.00000  Uiso   1.00
C12    C     0.89748   0.23230   0.89592   0.00000  Uiso   1.00
C13    C     0.93893   0.14504   0.86054   0.00000  Uiso   1.00
C14    C     0.86173   0.38288   0.71527   0.00000  Uiso   1.00
C15    C     0.88985   0.43104   0.77757   0.00000  Uiso   1.00
C16    C     0.92716   0.47147   0.73774   0.00000  Uiso   1.00
C17    C     0.94827   0.51203   0.80748   0.00000  Uiso   1.00
C18    C     0.79877   0.39095   0.73057   0.00000  Uiso   1.00
C19    C     0.75950   0.39767   0.65123   0.00000  Uiso   1.00
C20    C     0.70394   0.40448   0.68140   0.00000  Uiso   1.00
C21    C     0.87678   0.32675   0.77106   0.00000  Uiso   1.00
C22    C     0.90309   0.27947   0.72575   0.00000  Uiso   1.00
C23    C     0.91319   0.23222   0.79000   0.00000  Uiso   1.00
H24    H     0.82066   0.38308   0.99224   0.00000  Uiso   1.00
H25    H     0.88309   0.47167   0.03493   0.00000  Uiso   1.00
H26    H     0.71546   0.39787   0.94843   0.00000  Uiso   1.00
H27    H     0.85902   0.27970   0.02294   0.00000  Uiso   1.00
H28    H     0.95919   0.56987   0.03561   0.00000  Uiso   1.00
H29    H     0.60574   0.41425   0.85322   0.00000  Uiso   1.00
H30    H     0.90847   0.16506   0.01034   0.00000  Uiso   1.00
H31    H     0.87393   0.38282   0.63295   0.00000  Uiso   1.00
H32    H     0.93928   0.47140   0.65591   0.00000  Uiso   1.00
H33    H     0.77165   0.39760   0.56942   0.00000  Uiso   1.00
H34    H     0.91521   0.27943   0.64393   0.00000  Uiso   1.00
H35    H     0.00480   0.56965   0.72799   0.00000  Uiso   1.00
H36    H     0.65134   0.41403   0.54560   0.00000  Uiso   1.00
H37    H     0.95407   0.16484   0.70272   0.00000  Uiso   1.00
O38    O     0.02401   0.62805   0.90338   0.00000  Uiso   1.00
O39    O     0.56029   0.42387   0.66410   0.00000  Uiso   1.00
O40    O     0.95747   0.09694   0.87024   0.00000  Uiso   1.00
N41    N     0.96097   0.55766   0.96006   0.00000  Uiso   1.00
N42    N     0.63051   0.41217   0.78954   0.00000  Uiso   1.00
N43    N     0.91352   0.17919   0.93643   0.00000  Uiso   1.00
N44    N     0.98551   0.55754   0.79454   0.00000  Uiso   1.00
N45    N     0.65505   0.41205   0.62402   0.00000  Uiso   1.00
N46    N     0.93806   0.17907   0.77090   0.00000  Uiso   1.00
C47    C     0.66713   0.61698   0.40993   0.00000  Uiso   1.00
C48    C     0.62582   0.56889   0.38330   0.00000  Uiso   1.00
C49    C     0.60477   0.52838   0.45311   0.00000  Uiso   1.00
C50    C     0.56744   0.48789   0.41340   0.00000  Uiso   1.00
C51    C     0.50570   0.41318   0.38812   0.00000  Uiso   1.00
C52    C     0.71690   0.60897   0.33630   0.00000  Uiso   1.00
C53    C     0.77242   0.60218   0.36660   0.00000  Uiso   1.00
C54    C     0.81176   0.59545   0.28732   0.00000  Uiso   1.00
C55    C     0.89144   0.58302   0.18908   0.00000  Uiso   1.00
C56    C     0.63889   0.67318   0.37679   0.00000  Uiso   1.00
C57    C     0.62884   0.72037   0.44112   0.00000  Uiso   1.00
C58    C     0.60252   0.76770   0.39592   0.00000  Uiso   1.00
C59    C     0.56107   0.85496   0.36054   0.00000  Uiso   1.00
C60    C     0.63827   0.61712   0.21527   0.00000  Uiso   1.00
C61    C     0.61015   0.56896   0.27757   0.00000  Uiso   1.00
C62    C     0.57284   0.52853   0.23774   0.00000  Uiso   1.00
C63    C     0.55173   0.48797   0.30748   0.00000  Uiso   1.00
C64    C     0.70123   0.60905   0.23057   0.00000  Uiso   1.00
C65    C     0.74050   0.60233   0.15123   0.00000  Uiso   1.00
C66    C     0.79606   0.59552   0.18140   0.00000  Uiso   1.00
C67    C     0.62322   0.67325   0.27106   0.00000  Uiso   1.00
C68    C     0.59691   0.72053   0.22575   0.00000  Uiso   1.00
C69    C     0.58681   0.76778   0.29000   0.00000  Uiso   1.00
H70    H     0.67934   0.61692   0.49224   0.00000  Uiso   1.00
H71    H     0.61691   0.52833   0.53493   0.00000  Uiso   1.00
H72    H     0.78454   0.60213   0.44843   0.00000  Uiso   1.00
H73    H     0.64098   0.72030   0.52294   0.00000  Uiso   1.00
H74    H     0.54081   0.43013   0.53561   0.00000  Uiso   1.00
H75    H     0.89426   0.58575   0.35322   0.00000  Uiso   1.00
H76    H     0.59153   0.83494   0.51034   0.00000  Uiso   1.00
H77    H     0.62607   0.61718   0.13295   0.00000  Uiso   1.00
H78    H     0.56072   0.52860   0.15591   0.00000  Uiso   1.00
H79    H     0.72835   0.60240   0.06942   0.00000  Uiso   1.00
H80    H     0.58479   0.72057   0.14393   0.00000  Uiso   1.00
H81    H     0.49520   0.43035   0.22799   0.00000  Uiso   1.00
H82    H     0.84866   0.58597   0.04560   0.00000  Uiso   1.00
H83    H     0.54593   0.83516   0.20272   0.00000  Uiso   1.00
O84    O     0.47599   0.37195   0.40338   0.00000  Uiso   1.00
O85    O     0.93971   0.57613   0.16410   0.00000  Uiso   1.00
O86    O     0.54253   0.90306   0.37024   0.00000  Uiso   1.00
N87    N     0.53903   0.44234   0.46006   0.00000  Uiso   1.00
N88    N     0.86949   0.58783   0.28954   0.00000  Uiso   1.00
N89    N     0.58648   0.82081   0.43643   0.00000  Uiso   1.00
N90    N     0.51449   0.44246   0.29454   0.00000  Uiso   1.00
N91    N     0.84495   0.58795   0.12402   0.00000  Uiso   1.00
N92    N     0.56194   0.82093   0.27090   0.00000  Uiso   1.00
C93    C     0.16713   0.88302   0.59007   0.00000  Uiso   1.00
C94    C     0.12582   0.93111   0.61670   0.00000  Uiso   1.00
C95    C     0.10477   0.97162   0.54689   0.00000  Uiso   1.00
C96    C     0.06744   0.01211   0.58660   0.00000  Uiso   1.00
C97    C     0.00570   0.08682   0.61188   0.00000  Uiso   1.00
C98    C     0.21690   0.89103   0.66370   0.00000  Uiso   1.00
C99    C     0.27242   0.89782   0.63340   0.00000  Uiso   1.00
C100   C     0.31176   0.90455   0.71268   0.00000  Uiso   1.00
C101   C     0.39144   0.91698   0.81092   0.00000  Uiso   1.00
C102   C     0.13889   0.82682   0.62321   0.00000  Uiso   1.00
C103   C     0.12884   0.77963   0.55888   0.00000  Uiso   1.00
C104   C     0.10252   0.73230   0.60408   0.00000  Uiso   1.00
C105   C     0.06107   0.64504   0.63946   0.00000  Uiso   1.00
C106   C     0.13827   0.88288   0.78473   0.00000  Uiso   1.00
C107   C     0.11015   0.93104   0.72243   0.00000  Uiso   1.00
C108   C     0.07284   0.97147   0.76226   0.00000  Uiso   1.00
C109   C     0.05173   0.01203   0.69252   0.00000  Uiso   1.00
C110   C     0.20123   0.89095   0.76943   0.00000  Uiso   1.00
C111   C     0.24050   0.89767   0.84877   0.00000  Uiso   1.00
C112   C     0.29606   0.90448   0.81860   0.00000  Uiso   1.00
C113   C     0.12322   0.82675   0.72894   0.00000  Uiso   1.00
C114   C     0.09691   0.77947   0.77425   0.00000  Uiso   1.00
C115   C     0.08681   0.73222   0.71000   0.00000  Uiso   1.00
H116   H     0.17934   0.88308   0.50776   0.00000  Uiso   1.00
H117   H     0.11691   0.97167   0.46507   0.00000  Uiso   1.00
H118   H     0.28454   0.89787   0.55157   0.00000  Uiso   1.00
H119   H     0.14098   0.77970   0.47706   0.00000  Uiso   1.00
H120   H     0.04081   0.06987   0.46439   0.00000  Uiso   1.00
H121   H     0.39426   0.91425   0.64678   0.00000  Uiso   1.00
H122   H     0.09153   0.66506   0.48966   0.00000  Uiso   1.00
H123   H     0.12607   0.88282   0.86705   0.00000  Uiso   1.00
H124   H     0.06072   0.97140   0.84409   0.00000  Uiso   1.00
H125   H     0.22835   0.89760   0.93058   0.00000  Uiso   1.00
H126   H     0.08479   0.77943   0.85607   0.00000  Uiso   1.00
H127   H     0.99520   0.06965   0.77201   0.00000  Uiso   1.00
H128   H     0.34866   0.91403   0.95440   0.00000  Uiso   1.00
H129   H     0.04593   0.66484   0.79728   0.00000  Uiso   1.00
O130   O     0.97599   0.12805   0.59662   0.00000  Uiso   1.00
O131   O     0.43971   0.92387   0.83590   0.00000  Uiso   1.00
O132   O     0.04253   0.59694   0.62976   0.00000  Uiso   1.00
N133   N     0.03903   0.05766   0.53994   0.00000  Uiso   1.00
N134   N     0.36949   0.91217   0.71046   0.00000  Uiso   1.00
N135   N     0.08648   0.67919   0.56357   0.00000  Uiso   1.00
N136   N     0.01449   0.05754   0.70546   0.00000  Uiso   1.00
N137   N     0.34495   0.91205   0.87598   0.00000  Uiso   1.00
N138   N     0.06194   0.67907   0.72910   0.00000  Uiso   1.00
C139   C     0.33287   0.11698   0.09007   0.00000  Uiso   1.00
C140   C     0.37418   0.06889   0.11670   0.00000  Uiso   1.00
C141   C     0.39523   0.02838   0.04689   0.00000  Uiso   1.00
C142   C     0.43256   0.98789   0.08660   0.00000  Uiso   1.00
C143   C     0.49430   0.91318   0.11188   0.00000  Uiso   1.00
C144   C     0.28310   0.10897   0.16370   0.00000  Uiso   1.00
C145   C     0.22758   0.10218   0.13340   0.00000  Uiso   1.00
C146   C     0.18824   0.09545   0.21268   0.00000  Uiso   1.00
C147   C     0.10856   0.08302   0.31092   0.00000  Uiso   1.00
C148   C     0.36111   0.17318   0.12321   0.00000  Uiso   1.00
C149   C     0.37116   0.22037   0.05888   0.00000  Uiso   1.00
C150   C     0.39748   0.26770   0.10408   0.00000  Uiso   1.00
C151   C     0.43893   0.35496   0.13946   0.00000  Uiso   1.00
C152   C     0.36173   0.11712   0.28473   0.00000  Uiso   1.00
C153   C     0.38985   0.06896   0.22243   0.00000  Uiso   1.00
C154   C     0.42716   0.02853   0.26226   0.00000  Uiso   1.00
C155   C     0.44827   0.98797   0.19252   0.00000  Uiso   1.00
C156   C     0.29877   0.10905   0.26943   0.00000  Uiso   1.00
C157   C     0.25950   0.10233   0.34877   0.00000  Uiso   1.00
C158   C     0.20394   0.09552   0.31860   0.00000  Uiso   1.00
C159   C     0.37678   0.17325   0.22894   0.00000  Uiso   1.00
C160   C     0.40309   0.22053   0.27425   0.00000  Uiso   1.00
C161   C     0.41319   0.26778   0.21000   0.00000  Uiso   1.00
H162   H     0.32066   0.11692   0.00776   0.00000  Uiso   1.00
H163   H     0.38309   0.02833   0.96507   0.00000  Uiso   1.00
H164   H     0.21546   0.10213   0.05157   0.00000  Uiso   1.00
H165   H     0.35902   0.22030   0.97706   0.00000  Uiso   1.00
H166   H     0.45919   0.93013   0.96439   0.00000  Uiso   1.00
H167   H     0.10574   0.08575   0.14678   0.00000  Uiso   1.00
H168   H     0.40847   0.33494   0.98966   0.00000  Uiso   1.00
H169   H     0.37393   0.11718   0.36705   0.00000  Uiso   1.00
H170   H     0.43928   0.02860   0.34409   0.00000  Uiso   1.00
H171   H     0.27165   0.10240   0.43058   0.00000  Uiso   1.00
H172   H     0.41521   0.22057   0.35607   0.00000  Uiso   1.00
H173   H     0.50480   0.93035   0.27201   0.00000  Uiso   1.00
H174   H     0.15134   0.08597   0.45440   0.00000  Uiso   1.00
H175   H     0.45407   0.33516   0.29728   0.00000  Uiso   1.00
O176   O     0.52401   0.87195   0.09662   0.00000  Uiso   1.00
O177   O     0.06029   0.07613   0.33590   0.00000  Uiso   1.00
O178   O     0.45747   0.40306   0.12976   0.00000  Uiso   1.00
N179   N     0.46097   0.94234   0.03994   0.00000  Uiso   1.00
N180   N     0.13051   0.08783   0.21046   0.00000  Uiso   1.00
N181   N     0.41352   0.32081   0.06357   0.00000  Uiso   1.00
N182   N     0.48551   0.94246   0.20546   0.00000  Uiso   1.00
N183   N     0.15505   0.08795   0.37598   0.00000  Uiso   1.00
N184   N     0.43806   0.32093   0.22910   0.00000  Uiso   1.00
C185   C     0.16713   0.61698   0.09007   0.00000  Uiso   1.00
C186   C     0.12582   0.56889   0.11670   0.00000  Uiso   1.00
C187   C     0.10477   0.52838   0.04689   0.00000  Uiso   1.00
C188   C     0.06744   0.48789   0.08660   0.00000  Uiso   1.00
C189   C     0.00570   0.41318   0.11188   0.00000  Uiso   1.00
C190   C     0.21690   0.60897   0.16370   0.00000  Uiso   1.00
C191   C     0.27242   0.60218   0.13340   0.00000  Uiso   1.00
C192   C     0.31176   0.59545   0.21268   0.00000  Uiso   1.00
C193   C     0.39144   0.58302   0.31092   0.00000  Uiso   1.00
C194   C     0.13889   0.67318   0.12321   0.00000  Uiso   1.00
C195   C     0.12884   0.72037   0.05888   0.00000  Uiso   1.00
C196   C     0.10252   0.76770   0.10408   0.00000  Uiso   1.00
C197   C     0.06107   0.85496   0.13946   0.00000  Uiso   1.00
C198   C     0.13827   0.61712   0.28473   0.00000  Uiso   1.00
C199   C     0.11015   0.56896   0.22243   0.00000  Uiso   1.00
C200   C     0.07284   0.52853   0.26226   0.00000  Uiso   1.00
C201   C     0.05173   0.48797   0.19252   0.00000  Uiso   1.00
C202   C     0.20123   0.60905   0.26943   0.00000  Uiso   1.00
C203   C     0.24050   0.60233   0.34877   0.00000  Uiso   1.00
C204   C     0.29606   0.59552   0.31860   0.00000  Uiso   1.00
C205   C     0.12322   0.67325   0.22894   0.00000  Uiso   1.00
C206   C     0.09691   0.72053   0.27425   0.00000  Uiso   1.00
C207   C     0.08681   0.76778   0.21000   0.00000  Uiso   1.00
H208   H     0.17934   0.61692   0.00776   0.00000  Uiso   1.00
H209   H     0.11691   0.52833   0.96507   0.00000  Uiso   1.00
H210   H     0.28454   0.60213   0.05157   0.00000  Uiso   1.00
H211   H     0.14098   0.72030   0.97706   0.00000  Uiso   1.00
H212   H     0.04081   0.43013   0.96439   0.00000  Uiso   1.00
H213   H     0.39426   0.58575   0.14678   0.00000  Uiso   1.00
H214   H     0.09153   0.83494   0.98966   0.00000  Uiso   1.00
H215   H     0.12607   0.61718   0.36705   0.00000  Uiso   1.00
H216   H     0.06072   0.52860   0.34409   0.00000  Uiso   1.00
H217   H     0.22835   0.60240   0.43058   0.00000  Uiso   1.00
H218   H     0.08479   0.72057   0.35607   0.00000  Uiso   1.00
H219   H     0.99520   0.43035   0.27201   0.00000  Uiso   1.00
H220   H     0.34866   0.58597   0.45440   0.00000  Uiso   1.00
H221   H     0.04593   0.83516   0.29728   0.00000  Uiso   1.00
O222   O     0.97599   0.37195   0.09662   0.00000  Uiso   1.00
O223   O     0.43971   0.57613   0.33590   0.00000  Uiso   1.00
O224   O     0.04253   0.90306   0.12976   0.00000  Uiso   1.00
N225   N     0.03903   0.44234   0.03994   0.00000  Uiso   1.00
N226   N     0.36949   0.58783   0.21046   0.00000  Uiso   1.00
N227   N     0.08648   0.82081   0.06357   0.00000  Uiso   1.00
N228   N     0.01449   0.44246   0.20546   0.00000  Uiso   1.00
N229   N     0.34495   0.58795   0.37598   0.00000  Uiso   1.00
N230   N     0.06194   0.82093   0.22910   0.00000  Uiso   1.00
C231   C     0.33287   0.38302   0.59007   0.00000  Uiso   1.00
C232   C     0.37418   0.43111   0.61670   0.00000  Uiso   1.00
C233   C     0.39523   0.47162   0.54689   0.00000  Uiso   1.00
C234   C     0.43256   0.51211   0.58660   0.00000  Uiso   1.00
C235   C     0.49430   0.58682   0.61188   0.00000  Uiso   1.00
C236   C     0.28310   0.39103   0.66370   0.00000  Uiso   1.00
C237   C     0.22758   0.39782   0.63340   0.00000  Uiso   1.00
C238   C     0.18824   0.40455   0.71268   0.00000  Uiso   1.00
C239   C     0.10856   0.41698   0.81092   0.00000  Uiso   1.00
C240   C     0.36111   0.32682   0.62321   0.00000  Uiso   1.00
C241   C     0.37116   0.27963   0.55888   0.00000  Uiso   1.00
C242   C     0.39748   0.23230   0.60408   0.00000  Uiso   1.00
C243   C     0.43893   0.14504   0.63946   0.00000  Uiso   1.00
C244   C     0.36173   0.38288   0.78473   0.00000  Uiso   1.00
C245   C     0.38985   0.43104   0.72243   0.00000  Uiso   1.00
C246   C     0.42716   0.47147   0.76226   0.00000  Uiso   1.00
C247   C     0.44827   0.51203   0.69252   0.00000  Uiso   1.00
C248   C     0.29877   0.39095   0.76943   0.00000  Uiso   1.00
C249   C     0.25950   0.39767   0.84877   0.00000  Uiso   1.00
C250   C     0.20394   0.40448   0.81860   0.00000  Uiso   1.00
C251   C     0.37678   0.32675   0.72894   0.00000  Uiso   1.00
C252   C     0.40309   0.27947   0.77425   0.00000  Uiso   1.00
C253   C     0.41319   0.23222   0.71000   0.00000  Uiso   1.00
H254   H     0.32066   0.38308   0.50776   0.00000  Uiso   1.00
H255   H     0.38309   0.47167   0.46507   0.00000  Uiso   1.00
H256   H     0.21546   0.39787   0.55157   0.00000  Uiso   1.00
H257   H     0.35902   0.27970   0.47706   0.00000  Uiso   1.00
H258   H     0.45919   0.56987   0.46439   0.00000  Uiso   1.00
H259   H     0.10574   0.41425   0.64678   0.00000  Uiso   1.00
H260   H     0.40847   0.16506   0.48966   0.00000  Uiso   1.00
H261   H     0.37393   0.38282   0.86705   0.00000  Uiso   1.00
H262   H     0.43928   0.47140   0.84409   0.00000  Uiso   1.00
H263   H     0.27165   0.39760   0.93058   0.00000  Uiso   1.00
H264   H     0.41521   0.27943   0.85607   0.00000  Uiso   1.00
H265   H     0.50480   0.56965   0.77201   0.00000  Uiso   1.00
H266   H     0.15134   0.41403   0.95440   0.00000  Uiso   1.00
H267   H     0.45407   0.16484   0.79728   0.00000  Uiso   1.00
O268   O     0.52401   0.62805   0.59662   0.00000  Uiso   1.00
O269   O     0.06029   0.42387   0.83590   0.00000  Uiso   1.00
O270   O     0.45747   0.09694   0.62976   0.00000  Uiso   1.00
N271   N     0.46097   0.55766   0.53994   0.00000  Uiso   1.00
N272   N     0.13051   0.41217   0.71046   0.00000  Uiso   1.00
N273   N     0.41352   0.17919   0.56357   0.00000  Uiso   1.00
N274   N     0.48551   0.55754   0.70546   0.00000  Uiso   1.00
N275   N     0.15505   0.41205   0.87598   0.00000  Uiso   1.00
N276   N     0.43806   0.17907   0.72910   0.00000  Uiso   1.00
C277   C     0.83287   0.11698   0.40993   0.00000  Uiso   1.00
C278   C     0.87418   0.06889   0.38330   0.00000  Uiso   1.00
C279   C     0.89523   0.02838   0.45311   0.00000  Uiso   1.00
C280   C     0.93256   0.98789   0.41340   0.00000  Uiso   1.00
C281   C     0.99430   0.91318   0.38812   0.00000  Uiso   1.00
C282   C     0.78310   0.10897   0.33630   0.00000  Uiso   1.00
C283   C     0.72758   0.10218   0.36660   0.00000  Uiso   1.00
C284   C     0.68824   0.09545   0.28732   0.00000  Uiso   1.00
C285   C     0.60856   0.08302   0.18908   0.00000  Uiso   1.00
C286   C     0.86111   0.17318   0.37679   0.00000  Uiso   1.00
C287   C     0.87116   0.22037   0.44112   0.00000  Uiso   1.00
C288   C     0.89748   0.26770   0.39592   0.00000  Uiso   1.00
C289   C     0.93893   0.35496   0.36054   0.00000  Uiso   1.00
C290   C     0.86173   0.11712   0.21527   0.00000  Uiso   1.00
C291   C     0.88985   0.06896   0.27757   0.00000  Uiso   1.00
C292   C     0.92716   0.02853   0.23774   0.00000  Uiso   1.00
C293   C     0.94827   0.98797   0.30748   0.00000  Uiso   1.00
C294   C     0.79877   0.10905   0.23057   0.00000  Uiso   1.00
C295   C     0.75950   0.10233   0.15123   0.00000  Uiso   1.00
C296   C     0.70394   0.09552   0.18140   0.00000  Uiso   1.00
C297   C     0.87678   0.17325   0.27106   0.00000  Uiso   1.00
C298   C     0.90309   0.22053   0.22575   0.00000  Uiso   1.00
C299   C     0.91319   0.26778   0.29000   0.00000  Uiso   1.00
H300   H     0.82066   0.11692   0.49224   0.00000  Uiso   1.00
H301   H     0.88309   0.02833   0.53493   0.00000  Uiso   1.00
H302   H     0.71546   0.10213   0.44843   0.00000  Uiso   1.00
H303   H     0.85902   0.22030   0.52294   0.00000  Uiso   1.00
H304   H     0.95919   0.93013   0.53561   0.00000  Uiso   1.00
H305   H     0.60574   0.08575   0.35322   0.00000  Uiso   1.00
H306   H     0.90847   0.33494   0.51034   0.00000  Uiso   1.00
H307   H     0.87393   0.11718   0.13295   0.00000  Uiso   1.00
H308   H     0.93928   0.02860   0.15591   0.00000  Uiso   1.00
H309   H     0.77165   0.10240   0.06942   0.00000  Uiso   1.00
H310   H     0.91521   0.22057   0.14393   0.00000  Uiso   1.00
H311   H     0.00480   0.93035   0.22799   0.00000  Uiso   1.00
H312   H     0.65134   0.08597   0.04560   0.00000  Uiso   1.00
H313   H     0.95407   0.33516   0.20272   0.00000  Uiso   1.00
O314   O     0.02401   0.87195   0.40338   0.00000  Uiso   1.00
O315   O     0.56029   0.07613   0.16410   0.00000  Uiso   1.00
O316   O     0.95747   0.40306   0.37024   0.00000  Uiso   1.00
N317   N     0.96097   0.94234   0.46006   0.00000  Uiso   1.00
N318   N     0.63051   0.08783   0.28954   0.00000  Uiso   1.00
N319   N     0.91352   0.32081   0.43643   0.00000  Uiso   1.00
N320   N     0.98551   0.94246   0.29454   0.00000  Uiso   1.00
N321   N     0.65505   0.08795   0.12402   0.00000  Uiso   1.00
N322   N     0.93806   0.32093   0.27090   0.00000  Uiso   1.00
C323   C     0.66713   0.88302   0.90993   0.00000  Uiso   1.00
C324   C     0.62582   0.93111   0.88330   0.00000  Uiso   1.00
C325   C     0.60477   0.97162   0.95311   0.00000  Uiso   1.00
C326   C     0.56744   0.01211   0.91340   0.00000  Uiso   1.00
C327   C     0.50570   0.08682   0.88812   0.00000  Uiso   1.00
C328   C     0.71690   0.89103   0.83630   0.00000  Uiso   1.00
C329   C     0.77242   0.89782   0.86660   0.00000  Uiso   1.00
C330   C     0.81176   0.90455   0.78732   0.00000  Uiso   1.00
C331   C     0.89144   0.91698   0.68908   0.00000  Uiso   1.00
C332   C     0.63889   0.82682   0.87679   0.00000  Uiso   1.00
C333   C     0.62884   0.77963   0.94112   0.00000  Uiso   1.00
C334   C     0.60252   0.73230   0.89592   0.00000  Uiso   1.00
C335   C     0.56107   0.64504   0.86054   0.00000  Uiso   1.00
C336   C     0.63827   0.88288   0.71527   0.00000  Uiso   1.00
C337   C     0.61015   0.93104   0.77757   0.00000  Uiso   1.00
C338   C     0.57284   0.97147   0.73774   0.00000  Uiso   1.00
C339   C     0.55173   0.01203   0.80748   0.00000  Uiso   1.00
C340   C     0.70123   0.89095   0.73057   0.00000  Uiso   1.00
C341   C     0.74050   0.89767   0.65123   0.00000  Uiso   1.00
C342   C     0.79606   0.90448   0.68140   0.00000  Uiso   1.00
C343   C     0.62322   0.82675   0.77106   0.00000  Uiso   1.00
C344   C     0.59691   0.77947   0.72575   0.00000  Uiso   1.00
C345   C     0.58681   0.73222   0.79000   0.00000  Uiso   1.00
H346   H     0.67934   0.88308   0.99224   0.00000  Uiso   1.00
H347   H     0.61691   0.97167   0.03493   0.00000  Uiso   1.00
H348   H     0.78454   0.89787   0.94843   0.00000  Uiso   1.00
H349   H     0.64098   0.77970   0.02294   0.00000  Uiso   1.00
H350   H     0.54081   0.06987   0.03561   0.00000  Uiso   1.00
H351   H     0.89426   0.91425   0.85322   0.00000  Uiso   1.00
H352   H     0.59153   0.66506   0.01034   0.00000  Uiso   1.00
H353   H     0.62607   0.88282   0.63295   0.00000  Uiso   1.00
H354   H     0.56072   0.97140   0.65591   0.00000  Uiso   1.00
H355   H     0.72835   0.89760   0.56942   0.00000  Uiso   1.00
H356   H     0.58479   0.77943   0.64393   0.00000  Uiso   1.00
H357   H     0.49520   0.06965   0.72799   0.00000  Uiso   1.00
H358   H     0.84866   0.91403   0.54560   0.00000  Uiso   1.00
H359   H     0.54593   0.66484   0.70272   0.00000  Uiso   1.00
O360   O     0.47599   0.12805   0.90338   0.00000  Uiso   1.00
O361   O     0.93971   0.92387   0.66410   0.00000  Uiso   1.00
O362   O     0.54253   0.59694   0.87024   0.00000  Uiso   1.00
N363   N     0.53903   0.05766   0.96006   0.00000  Uiso   1.00
N364   N     0.86949   0.91217   0.78954   0.00000  Uiso   1.00
N365   N     0.58648   0.67919   0.93643   0.00000  Uiso   1.00
N366   N     0.51449   0.05754   0.79454   0.00000  Uiso   1.00
N367   N     0.84495   0.91205   0.62402   0.00000  Uiso   1.00
N368   N     0.56194   0.67907   0.77090   0.00000  Uiso   1.00
