data_job_06894
_audit_creation_date              2018-12-19
_audit_creation_method            'Materials Studio'
_symmetry_space_group_name_H-M    'P1'
_symmetry_Int_Tables_number       1
_symmetry_cell_setting            triclinic
loop_
_symmetry_equiv_pos_as_xyz
  x,y,z
_cell_length_a                    23.0618
_cell_length_b                    22.7316
_cell_length_c                    24.7330
_cell_angle_alpha                 92.6074
_cell_angle_beta                  93.9263
_cell_angle_gamma                 104.7490
loop_
_atom_site_label
_atom_site_type_symbol
_atom_site_fract_x
_atom_site_fract_y
_atom_site_fract_z
_atom_site_U_iso_or_equiv
_atom_site_adp_type
_atom_site_occupancy
C1     C     0.82118   0.50931   0.49467   0.00000  Uiso   1.00
C2     C     0.81784   0.45384   0.45637   0.00000  Uiso   1.00
C3     C     0.85610   0.45092   0.41597   0.00000  Uiso   1.00
C4     C     0.84557   0.39602   0.38525   0.00000  Uiso   1.00
C5     C     0.84753   0.31751   0.32433   0.00000  Uiso   1.00
C6     C     0.75964   0.52259   0.48746   0.00000  Uiso   1.00
C7     C     0.74898   0.57749   0.47322   0.00000  Uiso   1.00
C8     C     0.68947   0.58047   0.46868   0.00000  Uiso   1.00
C9     C     0.60108   0.60873   0.45608   0.00000  Uiso   1.00
C10    C     0.82663   0.48826   0.55202   0.00000  Uiso   1.00
C11    C     0.87228   0.51429   0.59207   0.00000  Uiso   1.00
C12    C     0.86916   0.48837   0.64190   0.00000  Uiso   1.00
C13    C     0.88477   0.46331   0.72954   0.00000  Uiso   1.00
C14    C     0.73446   0.41701   0.51196   0.00000  Uiso   1.00
C15    C     0.77073   0.40370   0.46576   0.00000  Uiso   1.00
C16    C     0.76015   0.34879   0.43510   0.00000  Uiso   1.00
C17    C     0.79839   0.34579   0.39466   0.00000  Uiso   1.00
C18    C     0.71254   0.47246   0.49685   0.00000  Uiso   1.00
C19    C     0.65303   0.47536   0.49235   0.00000  Uiso   1.00
C20    C     0.64228   0.53024   0.47809   0.00000  Uiso   1.00
C21    C     0.77952   0.43812   0.56142   0.00000  Uiso   1.00
C22    C     0.77633   0.41216   0.61120   0.00000  Uiso   1.00
C23    C     0.82197   0.43814   0.65131   0.00000  Uiso   1.00
H24    H     0.85785   0.54835   0.48736   0.00000  Uiso   1.00
H25    H     0.89254   0.48973   0.40871   0.00000  Uiso   1.00
H26    H     0.78544   0.61628   0.46595   0.00000  Uiso   1.00
H27    H     0.90872   0.55308   0.58479   0.00000  Uiso   1.00
H28    H     0.91022   0.40263   0.32564   0.00000  Uiso   1.00
H29    H     0.68439   0.66948   0.44636   0.00000  Uiso   1.00
H30    H     0.94435   0.53623   0.69695   0.00000  Uiso   1.00
H31    H     0.69778   0.37797   0.51928   0.00000  Uiso   1.00
H32    H     0.72369   0.31000   0.44238   0.00000  Uiso   1.00
H33    H     0.61659   0.43656   0.49962   0.00000  Uiso   1.00
H34    H     0.73987   0.37336   0.61845   0.00000  Uiso   1.00
H35    H     0.77317   0.25676   0.35297   0.00000  Uiso   1.00
H36    H     0.54734   0.52361   0.47369   0.00000  Uiso   1.00
H37    H     0.80731   0.39036   0.72427   0.00000  Uiso   1.00
O38    O     0.86161   0.28807   0.28813   0.00000  Uiso   1.00
O39    O     0.56534   0.63816   0.44652   0.00000  Uiso   1.00
O40    O     0.90641   0.46333   0.77528   0.00000  Uiso   1.00
N41    N     0.87441   0.37763   0.34263   0.00000  Uiso   1.00
N42    N     0.66328   0.62711   0.45549   0.00000  Uiso   1.00
N43    N     0.90631   0.50254   0.68977   0.00000  Uiso   1.00
N44    N     0.80067   0.29914   0.35734   0.00000  Uiso   1.00
N45    N     0.58953   0.54862   0.47020   0.00000  Uiso   1.00
N46    N     0.83257   0.42405   0.70447   0.00000  Uiso   1.00
C47    C     0.44328   0.83386   0.56185   0.00000  Uiso   1.00
C48    C     0.40674   0.82074   0.50688   0.00000  Uiso   1.00
C49    C     0.37280   0.85712   0.48408   0.00000  Uiso   1.00
C50    C     0.34263   0.83719   0.43342   0.00000  Uiso   1.00
C51    C     0.28530   0.82508   0.35217   0.00000  Uiso   1.00
C52    C     0.42021   0.77825   0.59412   0.00000  Uiso   1.00
C53    C     0.39761   0.77890   0.64466   0.00000  Uiso   1.00
C54    C     0.37879   0.72319   0.66744   0.00000  Uiso   1.00
C55    C     0.34242   0.64512   0.72164   0.00000  Uiso   1.00
C56    C     0.50752   0.83399   0.55068   0.00000  Uiso   1.00
C57    C     0.55834   0.88150   0.56472   0.00000  Uiso   1.00
C58    C     0.61303   0.87271   0.55093   0.00000  Uiso   1.00
C59    C     0.71224   0.88118   0.53769   0.00000  Uiso   1.00
C60    C     0.45005   0.73377   0.51243   0.00000  Uiso   1.00
C61    C     0.41041   0.76638   0.48004   0.00000  Uiso   1.00
C62    C     0.38029   0.74639   0.42941   0.00000  Uiso   1.00
C63    C     0.34631   0.78273   0.40653   0.00000  Uiso   1.00
C64    C     0.42388   0.72389   0.56728   0.00000  Uiso   1.00
C65    C     0.40510   0.66817   0.58999   0.00000  Uiso   1.00
C66    C     0.38247   0.66873   0.64055   0.00000  Uiso   1.00
C67    C     0.51120   0.77963   0.52384   0.00000  Uiso   1.00
C68    C     0.56583   0.77077   0.51004   0.00000  Uiso   1.00
C69    C     0.61672   0.81826   0.52405   0.00000  Uiso   1.00
H70    H     0.44042   0.87617   0.58274   0.00000  Uiso   1.00
H71    H     0.36996   0.89918   0.50487   0.00000  Uiso   1.00
H72    H     0.39478   0.82097   0.66542   0.00000  Uiso   1.00
H73    H     0.55548   0.92355   0.58548   0.00000  Uiso   1.00
H74    H     0.29345   0.90071   0.40669   0.00000  Uiso   1.00
H75    H     0.34579   0.73580   0.74525   0.00000  Uiso   1.00
H76    H     0.68467   0.95212   0.57669   0.00000  Uiso   1.00
H77    H     0.45291   0.69145   0.49153   0.00000  Uiso   1.00
H78    H     0.38314   0.70432   0.40865   0.00000  Uiso   1.00
H79    H     0.40795   0.62611   0.56921   0.00000  Uiso   1.00
H80    H     0.56865   0.72870   0.48927   0.00000  Uiso   1.00
H81    H     0.30414   0.74255   0.32860   0.00000  Uiso   1.00
H82    H     0.35649   0.57764   0.66716   0.00000  Uiso   1.00
H83    H     0.69536   0.79396   0.49859   0.00000  Uiso   1.00
O84    O     0.25266   0.83342   0.31478   0.00000  Uiso   1.00
O85    O     0.32134   0.61707   0.75895   0.00000  Uiso   1.00
O86    O     0.76594   0.90087   0.53780   0.00000  Uiso   1.00
N87    N     0.30555   0.86172   0.39968   0.00000  Uiso   1.00
N88    N     0.35448   0.70754   0.71621   0.00000  Uiso   1.00
N89    N     0.67130   0.90978   0.55863   0.00000  Uiso   1.00
N90    N     0.31131   0.77662   0.35766   0.00000  Uiso   1.00
N91    N     0.36024   0.62244   0.67419   0.00000  Uiso   1.00
N92    N     0.67706   0.82467   0.51661   0.00000  Uiso   1.00
C93    C     0.50079   0.45008   0.88328   0.00000  Uiso   1.00
C94    C     0.43823   0.40760   0.88570   0.00000  Uiso   1.00
C95    C     0.41854   0.37283   0.92877   0.00000  Uiso   1.00
C96    C     0.35970   0.33689   0.92310   0.00000  Uiso   1.00
C97    C     0.26830   0.27107   0.93400   0.00000  Uiso   1.00
C98    C     0.52532   0.42869   0.83235   0.00000  Uiso   1.00
C99    C     0.57887   0.41166   0.83056   0.00000  Uiso   1.00
C100   C     0.59335   0.39347   0.77998   0.00000  Uiso   1.00
C101   C     0.63719   0.36044   0.70805   0.00000  Uiso   1.00
C102   C     0.49121   0.51257   0.87242   0.00000  Uiso   1.00
C103   C     0.51609   0.56607   0.90432   0.00000  Uiso   1.00
C104   C     0.50186   0.61851   0.88747   0.00000  Uiso   1.00
C105   C     0.49273   0.71571   0.87775   0.00000  Uiso   1.00
C106   C     0.43130   0.44808   0.79662   0.00000  Uiso   1.00
C107   C     0.40048   0.40652   0.83863   0.00000  Uiso   1.00
C108   C     0.34166   0.37062   0.83289   0.00000  Uiso   1.00
C109   C     0.32189   0.33580   0.87595   0.00000  Uiso   1.00
C110   C     0.48758   0.42760   0.78528   0.00000  Uiso   1.00
C111   C     0.50198   0.40944   0.73469   0.00000  Uiso   1.00
C112   C     0.55554   0.39238   0.73283   0.00000  Uiso   1.00
C113   C     0.45346   0.51148   0.82535   0.00000  Uiso   1.00
C114   C     0.43920   0.56385   0.80844   0.00000  Uiso   1.00
C115   C     0.46405   0.61742   0.84031   0.00000  Uiso   1.00
H116   H     0.53018   0.45093   0.91992   0.00000  Uiso   1.00
H117   H     0.44777   0.37368   0.96519   0.00000  Uiso   1.00
H118   H     0.60807   0.41251   0.86699   0.00000  Uiso   1.00
H119   H     0.54529   0.56689   0.94074   0.00000  Uiso   1.00
H120   H     0.33976   0.28755   0.99460   0.00000  Uiso   1.00
H121   H     0.67778   0.36943   0.78756   0.00000  Uiso   1.00
H122   H     0.54540   0.69498   0.94306   0.00000  Uiso   1.00
H123   H     0.40192   0.44723   0.75998   0.00000  Uiso   1.00
H124   H     0.31246   0.36978   0.79646   0.00000  Uiso   1.00
H125   H     0.47276   0.40861   0.69827   0.00000  Uiso   1.00
H126   H     0.40999   0.56299   0.77202   0.00000  Uiso   1.00
H127   H     0.22994   0.28438   0.85766   0.00000  Uiso   1.00
H128   H     0.56796   0.36627   0.65062   0.00000  Uiso   1.00
H129   H     0.43558   0.69181   0.80612   0.00000  Uiso   1.00
O130   O     0.22832   0.23507   0.95301   0.00000  Uiso   1.00
O131   O     0.67180   0.34251   0.68138   0.00000  Uiso   1.00
O132   O     0.49812   0.76962   0.88539   0.00000  Uiso   1.00
N133   N     0.32618   0.29744   0.95737   0.00000  Uiso   1.00
N134   N     0.64221   0.37399   0.76380   0.00000  Uiso   1.00
N135   N     0.51846   0.67835   0.90917   0.00000  Uiso   1.00
N136   N     0.26709   0.29573   0.88368   0.00000  Uiso   1.00
N137   N     0.58311   0.37229   0.69011   0.00000  Uiso   1.00
N138   N     0.45937   0.67665   0.83548   0.00000  Uiso   1.00
C139   C     0.33674   0.93326   0.06270   0.00000  Uiso   1.00
C140   C     0.32944   0.89869   0.00731   0.00000  Uiso   1.00
C141   C     0.37050   0.87021   0.98663   0.00000  Uiso   1.00
C142   C     0.35551   0.84099   0.93516   0.00000  Uiso   1.00
C143   C     0.35240   0.78740   0.85368   0.00000  Uiso   1.00
C144   C     0.28158   0.90319   0.09167   0.00000  Uiso   1.00
C145   C     0.28240   0.87849   0.14193   0.00000  Uiso   1.00
C146   C     0.22712   0.85306   0.16146   0.00000  Uiso   1.00
C147   C     0.14970   0.80649   0.21097   0.00000  Uiso   1.00
C148   C     0.33090   0.99704   0.05166   0.00000  Uiso   1.00
C149   C     0.37319   0.05126   0.06829   0.00000  Uiso   1.00
C150   C     0.35942   0.10486   0.05415   0.00000  Uiso   1.00
C151   C     0.35858   0.20400   0.04155   0.00000  Uiso   1.00
C152   C     0.23709   0.93203   0.00804   0.00000  Uiso   1.00
C153   C     0.27532   0.89803   0.97763   0.00000  Uiso   1.00
C154   C     0.26025   0.86885   0.92616   0.00000  Uiso   1.00
C155   C     0.30129   0.84033   0.90541   0.00000  Uiso   1.00
C156   C     0.22746   0.90252   0.06199   0.00000  Uiso   1.00
C157   C     0.17216   0.87713   0.08145   0.00000  Uiso   1.00
C158   C     0.17289   0.85239   0.13172   0.00000  Uiso   1.00
C159   C     0.27678   0.99637   0.02198   0.00000  Uiso   1.00
C160   C     0.26294   0.04990   0.00782   0.00000  Uiso   1.00
C161   C     0.30520   0.10419   0.02441   0.00000  Uiso   1.00
H162   H     0.37887   0.93378   0.08581   0.00000  Uiso   1.00
H163   H     0.41238   0.87073   0.00962   0.00000  Uiso   1.00
H164   H     0.32430   0.87902   0.16489   0.00000  Uiso   1.00
H165   H     0.41507   0.05176   0.09126   0.00000  Uiso   1.00
H166   H     0.42565   0.80052   0.91207   0.00000  Uiso   1.00
H167   H     0.23992   0.81801   0.23947   0.00000  Uiso   1.00
H168   H     0.43132   0.18227   0.08421   0.00000  Uiso   1.00
H169   H     0.19495   0.93151   0.98493   0.00000  Uiso   1.00
H170   H     0.21837   0.86834   0.90320   0.00000  Uiso   1.00
H171   H     0.13028   0.87662   0.05847   0.00000  Uiso   1.00
H172   H     0.22105   0.04936   0.98484   0.00000  Uiso   1.00
H173   H     0.26818   0.79858   0.82569   0.00000  Uiso   1.00
H174   H     0.08245   0.81607   0.15309   0.00000  Uiso   1.00
H175   H     0.27385   0.18033   0.99784   0.00000  Uiso   1.00
O176   O     0.36563   0.75802   0.81694   0.00000  Uiso   1.00
O177   O     0.12196   0.78098   0.24648   0.00000  Uiso   1.00
O178   O     0.37308   0.25887   0.04279   0.00000  Uiso   1.00
N179   N     0.38538   0.80874   0.90295   0.00000  Uiso   1.00
N180   N     0.21173   0.82509   0.20905   0.00000  Uiso   1.00
N181   N     0.39068   0.16564   0.06391   0.00000  Uiso   1.00
N182   N     0.30065   0.80770   0.85647   0.00000  Uiso   1.00
N183   N     0.12700   0.82404   0.16257   0.00000  Uiso   1.00
N184   N     0.30594   0.16459   0.01743   0.00000  Uiso   1.00
C185   C     0.96174   0.98394   0.35039   0.00000  Uiso   1.00
C186   C     0.91681   0.92574   0.36390   0.00000  Uiso   1.00
C187   C     0.87986   0.92035   0.40638   0.00000  Uiso   1.00
C188   C     0.84187   0.86319   0.41191   0.00000  Uiso   1.00
C189   C     0.77222   0.78041   0.43830   0.00000  Uiso   1.00
C190   C     0.94466   0.99417   0.29156   0.00000  Uiso   1.00
C191   C     0.93113   0.04632   0.27322   0.00000  Uiso   1.00
C192   C     0.91659   0.04677   0.21785   0.00000  Uiso   1.00
C193   C     0.89023   0.07026   0.13193   0.00000  Uiso   1.00
C194   C     0.02254   0.96892   0.35068   0.00000  Uiso   1.00
C195   C     0.07451   0.99985   0.38203   0.00000  Uiso   1.00
C196   C     0.12554   0.97905   0.37643   0.00000  Uiso   1.00
C197   C     0.22010   0.96333   0.38230   0.00000  Uiso   1.00
C198   C     0.95997   0.89202   0.28468   0.00000  Uiso   1.00
C199   C     0.91585   0.87581   0.32821   0.00000  Uiso   1.00
C200   C     0.87790   0.81864   0.33368   0.00000  Uiso   1.00
C201   C     0.84091   0.81317   0.37616   0.00000  Uiso   1.00
C202   C     0.94369   0.94425   0.25587   0.00000  Uiso   1.00
C203   C     0.92917   0.94462   0.20052   0.00000  Uiso   1.00
C204   C     0.91563   0.99675   0.18210   0.00000  Uiso   1.00
C205   C     0.02158   0.91899   0.31499   0.00000  Uiso   1.00
C206   C     0.07255   0.89814   0.30934   0.00000  Uiso   1.00
C207   C     0.12458   0.92903   0.34068   0.00000  Uiso   1.00
H208   H     0.96249   0.02282   0.37817   0.00000  Uiso   1.00
H209   H     0.88061   0.95900   0.43399   0.00000  Uiso   1.00
H210   H     0.93188   0.08495   0.30084   0.00000  Uiso   1.00
H211   H     0.07523   0.03849   0.40964   0.00000  Uiso   1.00
H212   H     0.78940   0.86623   0.48011   0.00000  Uiso   1.00
H213   H     0.89753   0.13182   0.19937   0.00000  Uiso   1.00
H214   H     0.19981   0.03384   0.42880   0.00000  Uiso   1.00
H215   H     0.95922   0.85315   0.25690   0.00000  Uiso   1.00
H216   H     0.87717   0.78001   0.30606   0.00000  Uiso   1.00
H217   H     0.92844   0.90597   0.17291   0.00000  Uiso   1.00
H218   H     0.07179   0.85950   0.28171   0.00000  Uiso   1.00
H219   H     0.78660   0.72096   0.37628   0.00000  Uiso   1.00
H220   H     0.89473   0.98656   0.09554   0.00000  Uiso   1.00
H221   H     0.19701   0.88857   0.32497   0.00000  Uiso   1.00
O222   O     0.73407   0.74855   0.46271   0.00000  Uiso   1.00
O223   O     0.87594   0.09701   0.09439   0.00000  Uiso   1.00
O224   O     0.27253   0.96845   0.39540   0.00000  Uiso   1.00
N225   N     0.80001   0.84207   0.44894   0.00000  Uiso   1.00
N226   N     0.90110   0.09038   0.18646   0.00000  Uiso   1.00
N227   N     0.18371   0.99879   0.40095   0.00000  Uiso   1.00
N228   N     0.79851   0.76391   0.39306   0.00000  Uiso   1.00
N229   N     0.89959   0.01222   0.13059   0.00000  Uiso   1.00
N230   N     0.18220   0.92062   0.34508   0.00000  Uiso   1.00
C231   C     0.99636   0.33385   0.00117   0.00000  Uiso   1.00
C232   C     0.93831   0.32855   0.96565   0.00000  Uiso   1.00
C233   C     0.93089   0.36570   0.92412   0.00000  Uiso   1.00
C234   C     0.87427   0.35343   0.89640   0.00000  Uiso   1.00
C235   C     0.79137   0.35244   0.83919   0.00000  Uiso   1.00
C236   C     0.01002   0.27179   0.99506   0.00000  Uiso   1.00
C237   C     0.06289   0.26122   0.97827   0.00000  Uiso   1.00
C238   C     0.06663   0.20117   0.97532   0.00000  Uiso   1.00
C239   C     0.09506   0.11207   0.96382   0.00000  Uiso   1.00
C240   C     0.98088   0.34099   0.05965   0.00000  Uiso   1.00
C241   C     0.00926   0.38861   0.09718   0.00000  Uiso   1.00
C242   C     0.98848   0.38682   0.14861   0.00000  Uiso   1.00
C243   C     0.97168   0.40517   0.23740   0.00000  Uiso   1.00
C244   C     0.90900   0.24599   0.02578   0.00000  Uiso   1.00
C245   C     0.89086   0.28083   0.97902   0.00000  Uiso   1.00
C246   C     0.83424   0.26850   0.95135   0.00000  Uiso   1.00
C247   C     0.82673   0.30563   0.90979   0.00000  Uiso   1.00
C248   C     0.96257   0.22407   0.00843   0.00000  Uiso   1.00
C249   C     0.96623   0.16402   0.00551   0.00000  Uiso   1.00
C250   C     0.01909   0.15337   0.98871   0.00000  Uiso   1.00
C251   C     0.93343   0.29328   0.07302   0.00000  Uiso   1.00
C252   C     0.91261   0.29141   0.12441   0.00000  Uiso   1.00
C253   C     0.94095   0.33902   0.16201   0.00000  Uiso   1.00
H254   H     0.03330   0.37099   0.99076   0.00000  Uiso   1.00
H255   H     0.96763   0.40262   0.91378   0.00000  Uiso   1.00
H256   H     0.09960   0.29816   0.96793   0.00000  Uiso   1.00
H257   H     0.04598   0.42553   0.08682   0.00000  Uiso   1.00
H258   H     0.87389   0.41662   0.83432   0.00000  Uiso   1.00
H259   H     0.15218   0.19636   0.94852   0.00000  Uiso   1.00
H260   H     0.03911   0.46495   0.19922   0.00000  Uiso   1.00
H261   H     0.87206   0.20884   0.03619   0.00000  Uiso   1.00
H262   H     0.79753   0.23157   0.96171   0.00000  Uiso   1.00
H263   H     0.92951   0.12711   0.01586   0.00000  Uiso   1.00
H264   H     0.87589   0.25448   0.13474   0.00000  Uiso   1.00
H265   H     0.73583   0.27779   0.87322   0.00000  Uiso   1.00
H266   H     0.01412   0.05753   0.98742   0.00000  Uiso   1.00
H267   H     0.90105   0.32612   0.23811   0.00000  Uiso   1.00
O268   O     0.75875   0.36507   0.80394   0.00000  Uiso   1.00
O269   O     0.12386   0.07610   0.95378   0.00000  Uiso   1.00
O270   O     0.97551   0.42848   0.28268   0.00000  Uiso   1.00
N271   N     0.85162   0.38084   0.85371   0.00000  Uiso   1.00
N272   N     0.11180   0.17491   0.96047   0.00000  Uiso   1.00
N273   N     0.00611   0.42600   0.19485   0.00000  Uiso   1.00
N274   N     0.77733   0.30613   0.87464   0.00000  Uiso   1.00
N275   N     0.03751   0.10020   0.98140   0.00000  Uiso   1.00
N276   N     0.93182   0.35130   0.21578   0.00000  Uiso   1.00
C277   C     0.17882   0.49069   0.50533   0.00000  Uiso   1.00
C278   C     0.18216   0.54616   0.54363   0.00000  Uiso   1.00
C279   C     0.14390   0.54908   0.58403   0.00000  Uiso   1.00
C280   C     0.15443   0.60398   0.61475   0.00000  Uiso   1.00
C281   C     0.15247   0.68249   0.67567   0.00000  Uiso   1.00
C282   C     0.24036   0.47741   0.51254   0.00000  Uiso   1.00
C283   C     0.25102   0.42251   0.52678   0.00000  Uiso   1.00
C284   C     0.31053   0.41953   0.53132   0.00000  Uiso   1.00
C285   C     0.39892   0.39127   0.54392   0.00000  Uiso   1.00
C286   C     0.17337   0.51174   0.44798   0.00000  Uiso   1.00
C287   C     0.12772   0.48571   0.40793   0.00000  Uiso   1.00
C288   C     0.13084   0.51163   0.35810   0.00000  Uiso   1.00
C289   C     0.11523   0.53669   0.27046   0.00000  Uiso   1.00
C290   C     0.26554   0.58299   0.48804   0.00000  Uiso   1.00
C291   C     0.22927   0.59630   0.53424   0.00000  Uiso   1.00
C292   C     0.23985   0.65121   0.56490   0.00000  Uiso   1.00
C293   C     0.20161   0.65421   0.60534   0.00000  Uiso   1.00
C294   C     0.28746   0.52754   0.50315   0.00000  Uiso   1.00
C295   C     0.34697   0.52464   0.50765   0.00000  Uiso   1.00
C296   C     0.35772   0.46976   0.52191   0.00000  Uiso   1.00
C297   C     0.22048   0.56188   0.43858   0.00000  Uiso   1.00
C298   C     0.22367   0.58784   0.38880   0.00000  Uiso   1.00
C299   C     0.17803   0.56186   0.34869   0.00000  Uiso   1.00
H300   H     0.14215   0.45165   0.51264   0.00000  Uiso   1.00
H301   H     0.10746   0.51027   0.59129   0.00000  Uiso   1.00
H302   H     0.21456   0.38372   0.53405   0.00000  Uiso   1.00
H303   H     0.09128   0.44692   0.41521   0.00000  Uiso   1.00
H304   H     0.08978   0.59737   0.67436   0.00000  Uiso   1.00
H305   H     0.31561   0.33052   0.55364   0.00000  Uiso   1.00
H306   H     0.05565   0.46377   0.30305   0.00000  Uiso   1.00
H307   H     0.30222   0.62203   0.48072   0.00000  Uiso   1.00
H308   H     0.27631   0.69000   0.55762   0.00000  Uiso   1.00
H309   H     0.38341   0.56344   0.50038   0.00000  Uiso   1.00
H310   H     0.26013   0.62664   0.38155   0.00000  Uiso   1.00
H311   H     0.22683   0.74324   0.64703   0.00000  Uiso   1.00
H312   H     0.45266   0.47639   0.52631   0.00000  Uiso   1.00
H313   H     0.19269   0.60964   0.27573   0.00000  Uiso   1.00
O314   O     0.13839   0.71193   0.71187   0.00000  Uiso   1.00
O315   O     0.43466   0.36184   0.55348   0.00000  Uiso   1.00
O316   O     0.09359   0.53667   0.22472   0.00000  Uiso   1.00
N317   N     0.12559   0.62237   0.65737   0.00000  Uiso   1.00
N318   N     0.33672   0.37289   0.54451   0.00000  Uiso   1.00
N319   N     0.09369   0.49746   0.31023   0.00000  Uiso   1.00
N320   N     0.19933   0.70086   0.64266   0.00000  Uiso   1.00
N321   N     0.41047   0.45138   0.52980   0.00000  Uiso   1.00
N322   N     0.16743   0.57595   0.29553   0.00000  Uiso   1.00
C323   C     0.55672   0.16614   0.43815   0.00000  Uiso   1.00
C324   C     0.59326   0.17926   0.49312   0.00000  Uiso   1.00
C325   C     0.62720   0.14288   0.51592   0.00000  Uiso   1.00
C326   C     0.65737   0.16281   0.56658   0.00000  Uiso   1.00
C327   C     0.71470   0.17492   0.64783   0.00000  Uiso   1.00
C328   C     0.57979   0.22175   0.40588   0.00000  Uiso   1.00
C329   C     0.60239   0.22110   0.35534   0.00000  Uiso   1.00
C330   C     0.62121   0.27681   0.33256   0.00000  Uiso   1.00
C331   C     0.65758   0.35488   0.27836   0.00000  Uiso   1.00
C332   C     0.49248   0.16601   0.44932   0.00000  Uiso   1.00
C333   C     0.44166   0.11850   0.43528   0.00000  Uiso   1.00
C334   C     0.38697   0.12729   0.44907   0.00000  Uiso   1.00
C335   C     0.28776   0.11882   0.46231   0.00000  Uiso   1.00
C336   C     0.54995   0.26623   0.48757   0.00000  Uiso   1.00
C337   C     0.58959   0.23362   0.51996   0.00000  Uiso   1.00
C338   C     0.61971   0.25361   0.57059   0.00000  Uiso   1.00
C339   C     0.65369   0.21727   0.59347   0.00000  Uiso   1.00
C340   C     0.57612   0.27611   0.43272   0.00000  Uiso   1.00
C341   C     0.59490   0.33183   0.41001   0.00000  Uiso   1.00
C342   C     0.61753   0.33127   0.35945   0.00000  Uiso   1.00
C343   C     0.48880   0.22037   0.47616   0.00000  Uiso   1.00
C344   C     0.43417   0.22923   0.48996   0.00000  Uiso   1.00
C345   C     0.38328   0.18174   0.47595   0.00000  Uiso   1.00
H346   H     0.55958   0.12383   0.41726   0.00000  Uiso   1.00
H347   H     0.63004   0.10082   0.49513   0.00000  Uiso   1.00
H348   H     0.60522   0.17903   0.33458   0.00000  Uiso   1.00
H349   H     0.44452   0.07645   0.41452   0.00000  Uiso   1.00
H350   H     0.70655   0.09929   0.59331   0.00000  Uiso   1.00
H351   H     0.65421   0.26420   0.25475   0.00000  Uiso   1.00
H352   H     0.31533   0.04788   0.42331   0.00000  Uiso   1.00
H353   H     0.54709   0.30855   0.50847   0.00000  Uiso   1.00
H354   H     0.61686   0.29568   0.59135   0.00000  Uiso   1.00
H355   H     0.59205   0.37389   0.43079   0.00000  Uiso   1.00
H356   H     0.43135   0.27130   0.51073   0.00000  Uiso   1.00
H357   H     0.69586   0.25745   0.67140   0.00000  Uiso   1.00
H358   H     0.64351   0.42236   0.33284   0.00000  Uiso   1.00
H359   H     0.30464   0.20604   0.50141   0.00000  Uiso   1.00
O360   O     0.74734   0.16658   0.68522   0.00000  Uiso   1.00
O361   O     0.67866   0.38293   0.24105   0.00000  Uiso   1.00
O362   O     0.23406   0.09913   0.46220   0.00000  Uiso   1.00
N363   N     0.69445   0.13828   0.60032   0.00000  Uiso   1.00
N364   N     0.64552   0.29246   0.28379   0.00000  Uiso   1.00
N365   N     0.32870   0.09022   0.44137   0.00000  Uiso   1.00
N366   N     0.68869   0.22338   0.64234   0.00000  Uiso   1.00
N367   N     0.63976   0.37756   0.32581   0.00000  Uiso   1.00
N368   N     0.32294   0.17533   0.48339   0.00000  Uiso   1.00
C369   C     0.49921   0.54992   0.11672   0.00000  Uiso   1.00
C370   C     0.56177   0.59240   0.11430   0.00000  Uiso   1.00
C371   C     0.58146   0.62717   0.07123   0.00000  Uiso   1.00
C372   C     0.64030   0.66311   0.07690   0.00000  Uiso   1.00
C373   C     0.73170   0.72893   0.06600   0.00000  Uiso   1.00
C374   C     0.47468   0.57131   0.16765   0.00000  Uiso   1.00
C375   C     0.42113   0.58834   0.16944   0.00000  Uiso   1.00
C376   C     0.40665   0.60653   0.22002   0.00000  Uiso   1.00
C377   C     0.36281   0.63956   0.29195   0.00000  Uiso   1.00
C378   C     0.50879   0.48743   0.12758   0.00000  Uiso   1.00
C379   C     0.48391   0.43393   0.09568   0.00000  Uiso   1.00
C380   C     0.49814   0.38149   0.11253   0.00000  Uiso   1.00
C381   C     0.50727   0.28429   0.12225   0.00000  Uiso   1.00
C382   C     0.56870   0.55192   0.20338   0.00000  Uiso   1.00
C383   C     0.59952   0.59348   0.16137   0.00000  Uiso   1.00
C384   C     0.65834   0.62938   0.16711   0.00000  Uiso   1.00
C385   C     0.67811   0.66420   0.12405   0.00000  Uiso   1.00
C386   C     0.51242   0.57240   0.21472   0.00000  Uiso   1.00
C387   C     0.49802   0.59056   0.26531   0.00000  Uiso   1.00
C388   C     0.44446   0.60762   0.26717   0.00000  Uiso   1.00
C389   C     0.54654   0.48852   0.17465   0.00000  Uiso   1.00
C390   C     0.56080   0.43615   0.19156   0.00000  Uiso   1.00
C391   C     0.53595   0.38258   0.15969   0.00000  Uiso   1.00
H392   H     0.46982   0.54907   0.08008   0.00000  Uiso   1.00
H393   H     0.55223   0.62632   0.03481   0.00000  Uiso   1.00
H394   H     0.39193   0.58749   0.13301   0.00000  Uiso   1.00
H395   H     0.45471   0.43311   0.05926   0.00000  Uiso   1.00
H396   H     0.66024   0.71245   0.00540   0.00000  Uiso   1.00
H397   H     0.32222   0.63057   0.21244   0.00000  Uiso   1.00
H398   H     0.45460   0.30502   0.05694   0.00000  Uiso   1.00
H399   H     0.59808   0.55277   0.24002   0.00000  Uiso   1.00
H400   H     0.68754   0.63022   0.20354   0.00000  Uiso   1.00
H401   H     0.52724   0.59139   0.30173   0.00000  Uiso   1.00
H402   H     0.59001   0.43701   0.22798   0.00000  Uiso   1.00
H403   H     0.77006   0.71562   0.14234   0.00000  Uiso   1.00
H404   H     0.43204   0.63373   0.34938   0.00000  Uiso   1.00
H405   H     0.56442   0.30819   0.19388   0.00000  Uiso   1.00
O406   O     0.77168   0.76493   0.04699   0.00000  Uiso   1.00
O407   O     0.32820   0.65749   0.31862   0.00000  Uiso   1.00
O408   O     0.50188   0.23038   0.11461   0.00000  Uiso   1.00
N409   N     0.67382   0.70256   0.04263   0.00000  Uiso   1.00
N410   N     0.35779   0.62601   0.23620   0.00000  Uiso   1.00
N411   N     0.48154   0.32165   0.09083   0.00000  Uiso   1.00
N412   N     0.73291   0.70427   0.11632   0.00000  Uiso   1.00
N413   N     0.41689   0.62771   0.30989   0.00000  Uiso   1.00
N414   N     0.54063   0.32335   0.16452   0.00000  Uiso   1.00
C415   C     0.66326   0.06674   0.93730   0.00000  Uiso   1.00
C416   C     0.67056   0.10131   0.99269   0.00000  Uiso   1.00
C417   C     0.62950   0.12979   0.01337   0.00000  Uiso   1.00
C418   C     0.64449   0.15901   0.06484   0.00000  Uiso   1.00
C419   C     0.64760   0.21260   0.14632   0.00000  Uiso   1.00
C420   C     0.71842   0.09681   0.90833   0.00000  Uiso   1.00
C421   C     0.71760   0.12151   0.85807   0.00000  Uiso   1.00
C422   C     0.77288   0.14694   0.83854   0.00000  Uiso   1.00
C423   C     0.85030   0.19351   0.78903   0.00000  Uiso   1.00
C424   C     0.66910   0.00296   0.94834   0.00000  Uiso   1.00
C425   C     0.62681   0.94874   0.93171   0.00000  Uiso   1.00
C426   C     0.64058   0.89514   0.94585   0.00000  Uiso   1.00
C427   C     0.64142   0.79600   0.95845   0.00000  Uiso   1.00
C428   C     0.76291   0.06797   0.99196   0.00000  Uiso   1.00
C429   C     0.72468   0.10197   0.02237   0.00000  Uiso   1.00
C430   C     0.73975   0.13115   0.07384   0.00000  Uiso   1.00
C431   C     0.69871   0.15967   0.09459   0.00000  Uiso   1.00
C432   C     0.77254   0.09748   0.93801   0.00000  Uiso   1.00
C433   C     0.82784   0.12287   0.91855   0.00000  Uiso   1.00
C434   C     0.82711   0.14761   0.86828   0.00000  Uiso   1.00
C435   C     0.72322   0.00363   0.97802   0.00000  Uiso   1.00
C436   C     0.73706   0.95010   0.99218   0.00000  Uiso   1.00
C437   C     0.69480   0.89581   0.97559   0.00000  Uiso   1.00
H438   H     0.62113   0.06622   0.91419   0.00000  Uiso   1.00
H439   H     0.58762   0.12927   0.99038   0.00000  Uiso   1.00
H440   H     0.67570   0.12098   0.83511   0.00000  Uiso   1.00
H441   H     0.58493   0.94824   0.90874   0.00000  Uiso   1.00
H442   H     0.57435   0.19948   0.08793   0.00000  Uiso   1.00
H443   H     0.76008   0.18199   0.76053   0.00000  Uiso   1.00
H444   H     0.56868   0.81773   0.91579   0.00000  Uiso   1.00
H445   H     0.80505   0.06849   0.01507   0.00000  Uiso   1.00
H446   H     0.78163   0.13166   0.09680   0.00000  Uiso   1.00
H447   H     0.86972   0.12338   0.94153   0.00000  Uiso   1.00
H448   H     0.77895   0.95064   0.01516   0.00000  Uiso   1.00
H449   H     0.73182   0.20142   0.17431   0.00000  Uiso   1.00
H450   H     0.91755   0.18393   0.84691   0.00000  Uiso   1.00
H451   H     0.72615   0.81967   0.00216   0.00000  Uiso   1.00
O452   O     0.63437   0.24198   0.18306   0.00000  Uiso   1.00
O453   O     0.87804   0.21902   0.75352   0.00000  Uiso   1.00
O454   O     0.62692   0.74113   0.95721   0.00000  Uiso   1.00
N455   N     0.61462   0.19126   0.09705   0.00000  Uiso   1.00
N456   N     0.78827   0.17491   0.79095   0.00000  Uiso   1.00
N457   N     0.60932   0.83436   0.93609   0.00000  Uiso   1.00
N458   N     0.69935   0.19230   0.14353   0.00000  Uiso   1.00
N459   N     0.87300   0.17596   0.83743   0.00000  Uiso   1.00
N460   N     0.69406   0.83541   0.98257   0.00000  Uiso   1.00
C461   C     0.03826   0.01606   0.64961   0.00000  Uiso   1.00
C462   C     0.08319   0.07426   0.63610   0.00000  Uiso   1.00
C463   C     0.12014   0.07965   0.59362   0.00000  Uiso   1.00
C464   C     0.15813   0.13681   0.58809   0.00000  Uiso   1.00
C465   C     0.22778   0.21959   0.56170   0.00000  Uiso   1.00
C466   C     0.05534   0.00583   0.70844   0.00000  Uiso   1.00
C467   C     0.06887   0.95368   0.72678   0.00000  Uiso   1.00
C468   C     0.08341   0.95323   0.78215   0.00000  Uiso   1.00
C469   C     0.10977   0.92974   0.86807   0.00000  Uiso   1.00
C470   C     0.97746   0.03108   0.64932   0.00000  Uiso   1.00
C471   C     0.92549   0.00015   0.61797   0.00000  Uiso   1.00
C472   C     0.87446   0.02095   0.62357   0.00000  Uiso   1.00
C473   C     0.77990   0.03667   0.61770   0.00000  Uiso   1.00
C474   C     0.04003   0.10798   0.71532   0.00000  Uiso   1.00
C475   C     0.08415   0.12419   0.67179   0.00000  Uiso   1.00
C476   C     0.12210   0.18136   0.66632   0.00000  Uiso   1.00
C477   C     0.15909   0.18683   0.62384   0.00000  Uiso   1.00
C478   C     0.05631   0.05575   0.74413   0.00000  Uiso   1.00
C479   C     0.07083   0.05538   0.79948   0.00000  Uiso   1.00
C480   C     0.08437   0.00325   0.81790   0.00000  Uiso   1.00
C481   C     0.97842   0.08101   0.68501   0.00000  Uiso   1.00
C482   C     0.92745   0.10186   0.69066   0.00000  Uiso   1.00
C483   C     0.87542   0.07097   0.65932   0.00000  Uiso   1.00
H484   H     0.03751   0.97718   0.62183   0.00000  Uiso   1.00
H485   H     0.11939   0.04100   0.56601   0.00000  Uiso   1.00
H486   H     0.06812   0.91505   0.69916   0.00000  Uiso   1.00
H487   H     0.92477   0.96151   0.59036   0.00000  Uiso   1.00
H488   H     0.21060   0.13377   0.51989   0.00000  Uiso   1.00
H489   H     0.10247   0.86818   0.80063   0.00000  Uiso   1.00
H490   H     0.80019   0.96616   0.57120   0.00000  Uiso   1.00
H491   H     0.04078   0.14685   0.74310   0.00000  Uiso   1.00
H492   H     0.12283   0.21999   0.69394   0.00000  Uiso   1.00
H493   H     0.07156   0.09403   0.82709   0.00000  Uiso   1.00
H494   H     0.92821   0.14050   0.71829   0.00000  Uiso   1.00
H495   H     0.21340   0.27904   0.62372   0.00000  Uiso   1.00
H496   H     0.10527   0.01344   0.90446   0.00000  Uiso   1.00
H497   H     0.80299   0.11143   0.67503   0.00000  Uiso   1.00
O498   O     0.26593   0.25145   0.53729   0.00000  Uiso   1.00
O499   O     0.12406   0.90299   0.90561   0.00000  Uiso   1.00
O500   O     0.72747   0.03155   0.60460   0.00000  Uiso   1.00
N501   N     0.19999   0.15793   0.55106   0.00000  Uiso   1.00
N502   N     0.09890   0.90962   0.81354   0.00000  Uiso   1.00
N503   N     0.81629   0.00121   0.59905   0.00000  Uiso   1.00
N504   N     0.20149   0.23609   0.60694   0.00000  Uiso   1.00
N505   N     0.10041   0.98778   0.86941   0.00000  Uiso   1.00
N506   N     0.81780   0.07938   0.65492   0.00000  Uiso   1.00
C507   C     0.00364   0.66615   0.99883   0.00000  Uiso   1.00
C508   C     0.06169   0.67145   0.03435   0.00000  Uiso   1.00
C509   C     0.06911   0.63430   0.07588   0.00000  Uiso   1.00
C510   C     0.12573   0.64657   0.10360   0.00000  Uiso   1.00
C511   C     0.20863   0.64756   0.16081   0.00000  Uiso   1.00
C512   C     0.98998   0.72821   0.00494   0.00000  Uiso   1.00
C513   C     0.93711   0.73878   0.02173   0.00000  Uiso   1.00
C514   C     0.93337   0.79883   0.02468   0.00000  Uiso   1.00
C515   C     0.90494   0.88793   0.03618   0.00000  Uiso   1.00
C516   C     0.01912   0.65901   0.94035   0.00000  Uiso   1.00
C517   C     0.99074   0.61139   0.90282   0.00000  Uiso   1.00
C518   C     0.01152   0.61318   0.85139   0.00000  Uiso   1.00
C519   C     0.02832   0.59483   0.76260   0.00000  Uiso   1.00
C520   C     0.09100   0.75401   0.97422   0.00000  Uiso   1.00
C521   C     0.10914   0.71917   0.02098   0.00000  Uiso   1.00
C522   C     0.16576   0.73150   0.04865   0.00000  Uiso   1.00
C523   C     0.17327   0.69437   0.09021   0.00000  Uiso   1.00
C524   C     0.03743   0.77593   0.99157   0.00000  Uiso   1.00
C525   C     0.03377   0.83598   0.99449   0.00000  Uiso   1.00
C526   C     0.98091   0.84663   0.01129   0.00000  Uiso   1.00
C527   C     0.06657   0.70672   0.92698   0.00000  Uiso   1.00
C528   C     0.08739   0.70859   0.87559   0.00000  Uiso   1.00
C529   C     0.05905   0.66098   0.83799   0.00000  Uiso   1.00
H530   H     0.96670   0.62901   0.00924   0.00000  Uiso   1.00
H531   H     0.03237   0.59738   0.08622   0.00000  Uiso   1.00
H532   H     0.90040   0.70184   0.03207   0.00000  Uiso   1.00
H533   H     0.95402   0.57447   0.91318   0.00000  Uiso   1.00
H534   H     0.12611   0.58338   0.16568   0.00000  Uiso   1.00
H535   H     0.84782   0.80364   0.05148   0.00000  Uiso   1.00
H536   H     0.96089   0.53505   0.80078   0.00000  Uiso   1.00
H537   H     0.12794   0.79116   0.96381   0.00000  Uiso   1.00
H538   H     0.20247   0.76843   0.03829   0.00000  Uiso   1.00
H539   H     0.07049   0.87289   0.98414   0.00000  Uiso   1.00
H540   H     0.12411   0.74552   0.86526   0.00000  Uiso   1.00
H541   H     0.26417   0.72221   0.12678   0.00000  Uiso   1.00
H542   H     0.98588   0.94247   0.01258   0.00000  Uiso   1.00
H543   H     0.09895   0.67388   0.76189   0.00000  Uiso   1.00
O544   O     0.24125   0.63493   0.19606   0.00000  Uiso   1.00
O545   O     0.87614   0.92390   0.04622   0.00000  Uiso   1.00
O546   O     0.02449   0.57152   0.71732   0.00000  Uiso   1.00
N547   N     0.14838   0.61916   0.14629   0.00000  Uiso   1.00
N548   N     0.88820   0.82509   0.03953   0.00000  Uiso   1.00
N549   N     0.99389   0.57400   0.80515   0.00000  Uiso   1.00
N550   N     0.22267   0.69387   0.12536   0.00000  Uiso   1.00
N551   N     0.96249   0.89980   0.01860   0.00000  Uiso   1.00
N552   N     0.06818   0.64870   0.78422   0.00000  Uiso   1.00
