data_job_01380
_audit_creation_date              2018-12-19
_audit_creation_method            'Materials Studio'
_symmetry_space_group_name_H-M    'P1'
_symmetry_Int_Tables_number       1
_symmetry_cell_setting            triclinic
loop_
_symmetry_equiv_pos_as_xyz
  x,y,z
_cell_length_a                    22.9417
_cell_length_b                    12.4020
_cell_length_c                    21.2980
_cell_angle_alpha                 90.0000
_cell_angle_beta                  90.0000
_cell_angle_gamma                 90.0000
loop_
_atom_site_label
_atom_site_type_symbol
_atom_site_fract_x
_atom_site_fract_y
_atom_site_fract_z
_atom_site_U_iso_or_equiv
_atom_site_adp_type
_atom_site_occupancy
C1     C     0.12489   0.94821   0.79352   0.00000  Uiso   1.00
C2     C     0.09337   0.05218   0.81108   0.00000  Uiso   1.00
C3     C     0.06523   0.07214   0.86758   0.00000  Uiso   1.00
C4     C     0.03900   0.17231   0.87454   0.00000  Uiso   1.00
C5     C     0.98976   0.32197   0.90907   0.00000  Uiso   1.00
C6     C     0.09673   0.90909   0.73280   0.00000  Uiso   1.00
C7     C     0.07141   0.80872   0.72347   0.00000  Uiso   1.00
C8     C     0.04801   0.78843   0.66453   0.00000  Uiso   1.00
C9     C     0.00401   0.71590   0.57751   0.00000  Uiso   1.00
C10    C     0.18693   0.98095   0.77630   0.00000  Uiso   1.00
C11    C     0.23746   0.94099   0.80354   0.00000  Uiso   1.00
C12    C     0.29000   0.98119   0.78120   0.00000  Uiso   1.00
C13    C     0.38605   0.02025   0.76173   0.00000  Uiso   1.00
C14    C     0.12835   0.09063   0.70541   0.00000  Uiso   1.00
C15    C     0.09525   0.12954   0.76322   0.00000  Uiso   1.00
C16    C     0.06906   0.22971   0.77010   0.00000  Uiso   1.00
C17    C     0.04088   0.24981   0.82660   0.00000  Uiso   1.00
C18    C     0.09860   0.98644   0.68494   0.00000  Uiso   1.00
C19    C     0.07524   0.96629   0.62599   0.00000  Uiso   1.00
C20    C     0.04989   0.86593   0.61658   0.00000  Uiso   1.00
C21    C     0.18881   0.05831   0.72844   0.00000  Uiso   1.00
C22    C     0.24128   0.09857   0.70606   0.00000  Uiso   1.00
C23    C     0.29188   0.05869   0.73326   0.00000  Uiso   1.00
H24    H     0.12343   0.88798   0.83078   0.00000  Uiso   1.00
H25    H     0.06379   0.01225   0.90460   0.00000  Uiso   1.00
H26    H     0.06997   0.74887   0.76052   0.00000  Uiso   1.00
H27    H     0.23599   0.88113   0.84057   0.00000  Uiso   1.00
H28    H     0.99847   0.18412   0.96534   0.00000  Uiso   1.00
H29    H     0.01153   0.62876   0.66152   0.00000  Uiso   1.00
H30    H     0.36162   0.90765   0.83033   0.00000  Uiso   1.00
H31    H     0.12981   0.15086   0.66815   0.00000  Uiso   1.00
H32    H     0.07052   0.28956   0.73305   0.00000  Uiso   1.00
H33    H     0.07670   0.02617   0.58897   0.00000  Uiso   1.00
H34    H     0.24272   0.15844   0.66902   0.00000  Uiso   1.00
H35    H     0.00393   0.40920   0.82610   0.00000  Uiso   1.00
H36    H     0.01700   0.85383   0.52228   0.00000  Uiso   1.00
H37    H     0.36708   0.13273   0.69109   0.00000  Uiso   1.00
O38    O     0.96207   0.38314   0.94134   0.00000  Uiso   1.00
O39    O     0.97921   0.65452   0.54274   0.00000  Uiso   1.00
O40    O     0.43851   0.02043   0.76422   0.00000  Uiso   1.00
N41    N     0.00790   0.21807   0.92367   0.00000  Uiso   1.00
N42    N     0.02011   0.69884   0.63962   0.00000  Uiso   1.00
N43    N     0.34741   0.95956   0.79743   0.00000  Uiso   1.00
N44    N     0.01084   0.33918   0.84874   0.00000  Uiso   1.00
N45    N     0.02305   0.81995   0.56469   0.00000  Uiso   1.00
N46    N     0.35035   0.08067   0.72250   0.00000  Uiso   1.00
C47    C     0.12489   0.44821   0.29352   0.00000  Uiso   1.00
C48    C     0.09337   0.55218   0.31108   0.00000  Uiso   1.00
C49    C     0.06523   0.57214   0.36758   0.00000  Uiso   1.00
C50    C     0.03900   0.67231   0.37454   0.00000  Uiso   1.00
C51    C     0.98976   0.82197   0.40907   0.00000  Uiso   1.00
C52    C     0.09673   0.40909   0.23280   0.00000  Uiso   1.00
C53    C     0.07141   0.30872   0.22347   0.00000  Uiso   1.00
C54    C     0.04801   0.28843   0.16453   0.00000  Uiso   1.00
C55    C     0.00401   0.21590   0.07751   0.00000  Uiso   1.00
C56    C     0.18693   0.48095   0.27630   0.00000  Uiso   1.00
C57    C     0.23746   0.44099   0.30354   0.00000  Uiso   1.00
C58    C     0.29000   0.48119   0.28120   0.00000  Uiso   1.00
C59    C     0.38605   0.52025   0.26173   0.00000  Uiso   1.00
C60    C     0.12835   0.59063   0.20541   0.00000  Uiso   1.00
C61    C     0.09525   0.62954   0.26322   0.00000  Uiso   1.00
C62    C     0.06906   0.72971   0.27010   0.00000  Uiso   1.00
C63    C     0.04088   0.74981   0.32660   0.00000  Uiso   1.00
C64    C     0.09860   0.48644   0.18494   0.00000  Uiso   1.00
C65    C     0.07524   0.46629   0.12599   0.00000  Uiso   1.00
C66    C     0.04989   0.36593   0.11658   0.00000  Uiso   1.00
C67    C     0.18881   0.55831   0.22844   0.00000  Uiso   1.00
C68    C     0.24128   0.59857   0.20606   0.00000  Uiso   1.00
C69    C     0.29188   0.55869   0.23326   0.00000  Uiso   1.00
H70    H     0.12343   0.38798   0.33078   0.00000  Uiso   1.00
H71    H     0.06379   0.51225   0.40460   0.00000  Uiso   1.00
H72    H     0.06997   0.24887   0.26052   0.00000  Uiso   1.00
H73    H     0.23599   0.38113   0.34057   0.00000  Uiso   1.00
H74    H     0.99847   0.68412   0.46534   0.00000  Uiso   1.00
H75    H     0.01153   0.12876   0.16152   0.00000  Uiso   1.00
H76    H     0.36162   0.40765   0.33033   0.00000  Uiso   1.00
H77    H     0.12981   0.65086   0.16815   0.00000  Uiso   1.00
H78    H     0.07052   0.78956   0.23305   0.00000  Uiso   1.00
H79    H     0.07670   0.52617   0.08897   0.00000  Uiso   1.00
H80    H     0.24272   0.65844   0.16902   0.00000  Uiso   1.00
H81    H     0.00393   0.90920   0.32610   0.00000  Uiso   1.00
H82    H     0.01700   0.35383   0.02228   0.00000  Uiso   1.00
H83    H     0.36708   0.63273   0.19109   0.00000  Uiso   1.00
O84    O     0.96207   0.88314   0.44134   0.00000  Uiso   1.00
O85    O     0.97921   0.15452   0.04274   0.00000  Uiso   1.00
O86    O     0.43851   0.52043   0.26422   0.00000  Uiso   1.00
N87    N     0.00790   0.71807   0.42367   0.00000  Uiso   1.00
N88    N     0.02011   0.19884   0.13962   0.00000  Uiso   1.00
N89    N     0.34741   0.45956   0.29743   0.00000  Uiso   1.00
N90    N     0.01084   0.83918   0.34874   0.00000  Uiso   1.00
N91    N     0.02305   0.31995   0.06469   0.00000  Uiso   1.00
N92    N     0.35035   0.58067   0.22250   0.00000  Uiso   1.00
C93    C     0.87511   0.05179   0.79352   0.00000  Uiso   1.00
C94    C     0.90663   0.94782   0.81108   0.00000  Uiso   1.00
C95    C     0.93477   0.92786   0.86758   0.00000  Uiso   1.00
C96    C     0.96100   0.82769   0.87454   0.00000  Uiso   1.00
C97    C     0.01024   0.67803   0.90907   0.00000  Uiso   1.00
C98    C     0.90327   0.09091   0.73280   0.00000  Uiso   1.00
C99    C     0.92859   0.19128   0.72347   0.00000  Uiso   1.00
C100   C     0.95199   0.21157   0.66453   0.00000  Uiso   1.00
C101   C     0.99599   0.28410   0.57751   0.00000  Uiso   1.00
C102   C     0.81307   0.01905   0.77630   0.00000  Uiso   1.00
C103   C     0.76254   0.05901   0.80354   0.00000  Uiso   1.00
C104   C     0.71000   0.01881   0.78120   0.00000  Uiso   1.00
C105   C     0.61395   0.97975   0.76173   0.00000  Uiso   1.00
C106   C     0.87165   0.90937   0.70541   0.00000  Uiso   1.00
C107   C     0.90475   0.87046   0.76322   0.00000  Uiso   1.00
C108   C     0.93094   0.77029   0.77010   0.00000  Uiso   1.00
C109   C     0.95912   0.75019   0.82660   0.00000  Uiso   1.00
C110   C     0.90140   0.01356   0.68494   0.00000  Uiso   1.00
C111   C     0.92476   0.03371   0.62599   0.00000  Uiso   1.00
C112   C     0.95011   0.13407   0.61658   0.00000  Uiso   1.00
C113   C     0.81119   0.94169   0.72844   0.00000  Uiso   1.00
C114   C     0.75872   0.90143   0.70606   0.00000  Uiso   1.00
C115   C     0.70812   0.94131   0.73326   0.00000  Uiso   1.00
H116   H     0.87657   0.11202   0.83078   0.00000  Uiso   1.00
H117   H     0.93621   0.98775   0.90460   0.00000  Uiso   1.00
H118   H     0.93003   0.25113   0.76052   0.00000  Uiso   1.00
H119   H     0.76401   0.11887   0.84057   0.00000  Uiso   1.00
H120   H     0.00153   0.81588   0.96534   0.00000  Uiso   1.00
H121   H     0.98847   0.37124   0.66152   0.00000  Uiso   1.00
H122   H     0.63838   0.09235   0.83033   0.00000  Uiso   1.00
H123   H     0.87019   0.84914   0.66815   0.00000  Uiso   1.00
H124   H     0.92948   0.71044   0.73305   0.00000  Uiso   1.00
H125   H     0.92330   0.97383   0.58897   0.00000  Uiso   1.00
H126   H     0.75728   0.84156   0.66902   0.00000  Uiso   1.00
H127   H     0.99607   0.59080   0.82610   0.00000  Uiso   1.00
H128   H     0.98300   0.14617   0.52228   0.00000  Uiso   1.00
H129   H     0.63292   0.86727   0.69109   0.00000  Uiso   1.00
O130   O     0.03793   0.61686   0.94134   0.00000  Uiso   1.00
O131   O     0.02079   0.34548   0.54274   0.00000  Uiso   1.00
O132   O     0.56149   0.97957   0.76422   0.00000  Uiso   1.00
N133   N     0.99210   0.78193   0.92367   0.00000  Uiso   1.00
N134   N     0.97989   0.30116   0.63962   0.00000  Uiso   1.00
N135   N     0.65259   0.04044   0.79743   0.00000  Uiso   1.00
N136   N     0.98916   0.66082   0.84874   0.00000  Uiso   1.00
N137   N     0.97695   0.18005   0.56469   0.00000  Uiso   1.00
N138   N     0.64965   0.91933   0.72250   0.00000  Uiso   1.00
C139   C     0.87511   0.55179   0.29352   0.00000  Uiso   1.00
C140   C     0.90663   0.44782   0.31108   0.00000  Uiso   1.00
C141   C     0.93477   0.42786   0.36758   0.00000  Uiso   1.00
C142   C     0.96100   0.32769   0.37454   0.00000  Uiso   1.00
C143   C     0.01024   0.17803   0.40907   0.00000  Uiso   1.00
C144   C     0.90327   0.59091   0.23280   0.00000  Uiso   1.00
C145   C     0.92859   0.69128   0.22347   0.00000  Uiso   1.00
C146   C     0.95199   0.71157   0.16453   0.00000  Uiso   1.00
C147   C     0.99599   0.78410   0.07751   0.00000  Uiso   1.00
C148   C     0.81307   0.51905   0.27630   0.00000  Uiso   1.00
C149   C     0.76254   0.55901   0.30354   0.00000  Uiso   1.00
C150   C     0.71000   0.51881   0.28120   0.00000  Uiso   1.00
C151   C     0.61395   0.47975   0.26173   0.00000  Uiso   1.00
C152   C     0.87165   0.40937   0.20541   0.00000  Uiso   1.00
C153   C     0.90475   0.37046   0.26322   0.00000  Uiso   1.00
C154   C     0.93094   0.27029   0.27010   0.00000  Uiso   1.00
C155   C     0.95912   0.25019   0.32660   0.00000  Uiso   1.00
C156   C     0.90140   0.51356   0.18494   0.00000  Uiso   1.00
C157   C     0.92476   0.53371   0.12599   0.00000  Uiso   1.00
C158   C     0.95011   0.63407   0.11658   0.00000  Uiso   1.00
C159   C     0.81119   0.44169   0.22844   0.00000  Uiso   1.00
C160   C     0.75872   0.40143   0.20606   0.00000  Uiso   1.00
C161   C     0.70812   0.44131   0.23326   0.00000  Uiso   1.00
H162   H     0.87657   0.61202   0.33078   0.00000  Uiso   1.00
H163   H     0.93621   0.48775   0.40460   0.00000  Uiso   1.00
H164   H     0.93003   0.75113   0.26052   0.00000  Uiso   1.00
H165   H     0.76401   0.61887   0.34057   0.00000  Uiso   1.00
H166   H     0.00153   0.31588   0.46534   0.00000  Uiso   1.00
H167   H     0.98847   0.87124   0.16152   0.00000  Uiso   1.00
H168   H     0.63838   0.59235   0.33033   0.00000  Uiso   1.00
H169   H     0.87019   0.34914   0.16815   0.00000  Uiso   1.00
H170   H     0.92948   0.21044   0.23305   0.00000  Uiso   1.00
H171   H     0.92330   0.47383   0.08897   0.00000  Uiso   1.00
H172   H     0.75728   0.34156   0.16902   0.00000  Uiso   1.00
H173   H     0.99607   0.09080   0.32610   0.00000  Uiso   1.00
H174   H     0.98300   0.64617   0.02228   0.00000  Uiso   1.00
H175   H     0.63292   0.36727   0.19109   0.00000  Uiso   1.00
O176   O     0.03793   0.11686   0.44134   0.00000  Uiso   1.00
O177   O     0.02079   0.84548   0.04274   0.00000  Uiso   1.00
O178   O     0.56149   0.47957   0.26422   0.00000  Uiso   1.00
N179   N     0.99210   0.28193   0.42367   0.00000  Uiso   1.00
N180   N     0.97989   0.80116   0.13962   0.00000  Uiso   1.00
N181   N     0.65259   0.54044   0.29743   0.00000  Uiso   1.00
N182   N     0.98916   0.16082   0.34874   0.00000  Uiso   1.00
N183   N     0.97695   0.68005   0.06469   0.00000  Uiso   1.00
N184   N     0.64965   0.41933   0.22250   0.00000  Uiso   1.00
C185   C     0.62489   0.55179   0.79352   0.00000  Uiso   1.00
C186   C     0.59337   0.44782   0.81108   0.00000  Uiso   1.00
C187   C     0.56523   0.42786   0.86758   0.00000  Uiso   1.00
C188   C     0.53900   0.32769   0.87454   0.00000  Uiso   1.00
C189   C     0.48976   0.17803   0.90907   0.00000  Uiso   1.00
C190   C     0.59673   0.59091   0.73280   0.00000  Uiso   1.00
C191   C     0.57141   0.69128   0.72347   0.00000  Uiso   1.00
C192   C     0.54801   0.71157   0.66453   0.00000  Uiso   1.00
C193   C     0.50401   0.78410   0.57751   0.00000  Uiso   1.00
C194   C     0.68693   0.51905   0.77630   0.00000  Uiso   1.00
C195   C     0.73746   0.55901   0.80354   0.00000  Uiso   1.00
C196   C     0.79000   0.51881   0.78120   0.00000  Uiso   1.00
C197   C     0.88605   0.47975   0.76173   0.00000  Uiso   1.00
C198   C     0.62835   0.40937   0.70541   0.00000  Uiso   1.00
C199   C     0.59525   0.37046   0.76322   0.00000  Uiso   1.00
C200   C     0.56906   0.27029   0.77010   0.00000  Uiso   1.00
C201   C     0.54088   0.25019   0.82660   0.00000  Uiso   1.00
C202   C     0.59860   0.51356   0.68494   0.00000  Uiso   1.00
C203   C     0.57524   0.53371   0.62599   0.00000  Uiso   1.00
C204   C     0.54989   0.63407   0.61658   0.00000  Uiso   1.00
C205   C     0.68881   0.44169   0.72844   0.00000  Uiso   1.00
C206   C     0.74128   0.40143   0.70606   0.00000  Uiso   1.00
C207   C     0.79188   0.44131   0.73326   0.00000  Uiso   1.00
H208   H     0.62343   0.61202   0.83078   0.00000  Uiso   1.00
H209   H     0.56379   0.48775   0.90460   0.00000  Uiso   1.00
H210   H     0.56997   0.75113   0.76052   0.00000  Uiso   1.00
H211   H     0.73599   0.61887   0.84057   0.00000  Uiso   1.00
H212   H     0.49847   0.31588   0.96534   0.00000  Uiso   1.00
H213   H     0.51153   0.87124   0.66152   0.00000  Uiso   1.00
H214   H     0.86162   0.59235   0.83033   0.00000  Uiso   1.00
H215   H     0.62981   0.34914   0.66815   0.00000  Uiso   1.00
H216   H     0.57052   0.21044   0.73305   0.00000  Uiso   1.00
H217   H     0.57670   0.47383   0.58897   0.00000  Uiso   1.00
H218   H     0.74272   0.34156   0.66902   0.00000  Uiso   1.00
H219   H     0.50393   0.09080   0.82610   0.00000  Uiso   1.00
H220   H     0.51700   0.64617   0.52228   0.00000  Uiso   1.00
H221   H     0.86708   0.36727   0.69109   0.00000  Uiso   1.00
O222   O     0.46207   0.11686   0.94134   0.00000  Uiso   1.00
O223   O     0.47921   0.84548   0.54274   0.00000  Uiso   1.00
O224   O     0.93851   0.47957   0.76422   0.00000  Uiso   1.00
N225   N     0.50790   0.28193   0.92367   0.00000  Uiso   1.00
N226   N     0.52011   0.80116   0.63962   0.00000  Uiso   1.00
N227   N     0.84741   0.54044   0.79743   0.00000  Uiso   1.00
N228   N     0.51084   0.16082   0.84874   0.00000  Uiso   1.00
N229   N     0.52305   0.68005   0.56469   0.00000  Uiso   1.00
N230   N     0.85035   0.41933   0.72250   0.00000  Uiso   1.00
C231   C     0.62489   0.05179   0.29352   0.00000  Uiso   1.00
C232   C     0.59337   0.94782   0.31108   0.00000  Uiso   1.00
C233   C     0.56523   0.92786   0.36758   0.00000  Uiso   1.00
C234   C     0.53900   0.82769   0.37454   0.00000  Uiso   1.00
C235   C     0.48976   0.67803   0.40907   0.00000  Uiso   1.00
C236   C     0.59673   0.09091   0.23280   0.00000  Uiso   1.00
C237   C     0.57141   0.19128   0.22347   0.00000  Uiso   1.00
C238   C     0.54801   0.21157   0.16453   0.00000  Uiso   1.00
C239   C     0.50401   0.28410   0.07751   0.00000  Uiso   1.00
C240   C     0.68693   0.01905   0.27630   0.00000  Uiso   1.00
C241   C     0.73746   0.05901   0.30354   0.00000  Uiso   1.00
C242   C     0.79000   0.01881   0.28120   0.00000  Uiso   1.00
C243   C     0.88605   0.97975   0.26173   0.00000  Uiso   1.00
C244   C     0.62835   0.90937   0.20541   0.00000  Uiso   1.00
C245   C     0.59525   0.87046   0.26322   0.00000  Uiso   1.00
C246   C     0.56906   0.77029   0.27010   0.00000  Uiso   1.00
C247   C     0.54088   0.75019   0.32660   0.00000  Uiso   1.00
C248   C     0.59860   0.01356   0.18494   0.00000  Uiso   1.00
C249   C     0.57524   0.03371   0.12599   0.00000  Uiso   1.00
C250   C     0.54989   0.13407   0.11658   0.00000  Uiso   1.00
C251   C     0.68881   0.94169   0.22844   0.00000  Uiso   1.00
C252   C     0.74128   0.90143   0.20606   0.00000  Uiso   1.00
C253   C     0.79188   0.94131   0.23326   0.00000  Uiso   1.00
H254   H     0.62343   0.11202   0.33078   0.00000  Uiso   1.00
H255   H     0.56379   0.98775   0.40460   0.00000  Uiso   1.00
H256   H     0.56997   0.25113   0.26052   0.00000  Uiso   1.00
H257   H     0.73599   0.11887   0.34057   0.00000  Uiso   1.00
H258   H     0.49847   0.81588   0.46534   0.00000  Uiso   1.00
H259   H     0.51153   0.37124   0.16152   0.00000  Uiso   1.00
H260   H     0.86162   0.09235   0.33033   0.00000  Uiso   1.00
H261   H     0.62981   0.84914   0.16815   0.00000  Uiso   1.00
H262   H     0.57052   0.71044   0.23305   0.00000  Uiso   1.00
H263   H     0.57670   0.97383   0.08897   0.00000  Uiso   1.00
H264   H     0.74272   0.84156   0.16902   0.00000  Uiso   1.00
H265   H     0.50393   0.59080   0.32610   0.00000  Uiso   1.00
H266   H     0.51700   0.14617   0.02228   0.00000  Uiso   1.00
H267   H     0.86708   0.86727   0.19109   0.00000  Uiso   1.00
O268   O     0.46207   0.61686   0.44134   0.00000  Uiso   1.00
O269   O     0.47921   0.34548   0.04274   0.00000  Uiso   1.00
O270   O     0.93851   0.97957   0.26422   0.00000  Uiso   1.00
N271   N     0.50790   0.78193   0.42367   0.00000  Uiso   1.00
N272   N     0.52011   0.30116   0.13962   0.00000  Uiso   1.00
N273   N     0.84741   0.04044   0.29743   0.00000  Uiso   1.00
N274   N     0.51084   0.66082   0.34874   0.00000  Uiso   1.00
N275   N     0.52305   0.18005   0.06469   0.00000  Uiso   1.00
N276   N     0.85035   0.91933   0.22250   0.00000  Uiso   1.00
C277   C     0.37511   0.44821   0.79352   0.00000  Uiso   1.00
C278   C     0.40663   0.55218   0.81108   0.00000  Uiso   1.00
C279   C     0.43477   0.57214   0.86758   0.00000  Uiso   1.00
C280   C     0.46100   0.67231   0.87454   0.00000  Uiso   1.00
C281   C     0.51024   0.82197   0.90907   0.00000  Uiso   1.00
C282   C     0.40327   0.40909   0.73280   0.00000  Uiso   1.00
C283   C     0.42859   0.30872   0.72347   0.00000  Uiso   1.00
C284   C     0.45199   0.28843   0.66453   0.00000  Uiso   1.00
C285   C     0.49599   0.21590   0.57751   0.00000  Uiso   1.00
C286   C     0.31307   0.48095   0.77630   0.00000  Uiso   1.00
C287   C     0.26254   0.44099   0.80354   0.00000  Uiso   1.00
C288   C     0.21000   0.48119   0.78120   0.00000  Uiso   1.00
C289   C     0.11395   0.52025   0.76173   0.00000  Uiso   1.00
C290   C     0.37165   0.59063   0.70541   0.00000  Uiso   1.00
C291   C     0.40475   0.62954   0.76322   0.00000  Uiso   1.00
C292   C     0.43094   0.72971   0.77010   0.00000  Uiso   1.00
C293   C     0.45912   0.74981   0.82660   0.00000  Uiso   1.00
C294   C     0.40140   0.48644   0.68494   0.00000  Uiso   1.00
C295   C     0.42476   0.46629   0.62599   0.00000  Uiso   1.00
C296   C     0.45011   0.36593   0.61658   0.00000  Uiso   1.00
C297   C     0.31119   0.55831   0.72844   0.00000  Uiso   1.00
C298   C     0.25872   0.59857   0.70606   0.00000  Uiso   1.00
C299   C     0.20812   0.55869   0.73326   0.00000  Uiso   1.00
H300   H     0.37657   0.38798   0.83078   0.00000  Uiso   1.00
H301   H     0.43621   0.51225   0.90460   0.00000  Uiso   1.00
H302   H     0.43003   0.24887   0.76052   0.00000  Uiso   1.00
H303   H     0.26401   0.38113   0.84057   0.00000  Uiso   1.00
H304   H     0.50153   0.68412   0.96534   0.00000  Uiso   1.00
H305   H     0.48847   0.12876   0.66152   0.00000  Uiso   1.00
H306   H     0.13838   0.40765   0.83033   0.00000  Uiso   1.00
H307   H     0.37019   0.65086   0.66815   0.00000  Uiso   1.00
H308   H     0.42948   0.78956   0.73305   0.00000  Uiso   1.00
H309   H     0.42330   0.52617   0.58897   0.00000  Uiso   1.00
H310   H     0.25728   0.65844   0.66902   0.00000  Uiso   1.00
H311   H     0.49607   0.90920   0.82610   0.00000  Uiso   1.00
H312   H     0.48300   0.35383   0.52228   0.00000  Uiso   1.00
H313   H     0.13292   0.63273   0.69109   0.00000  Uiso   1.00
O314   O     0.53793   0.88314   0.94134   0.00000  Uiso   1.00
O315   O     0.52079   0.15452   0.54274   0.00000  Uiso   1.00
O316   O     0.06149   0.52043   0.76422   0.00000  Uiso   1.00
N317   N     0.49210   0.71807   0.92367   0.00000  Uiso   1.00
N318   N     0.47989   0.19884   0.63962   0.00000  Uiso   1.00
N319   N     0.15259   0.45956   0.79743   0.00000  Uiso   1.00
N320   N     0.48916   0.83918   0.84874   0.00000  Uiso   1.00
N321   N     0.47695   0.31995   0.56469   0.00000  Uiso   1.00
N322   N     0.14965   0.58067   0.72250   0.00000  Uiso   1.00
C323   C     0.37511   0.94821   0.29352   0.00000  Uiso   1.00
C324   C     0.40663   0.05218   0.31108   0.00000  Uiso   1.00
C325   C     0.43477   0.07214   0.36758   0.00000  Uiso   1.00
C326   C     0.46100   0.17231   0.37454   0.00000  Uiso   1.00
C327   C     0.51024   0.32197   0.40907   0.00000  Uiso   1.00
C328   C     0.40327   0.90909   0.23280   0.00000  Uiso   1.00
C329   C     0.42859   0.80872   0.22347   0.00000  Uiso   1.00
C330   C     0.45199   0.78843   0.16453   0.00000  Uiso   1.00
C331   C     0.49599   0.71590   0.07751   0.00000  Uiso   1.00
C332   C     0.31307   0.98095   0.27630   0.00000  Uiso   1.00
C333   C     0.26254   0.94099   0.30354   0.00000  Uiso   1.00
C334   C     0.21000   0.98119   0.28120   0.00000  Uiso   1.00
C335   C     0.11395   0.02025   0.26173   0.00000  Uiso   1.00
C336   C     0.37165   0.09063   0.20541   0.00000  Uiso   1.00
C337   C     0.40475   0.12954   0.26322   0.00000  Uiso   1.00
C338   C     0.43094   0.22971   0.27010   0.00000  Uiso   1.00
C339   C     0.45912   0.24981   0.32660   0.00000  Uiso   1.00
C340   C     0.40140   0.98644   0.18494   0.00000  Uiso   1.00
C341   C     0.42476   0.96629   0.12599   0.00000  Uiso   1.00
C342   C     0.45011   0.86593   0.11658   0.00000  Uiso   1.00
C343   C     0.31119   0.05831   0.22844   0.00000  Uiso   1.00
C344   C     0.25872   0.09857   0.20606   0.00000  Uiso   1.00
C345   C     0.20812   0.05869   0.23326   0.00000  Uiso   1.00
H346   H     0.37657   0.88798   0.33078   0.00000  Uiso   1.00
H347   H     0.43621   0.01225   0.40460   0.00000  Uiso   1.00
H348   H     0.43003   0.74887   0.26052   0.00000  Uiso   1.00
H349   H     0.26401   0.88113   0.34057   0.00000  Uiso   1.00
H350   H     0.50153   0.18412   0.46534   0.00000  Uiso   1.00
H351   H     0.48847   0.62876   0.16152   0.00000  Uiso   1.00
H352   H     0.13838   0.90765   0.33033   0.00000  Uiso   1.00
H353   H     0.37019   0.15086   0.16815   0.00000  Uiso   1.00
H354   H     0.42948   0.28956   0.23305   0.00000  Uiso   1.00
H355   H     0.42330   0.02617   0.08897   0.00000  Uiso   1.00
H356   H     0.25728   0.15844   0.16902   0.00000  Uiso   1.00
H357   H     0.49607   0.40920   0.32610   0.00000  Uiso   1.00
H358   H     0.48300   0.85383   0.02228   0.00000  Uiso   1.00
H359   H     0.13292   0.13273   0.19109   0.00000  Uiso   1.00
O360   O     0.53793   0.38314   0.44134   0.00000  Uiso   1.00
O361   O     0.52079   0.65452   0.04274   0.00000  Uiso   1.00
O362   O     0.06149   0.02043   0.26422   0.00000  Uiso   1.00
N363   N     0.49210   0.21807   0.42367   0.00000  Uiso   1.00
N364   N     0.47989   0.69884   0.13962   0.00000  Uiso   1.00
N365   N     0.15259   0.95956   0.29743   0.00000  Uiso   1.00
N366   N     0.48916   0.33918   0.34874   0.00000  Uiso   1.00
N367   N     0.47695   0.81995   0.06469   0.00000  Uiso   1.00
N368   N     0.14965   0.08067   0.22250   0.00000  Uiso   1.00
