data_job_06291
_audit_creation_date              2018-12-19
_audit_creation_method            'Materials Studio'
_symmetry_space_group_name_H-M    'P1'
_symmetry_Int_Tables_number       1
_symmetry_cell_setting            triclinic
loop_
_symmetry_equiv_pos_as_xyz
  x,y,z
_cell_length_a                    7.3254
_cell_length_b                    30.5948
_cell_length_c                    30.6021
_cell_angle_alpha                 60.6430
_cell_angle_beta                  85.4947
_cell_angle_gamma                 94.5077
loop_
_atom_site_label
_atom_site_type_symbol
_atom_site_fract_x
_atom_site_fract_y
_atom_site_fract_z
_atom_site_U_iso_or_equiv
_atom_site_adp_type
_atom_site_occupancy
C1     C     0.58003   0.53898   0.36285   0.00000  Uiso   1.00
C2     C     0.64456   0.49407   0.40715   0.00000  Uiso   1.00
C3     C     0.53159   0.45593   0.44957   0.00000  Uiso   1.00
C4     C     0.61727   0.41820   0.48589   0.00000  Uiso   1.00
C5     C     0.68831   0.34841   0.55559   0.00000  Uiso   1.00
C6     C     0.68663   0.58621   0.35831   0.00000  Uiso   1.00
C7     C     0.60902   0.62555   0.35966   0.00000  Uiso   1.00
C8     C     0.73013   0.66538   0.35486   0.00000  Uiso   1.00
C9     C     0.86648   0.73865   0.34870   0.00000  Uiso   1.00
C10    C     0.65084   0.53721   0.31561   0.00000  Uiso   1.00
C11    C     0.54316   0.53537   0.28106   0.00000  Uiso   1.00
C12    C     0.63414   0.53396   0.24031   0.00000  Uiso   1.00
C13    C     0.71494   0.53117   0.16785   0.00000  Uiso   1.00
C14    C     0.93309   0.53977   0.35191   0.00000  Uiso   1.00
C15    C     0.83633   0.49450   0.40120   0.00000  Uiso   1.00
C16    C     0.92221   0.45681   0.43747   0.00000  Uiso   1.00
C17    C     0.80938   0.41863   0.47994   0.00000  Uiso   1.00
C18    C     0.87839   0.58664   0.35237   0.00000  Uiso   1.00
C19    C     0.99964   0.62642   0.34756   0.00000  Uiso   1.00
C20    C     0.92224   0.66581   0.34891   0.00000  Uiso   1.00
C21    C     0.84262   0.53764   0.30967   0.00000  Uiso   1.00
C22    C     0.93379   0.53625   0.26896   0.00000  Uiso   1.00
C23    C     0.82626   0.53440   0.23435   0.00000  Uiso   1.00
H24    H     0.43073   0.53865   0.36748   0.00000  Uiso   1.00
H25    H     0.38319   0.45562   0.45416   0.00000  Uiso   1.00
H26    H     0.46061   0.62520   0.36426   0.00000  Uiso   1.00
H27    H     0.39476   0.53504   0.28567   0.00000  Uiso   1.00
H28    H     0.41506   0.36376   0.54765   0.00000  Uiso   1.00
H29    H     0.57831   0.72135   0.35807   0.00000  Uiso   1.00
H30    H     0.43945   0.53122   0.19235   0.00000  Uiso   1.00
H31    H     0.08240   0.54011   0.34729   0.00000  Uiso   1.00
H32    H     0.07062   0.45716   0.43286   0.00000  Uiso   1.00
H33    H     0.14804   0.62674   0.34296   0.00000  Uiso   1.00
H34    H     0.08219   0.53658   0.26437   0.00000  Uiso   1.00
H35    H     0.97300   0.36501   0.53036   0.00000  Uiso   1.00
H36    H     0.13625   0.72260   0.34078   0.00000  Uiso   1.00
H37    H     0.99740   0.53247   0.17506   0.00000  Uiso   1.00
O38    O     0.67453   0.30980   0.59567   0.00000  Uiso   1.00
O39    O     0.88870   0.77895   0.34694   0.00000  Uiso   1.00
O40    O     0.70653   0.52950   0.12952   0.00000  Uiso   1.00
N41    N     0.54798   0.37543   0.53183   0.00000  Uiso   1.00
N42    N     0.70061   0.70976   0.35459   0.00000  Uiso   1.00
N43    N     0.57080   0.53202   0.19965   0.00000  Uiso   1.00
N44    N     0.84821   0.37611   0.52253   0.00000  Uiso   1.00
N45    N     0.00084   0.71043   0.34529   0.00000  Uiso   1.00
N46    N     0.87102   0.53269   0.19035   0.00000  Uiso   1.00
C47    C     0.04272   0.09853   0.53827   0.00000  Uiso   1.00
C48    C     0.15178   0.09909   0.49341   0.00000  Uiso   1.00
C49    C     0.07667   0.09480   0.45521   0.00000  Uiso   1.00
C50    C     0.19975   0.09616   0.41754   0.00000  Uiso   1.00
C51    C     0.34000   0.09619   0.34781   0.00000  Uiso   1.00
C52    C     0.10246   0.05585   0.58552   0.00000  Uiso   1.00
C53    C     0.98586   0.01521   0.62478   0.00000  Uiso   1.00
C54    C     0.06743   0.98017   0.66466   0.00000  Uiso   1.00
C55    C     0.13108   0.91308   0.73796   0.00000  Uiso   1.00
C56    C     0.11526   0.14751   0.53656   0.00000  Uiso   1.00
C57    C     0.00942   0.18394   0.53468   0.00000  Uiso   1.00
C58    C     0.10177   0.22607   0.53334   0.00000  Uiso   1.00
C59    C     0.18529   0.30130   0.53063   0.00000  Uiso   1.00
C60    C     0.39489   0.10857   0.53927   0.00000  Uiso   1.00
C61    C     0.34307   0.10454   0.49395   0.00000  Uiso   1.00
C62    C     0.46630   0.10591   0.45633   0.00000  Uiso   1.00
C63    C     0.39138   0.10163   0.41809   0.00000  Uiso   1.00
C64    C     0.29374   0.06130   0.58607   0.00000  Uiso   1.00
C65    C     0.37550   0.02632   0.62590   0.00000  Uiso   1.00
C66    C     0.25906   0.98563   0.66520   0.00000  Uiso   1.00
C67    C     0.30654   0.15297   0.53711   0.00000  Uiso   1.00
C68    C     0.39907   0.19505   0.53578   0.00000  Uiso   1.00
C69    C     0.29340   0.23153   0.53389   0.00000  Uiso   1.00
H70    H     0.89379   0.09428   0.53785   0.00000  Uiso   1.00
H71    H     0.92862   0.09058   0.45481   0.00000  Uiso   1.00
H72    H     0.83784   0.01100   0.62435   0.00000  Uiso   1.00
H73    H     0.86140   0.17971   0.53425   0.00000  Uiso   1.00
H74    H     0.05159   0.08886   0.36300   0.00000  Uiso   1.00
H75    H     0.86016   0.92108   0.72050   0.00000  Uiso   1.00
H76    H     0.90984   0.27683   0.53051   0.00000  Uiso   1.00
H77    H     0.54382   0.11281   0.53970   0.00000  Uiso   1.00
H78    H     0.61432   0.11013   0.45676   0.00000  Uiso   1.00
H79    H     0.52353   0.03055   0.62630   0.00000  Uiso   1.00
H80    H     0.54709   0.19926   0.53621   0.00000  Uiso   1.00
H81    H     0.60813   0.10473   0.36458   0.00000  Uiso   1.00
H82    H     0.41669   0.93695   0.72209   0.00000  Uiso   1.00
H83    H     0.46638   0.29269   0.53210   0.00000  Uiso   1.00
O84    O     0.36451   0.09468   0.30921   0.00000  Uiso   1.00
O85    O     0.11334   0.87456   0.77824   0.00000  Uiso   1.00
O86    O     0.17853   0.34129   0.52898   0.00000  Uiso   1.00
N87    N     0.17290   0.09298   0.37475   0.00000  Uiso   1.00
N88    N     0.99392   0.93610   0.70899   0.00000  Uiso   1.00
N89    N     0.04036   0.26869   0.53138   0.00000  Uiso   1.00
N90    N     0.47237   0.10152   0.37560   0.00000  Uiso   1.00
N91    N     0.29339   0.94464   0.70984   0.00000  Uiso   1.00
N92    N     0.33983   0.27723   0.53223   0.00000  Uiso   1.00
C93    C     0.94188   0.36342   0.09796   0.00000  Uiso   1.00
C94    C     0.05034   0.40768   0.09861   0.00000  Uiso   1.00
C95    C     0.97949   0.45018   0.09430   0.00000  Uiso   1.00
C96    C     0.10119   0.48646   0.09575   0.00000  Uiso   1.00
C97    C     0.24135   0.55612   0.09589   0.00000  Uiso   1.00
C98    C     0.04394   0.35879   0.05533   0.00000  Uiso   1.00
C99    C     0.96768   0.36017   0.01464   0.00000  Uiso   1.00
C100   C     0.08399   0.35529   0.97965   0.00000  Uiso   1.00
C101   C     0.21417   0.34901   0.91262   0.00000  Uiso   1.00
C102   C     0.96583   0.31615   0.14695   0.00000  Uiso   1.00
C103   C     0.82390   0.28167   0.18329   0.00000  Uiso   1.00
C104   C     0.87444   0.24088   0.22545   0.00000  Uiso   1.00
C105   C     0.88334   0.16839   0.30067   0.00000  Uiso   1.00
C106   C     0.28400   0.35228   0.10820   0.00000  Uiso   1.00
C107   C     0.23617   0.40163   0.10417   0.00000  Uiso   1.00
C108   C     0.35800   0.43785   0.10563   0.00000  Uiso   1.00
C109   C     0.28734   0.48040   0.10132   0.00000  Uiso   1.00
C110   C     0.22975   0.35274   0.06089   0.00000  Uiso   1.00
C111   C     0.34619   0.34784   0.02596   0.00000  Uiso   1.00
C112   C     0.27014   0.34922   0.98522   0.00000  Uiso   1.00
C113   C     0.15165   0.31010   0.15252   0.00000  Uiso   1.00
C114   C     0.20241   0.26935   0.19462   0.00000  Uiso   1.00
C115   C     0.06060   0.23481   0.23102   0.00000  Uiso   1.00
H116   H     0.79722   0.36813   0.09363   0.00000  Uiso   1.00
H117   H     0.83568   0.45485   0.08999   0.00000  Uiso   1.00
H118   H     0.82388   0.36485   0.01035   0.00000  Uiso   1.00
H119   H     0.68012   0.28637   0.17898   0.00000  Uiso   1.00
H120   H     0.96029   0.54834   0.08840   0.00000  Uiso   1.00
H121   H     0.93538   0.35855   0.92046   0.00000  Uiso   1.00
H122   H     0.63223   0.19305   0.27605   0.00000  Uiso   1.00
H123   H     0.42867   0.34756   0.11253   0.00000  Uiso   1.00
H124   H     0.50179   0.43316   0.10993   0.00000  Uiso   1.00
H125   H     0.48998   0.34316   0.03028   0.00000  Uiso   1.00
H126   H     0.34622   0.26467   0.19891   0.00000  Uiso   1.00
H127   H     0.50094   0.53073   0.10457   0.00000  Uiso   1.00
H128   H     0.47602   0.34094   0.93664   0.00000  Uiso   1.00
H129   H     0.17287   0.17544   0.29223   0.00000  Uiso   1.00
O130   O     0.26734   0.59622   0.09442   0.00000  Uiso   1.00
O131   O     0.23464   0.34722   0.87410   0.00000  Uiso   1.00
O132   O     0.83692   0.13008   0.34063   0.00000  Uiso   1.00
N133   N     0.07749   0.53244   0.09257   0.00000  Uiso   1.00
N134   N     0.05420   0.35501   0.93556   0.00000  Uiso   1.00
N135   N     0.77079   0.20027   0.26800   0.00000  Uiso   1.00
N136   N     0.36841   0.52297   0.10128   0.00000  Uiso   1.00
N137   N     0.34512   0.34554   0.94426   0.00000  Uiso   1.00
N138   N     0.06170   0.19080   0.27671   0.00000  Uiso   1.00
C139   C     0.41997   0.46102   0.63715   0.00000  Uiso   1.00
C140   C     0.35544   0.50593   0.59285   0.00000  Uiso   1.00
C141   C     0.46841   0.54407   0.55043   0.00000  Uiso   1.00
C142   C     0.38273   0.58180   0.51411   0.00000  Uiso   1.00
C143   C     0.31169   0.65159   0.44441   0.00000  Uiso   1.00
C144   C     0.31337   0.41379   0.64169   0.00000  Uiso   1.00
C145   C     0.39098   0.37446   0.64034   0.00000  Uiso   1.00
C146   C     0.26987   0.33463   0.64514   0.00000  Uiso   1.00
C147   C     0.13352   0.26135   0.65130   0.00000  Uiso   1.00
C148   C     0.34916   0.46279   0.68439   0.00000  Uiso   1.00
C149   C     0.45684   0.46463   0.71894   0.00000  Uiso   1.00
C150   C     0.36586   0.46604   0.75969   0.00000  Uiso   1.00
C151   C     0.28506   0.46883   0.83215   0.00000  Uiso   1.00
C152   C     0.06691   0.46023   0.64809   0.00000  Uiso   1.00
C153   C     0.16367   0.50550   0.59880   0.00000  Uiso   1.00
C154   C     0.07779   0.54319   0.56253   0.00000  Uiso   1.00
C155   C     0.19062   0.58137   0.52006   0.00000  Uiso   1.00
C156   C     0.12161   0.41336   0.64763   0.00000  Uiso   1.00
C157   C     0.00036   0.37358   0.65244   0.00000  Uiso   1.00
C158   C     0.07776   0.33419   0.65109   0.00000  Uiso   1.00
C159   C     0.15738   0.46236   0.69033   0.00000  Uiso   1.00
C160   C     0.06621   0.46375   0.73104   0.00000  Uiso   1.00
C161   C     0.17374   0.46560   0.76565   0.00000  Uiso   1.00
H162   H     0.56927   0.46135   0.63252   0.00000  Uiso   1.00
H163   H     0.61681   0.54438   0.54584   0.00000  Uiso   1.00
H164   H     0.53939   0.37480   0.63574   0.00000  Uiso   1.00
H165   H     0.60524   0.46496   0.71433   0.00000  Uiso   1.00
H166   H     0.58494   0.63624   0.45235   0.00000  Uiso   1.00
H167   H     0.42169   0.27865   0.64193   0.00000  Uiso   1.00
H168   H     0.56055   0.46878   0.80765   0.00000  Uiso   1.00
H169   H     0.91760   0.45989   0.65271   0.00000  Uiso   1.00
H170   H     0.92938   0.54284   0.56714   0.00000  Uiso   1.00
H171   H     0.85196   0.37326   0.65704   0.00000  Uiso   1.00
H172   H     0.91781   0.46342   0.73563   0.00000  Uiso   1.00
H173   H     0.02700   0.63499   0.46964   0.00000  Uiso   1.00
H174   H     0.86375   0.27740   0.65922   0.00000  Uiso   1.00
H175   H     0.00260   0.46753   0.82494   0.00000  Uiso   1.00
O176   O     0.32547   0.69020   0.40433   0.00000  Uiso   1.00
O177   O     0.11130   0.22105   0.65306   0.00000  Uiso   1.00
O178   O     0.29347   0.47050   0.87048   0.00000  Uiso   1.00
N179   N     0.45202   0.62457   0.46817   0.00000  Uiso   1.00
N180   N     0.29939   0.29024   0.64541   0.00000  Uiso   1.00
N181   N     0.42920   0.46798   0.80035   0.00000  Uiso   1.00
N182   N     0.15179   0.62389   0.47747   0.00000  Uiso   1.00
N183   N     0.99916   0.28957   0.65471   0.00000  Uiso   1.00
N184   N     0.12898   0.46731   0.80965   0.00000  Uiso   1.00
C185   C     0.95728   0.90147   0.46173   0.00000  Uiso   1.00
C186   C     0.84822   0.90091   0.50659   0.00000  Uiso   1.00
C187   C     0.92333   0.90520   0.54479   0.00000  Uiso   1.00
C188   C     0.80025   0.90384   0.58246   0.00000  Uiso   1.00
C189   C     0.66000   0.90381   0.65219   0.00000  Uiso   1.00
C190   C     0.89754   0.94415   0.41448   0.00000  Uiso   1.00
C191   C     0.01414   0.98479   0.37522   0.00000  Uiso   1.00
C192   C     0.93257   0.01983   0.33534   0.00000  Uiso   1.00
C193   C     0.86892   0.08692   0.26204   0.00000  Uiso   1.00
C194   C     0.88474   0.85249   0.46344   0.00000  Uiso   1.00
C195   C     0.99058   0.81606   0.46532   0.00000  Uiso   1.00
C196   C     0.89823   0.77393   0.46666   0.00000  Uiso   1.00
C197   C     0.81471   0.69870   0.46937   0.00000  Uiso   1.00
C198   C     0.60511   0.89143   0.46073   0.00000  Uiso   1.00
C199   C     0.65693   0.89546   0.50605   0.00000  Uiso   1.00
C200   C     0.53370   0.89409   0.54367   0.00000  Uiso   1.00
C201   C     0.60862   0.89837   0.58191   0.00000  Uiso   1.00
C202   C     0.70626   0.93870   0.41393   0.00000  Uiso   1.00
C203   C     0.62450   0.97368   0.37410   0.00000  Uiso   1.00
C204   C     0.74094   0.01437   0.33480   0.00000  Uiso   1.00
C205   C     0.69346   0.84703   0.46289   0.00000  Uiso   1.00
C206   C     0.60093   0.80495   0.46422   0.00000  Uiso   1.00
C207   C     0.70660   0.76847   0.46611   0.00000  Uiso   1.00
H208   H     0.10621   0.90572   0.46215   0.00000  Uiso   1.00
H209   H     0.07138   0.90942   0.54519   0.00000  Uiso   1.00
H210   H     0.16216   0.98900   0.37565   0.00000  Uiso   1.00
H211   H     0.13860   0.82029   0.46575   0.00000  Uiso   1.00
H212   H     0.94841   0.91114   0.63700   0.00000  Uiso   1.00
H213   H     0.13984   0.07892   0.27950   0.00000  Uiso   1.00
H214   H     0.09016   0.72317   0.46949   0.00000  Uiso   1.00
H215   H     0.45618   0.88719   0.46030   0.00000  Uiso   1.00
H216   H     0.38568   0.88987   0.54324   0.00000  Uiso   1.00
H217   H     0.47647   0.96945   0.37369   0.00000  Uiso   1.00
H218   H     0.45291   0.80074   0.46379   0.00000  Uiso   1.00
H219   H     0.39187   0.89527   0.63542   0.00000  Uiso   1.00
H220   H     0.58331   0.06305   0.27791   0.00000  Uiso   1.00
H221   H     0.53362   0.70731   0.46790   0.00000  Uiso   1.00
O222   O     0.63549   0.90532   0.69079   0.00000  Uiso   1.00
O223   O     0.88666   0.12544   0.22176   0.00000  Uiso   1.00
O224   O     0.82147   0.65871   0.47102   0.00000  Uiso   1.00
N225   N     0.82710   0.90702   0.62525   0.00000  Uiso   1.00
N226   N     0.00608   0.06390   0.29101   0.00000  Uiso   1.00
N227   N     0.95964   0.73131   0.46862   0.00000  Uiso   1.00
N228   N     0.52763   0.89848   0.62440   0.00000  Uiso   1.00
N229   N     0.70661   0.05536   0.29016   0.00000  Uiso   1.00
N230   N     0.66017   0.72277   0.46777   0.00000  Uiso   1.00
C231   C     0.05812   0.63658   0.90204   0.00000  Uiso   1.00
C232   C     0.94966   0.59232   0.90139   0.00000  Uiso   1.00
C233   C     0.02051   0.54982   0.90570   0.00000  Uiso   1.00
C234   C     0.89881   0.51354   0.90425   0.00000  Uiso   1.00
C235   C     0.75865   0.44388   0.90411   0.00000  Uiso   1.00
C236   C     0.95606   0.64121   0.94467   0.00000  Uiso   1.00
C237   C     0.03232   0.63983   0.98536   0.00000  Uiso   1.00
C238   C     0.91601   0.64471   0.02035   0.00000  Uiso   1.00
C239   C     0.78583   0.65100   0.08738   0.00000  Uiso   1.00
C240   C     0.03417   0.68385   0.85304   0.00000  Uiso   1.00
C241   C     0.17610   0.71833   0.81671   0.00000  Uiso   1.00
C242   C     0.12556   0.75912   0.77455   0.00000  Uiso   1.00
C243   C     0.11666   0.83161   0.69933   0.00000  Uiso   1.00
C244   C     0.71600   0.64773   0.89180   0.00000  Uiso   1.00
C245   C     0.76383   0.59837   0.89583   0.00000  Uiso   1.00
C246   C     0.64200   0.56215   0.89437   0.00000  Uiso   1.00
C247   C     0.71266   0.51960   0.89868   0.00000  Uiso   1.00
C248   C     0.77025   0.64726   0.93911   0.00000  Uiso   1.00
C249   C     0.65381   0.65216   0.97404   0.00000  Uiso   1.00
C250   C     0.72986   0.65078   0.01478   0.00000  Uiso   1.00
C251   C     0.84835   0.68990   0.84748   0.00000  Uiso   1.00
C252   C     0.79759   0.73066   0.80538   0.00000  Uiso   1.00
C253   C     0.93940   0.76519   0.76898   0.00000  Uiso   1.00
H254   H     0.20278   0.63187   0.90637   0.00000  Uiso   1.00
H255   H     0.16432   0.54515   0.91001   0.00000  Uiso   1.00
H256   H     0.17612   0.63515   0.98965   0.00000  Uiso   1.00
H257   H     0.31988   0.71363   0.82102   0.00000  Uiso   1.00
H258   H     0.03971   0.45166   0.91160   0.00000  Uiso   1.00
H259   H     0.06462   0.64145   0.07954   0.00000  Uiso   1.00
H260   H     0.36777   0.80695   0.72395   0.00000  Uiso   1.00
H261   H     0.57133   0.65244   0.88747   0.00000  Uiso   1.00
H262   H     0.49821   0.56684   0.89007   0.00000  Uiso   1.00
H263   H     0.51002   0.65684   0.96972   0.00000  Uiso   1.00
H264   H     0.65378   0.73533   0.80109   0.00000  Uiso   1.00
H265   H     0.49906   0.46927   0.89543   0.00000  Uiso   1.00
H266   H     0.52398   0.65906   0.06336   0.00000  Uiso   1.00
H267   H     0.82713   0.82456   0.70777   0.00000  Uiso   1.00
O268   O     0.73266   0.40378   0.90558   0.00000  Uiso   1.00
O269   O     0.76536   0.65278   0.12590   0.00000  Uiso   1.00
O270   O     0.16308   0.86992   0.65937   0.00000  Uiso   1.00
N271   N     0.92251   0.46756   0.90743   0.00000  Uiso   1.00
N272   N     0.94580   0.64499   0.06444   0.00000  Uiso   1.00
N273   N     0.22921   0.79973   0.73200   0.00000  Uiso   1.00
N274   N     0.63159   0.47703   0.89872   0.00000  Uiso   1.00
N275   N     0.65488   0.65446   0.05574   0.00000  Uiso   1.00
N276   N     0.93830   0.80920   0.72329   0.00000  Uiso   1.00
