data_job_06419
_audit_creation_date              2018-12-19
_audit_creation_method            'Materials Studio'
_symmetry_space_group_name_H-M    'P1'
_symmetry_Int_Tables_number       1
_symmetry_cell_setting            triclinic
loop_
_symmetry_equiv_pos_as_xyz
  x,y,z
_cell_length_a                    16.0290
_cell_length_b                    16.0277
_cell_length_c                    16.0264
_cell_angle_alpha                 88.3561
_cell_angle_beta                  88.3569
_cell_angle_gamma                 88.3579
loop_
_atom_site_label
_atom_site_type_symbol
_atom_site_fract_x
_atom_site_fract_y
_atom_site_fract_z
_atom_site_U_iso_or_equiv
_atom_site_adp_type
_atom_site_occupancy
C1     C     0.87972   0.34220   0.97715   0.00000  Uiso   1.00
C2     C     0.89172   0.43608   0.98030   0.00000  Uiso   1.00
C3     C     0.93848   0.47598   0.03796   0.00000  Uiso   1.00
C4     C     0.94170   0.56234   0.03030   0.00000  Uiso   1.00
C5     C     0.96671   0.70132   0.04480   0.00000  Uiso   1.00
C6     C     0.78566   0.33014   0.98177   0.00000  Uiso   1.00
C7     C     0.74324   0.28095   0.04067   0.00000  Uiso   1.00
C8     C     0.65717   0.27811   0.03424   0.00000  Uiso   1.00
C9     C     0.51752   0.25255   0.05099   0.00000  Uiso   1.00
C10    C     0.90871   0.31685   0.88980   0.00000  Uiso   1.00
C11    C     0.96974   0.25648   0.87137   0.00000  Uiso   1.00
C12    C     0.98726   0.24245   0.78751   0.00000  Uiso   1.00
C13    C     0.03866   0.19627   0.66147   0.00000  Uiso   1.00
C14    C     0.80230   0.42461   0.86100   0.00000  Uiso   1.00
C15    C     0.84967   0.48085   0.91720   0.00000  Uiso   1.00
C16    C     0.85283   0.56717   0.90945   0.00000  Uiso   1.00
C17    C     0.89958   0.60719   0.96710   0.00000  Uiso   1.00
C18    C     0.74361   0.37490   0.91868   0.00000  Uiso   1.00
C19    C     0.65759   0.37213   0.91216   0.00000  Uiso   1.00
C20    C     0.61505   0.32296   0.97103   0.00000  Uiso   1.00
C21    C     0.86666   0.36162   0.82671   0.00000  Uiso   1.00
C22    C     0.88408   0.34767   0.74286   0.00000  Uiso   1.00
C23    C     0.94513   0.28729   0.72431   0.00000  Uiso   1.00
H24    H     0.91245   0.30734   0.02627   0.00000  Uiso   1.00
H25    H     0.97101   0.44132   0.08678   0.00000  Uiso   1.00
H26    H     0.77580   0.24631   0.08948   0.00000  Uiso   1.00
H27    H     0.00226   0.22185   0.92021   0.00000  Uiso   1.00
H28    H     0.01736   0.60960   0.12607   0.00000  Uiso   1.00
H29    H     0.60575   0.19838   0.13174   0.00000  Uiso   1.00
H30    H     0.08330   0.14681   0.77480   0.00000  Uiso   1.00
H31    H     0.76956   0.45947   0.81188   0.00000  Uiso   1.00
H32    H     0.82028   0.60180   0.86062   0.00000  Uiso   1.00
H33    H     0.62507   0.40678   0.86332   0.00000  Uiso   1.00
H34    H     0.85153   0.38232   0.69405   0.00000  Uiso   1.00
H35    H     0.89502   0.73985   0.94251   0.00000  Uiso   1.00
H36    H     0.48341   0.32863   0.94818   0.00000  Uiso   1.00
H37    H     0.96096   0.27706   0.59124   0.00000  Uiso   1.00
O38    O     0.99211   0.76561   0.07024   0.00000  Uiso   1.00
O39    O     0.45210   0.22609   0.07767   0.00000  Uiso   1.00
O40    O     0.07863   0.15844   0.60938   0.00000  Uiso   1.00
N41    N     0.98162   0.62072   0.07616   0.00000  Uiso   1.00
N42    N     0.59679   0.23627   0.08148   0.00000  Uiso   1.00
N43    N     0.04324   0.18803   0.74777   0.00000  Uiso   1.00
N44    N     0.91579   0.69081   0.97739   0.00000  Uiso   1.00
N45    N     0.53096   0.30635   0.98270   0.00000  Uiso   1.00
N46    N     0.97741   0.25812   0.64900   0.00000  Uiso   1.00
C47    C     0.97712   0.87971   0.34219   0.00000  Uiso   1.00
C48    C     0.98026   0.89172   0.43609   0.00000  Uiso   1.00
C49    C     0.03792   0.93848   0.47599   0.00000  Uiso   1.00
C50    C     0.03026   0.94170   0.56236   0.00000  Uiso   1.00
C51    C     0.04476   0.96670   0.70134   0.00000  Uiso   1.00
C52    C     0.98173   0.78564   0.33013   0.00000  Uiso   1.00
C53    C     0.04062   0.74322   0.28094   0.00000  Uiso   1.00
C54    C     0.03419   0.65715   0.27811   0.00000  Uiso   1.00
C55    C     0.05094   0.51748   0.25255   0.00000  Uiso   1.00
C56    C     0.88978   0.90870   0.31685   0.00000  Uiso   1.00
C57    C     0.87135   0.96973   0.25647   0.00000  Uiso   1.00
C58    C     0.78751   0.98726   0.24243   0.00000  Uiso   1.00
C59    C     0.66149   0.03866   0.19625   0.00000  Uiso   1.00
C60    C     0.86098   0.80228   0.42462   0.00000  Uiso   1.00
C61    C     0.91718   0.84966   0.48086   0.00000  Uiso   1.00
C62    C     0.90943   0.85281   0.56718   0.00000  Uiso   1.00
C63    C     0.96706   0.89957   0.60721   0.00000  Uiso   1.00
C64    C     0.91866   0.74359   0.37490   0.00000  Uiso   1.00
C65    C     0.91213   0.65756   0.37213   0.00000  Uiso   1.00
C66    C     0.97100   0.61502   0.32296   0.00000  Uiso   1.00
C67    C     0.82670   0.86665   0.36162   0.00000  Uiso   1.00
C68    C     0.74286   0.88407   0.34767   0.00000  Uiso   1.00
C69    C     0.72431   0.94513   0.28728   0.00000  Uiso   1.00
H70    H     0.02623   0.91244   0.30734   0.00000  Uiso   1.00
H71    H     0.08673   0.97101   0.44132   0.00000  Uiso   1.00
H72    H     0.08943   0.77578   0.24630   0.00000  Uiso   1.00
H73    H     0.92019   0.00226   0.22184   0.00000  Uiso   1.00
H74    H     0.12601   0.01736   0.60962   0.00000  Uiso   1.00
H75    H     0.13168   0.60573   0.19837   0.00000  Uiso   1.00
H76    H     0.77480   0.08331   0.14678   0.00000  Uiso   1.00
H77    H     0.81187   0.76954   0.45947   0.00000  Uiso   1.00
H78    H     0.86061   0.82026   0.60181   0.00000  Uiso   1.00
H79    H     0.86331   0.62504   0.40678   0.00000  Uiso   1.00
H80    H     0.69407   0.85152   0.38232   0.00000  Uiso   1.00
H81    H     0.94248   0.89501   0.73988   0.00000  Uiso   1.00
H82    H     0.94815   0.48337   0.32863   0.00000  Uiso   1.00
H83    H     0.59127   0.96095   0.27704   0.00000  Uiso   1.00
O84    O     0.07019   0.99210   0.76564   0.00000  Uiso   1.00
O85    O     0.07762   0.45206   0.22609   0.00000  Uiso   1.00
O86    O     0.60941   0.07864   0.15841   0.00000  Uiso   1.00
N87    N     0.07612   0.98162   0.62074   0.00000  Uiso   1.00
N88    N     0.08142   0.59676   0.23626   0.00000  Uiso   1.00
N89    N     0.74777   0.04324   0.18801   0.00000  Uiso   1.00
N90    N     0.97736   0.91578   0.69083   0.00000  Uiso   1.00
N91    N     0.98267   0.53093   0.30635   0.00000  Uiso   1.00
N92    N     0.64902   0.97741   0.25810   0.00000  Uiso   1.00
C93    C     0.34220   0.97714   0.87970   0.00000  Uiso   1.00
C94    C     0.43608   0.98028   0.89171   0.00000  Uiso   1.00
C95    C     0.47598   0.03794   0.93847   0.00000  Uiso   1.00
C96    C     0.56233   0.03028   0.94169   0.00000  Uiso   1.00
C97    C     0.70130   0.04478   0.96670   0.00000  Uiso   1.00
C98    C     0.33014   0.98175   0.78562   0.00000  Uiso   1.00
C99    C     0.28096   0.04065   0.74320   0.00000  Uiso   1.00
C100   C     0.27813   0.03422   0.65712   0.00000  Uiso   1.00
C101   C     0.25257   0.05097   0.51744   0.00000  Uiso   1.00
C102   C     0.31686   0.88979   0.90869   0.00000  Uiso   1.00
C103   C     0.25649   0.87136   0.96973   0.00000  Uiso   1.00
C104   C     0.24246   0.78751   0.98726   0.00000  Uiso   1.00
C105   C     0.19628   0.66148   0.03866   0.00000  Uiso   1.00
C106   C     0.42461   0.86099   0.80227   0.00000  Uiso   1.00
C107   C     0.48084   0.91719   0.84965   0.00000  Uiso   1.00
C108   C     0.56716   0.90944   0.85280   0.00000  Uiso   1.00
C109   C     0.60718   0.96708   0.89956   0.00000  Uiso   1.00
C110   C     0.37490   0.91867   0.74357   0.00000  Uiso   1.00
C111   C     0.37214   0.91215   0.65753   0.00000  Uiso   1.00
C112   C     0.32297   0.97102   0.61499   0.00000  Uiso   1.00
C113   C     0.36162   0.82670   0.86664   0.00000  Uiso   1.00
C114   C     0.34767   0.74286   0.88407   0.00000  Uiso   1.00
C115   C     0.28730   0.72431   0.94512   0.00000  Uiso   1.00
H116   H     0.30735   0.02625   0.91243   0.00000  Uiso   1.00
H117   H     0.44132   0.08676   0.97100   0.00000  Uiso   1.00
H118   H     0.24632   0.08945   0.77576   0.00000  Uiso   1.00
H119   H     0.22187   0.92020   0.00226   0.00000  Uiso   1.00
H120   H     0.60959   0.12604   0.01736   0.00000  Uiso   1.00
H121   H     0.19841   0.13171   0.60569   0.00000  Uiso   1.00
H122   H     0.14682   0.77479   0.08331   0.00000  Uiso   1.00
H123   H     0.45946   0.81188   0.76952   0.00000  Uiso   1.00
H124   H     0.60178   0.86062   0.82025   0.00000  Uiso   1.00
H125   H     0.40678   0.86332   0.62501   0.00000  Uiso   1.00
H126   H     0.38232   0.69406   0.85151   0.00000  Uiso   1.00
H127   H     0.73982   0.94250   0.89500   0.00000  Uiso   1.00
H128   H     0.32864   0.94817   0.48333   0.00000  Uiso   1.00
H129   H     0.27706   0.59125   0.96095   0.00000  Uiso   1.00
O130   O     0.76558   0.07022   0.99210   0.00000  Uiso   1.00
O131   O     0.22611   0.07765   0.45202   0.00000  Uiso   1.00
O132   O     0.15845   0.60939   0.07865   0.00000  Uiso   1.00
N133   N     0.62071   0.07614   0.98161   0.00000  Uiso   1.00
N134   N     0.23629   0.08145   0.59673   0.00000  Uiso   1.00
N135   N     0.18805   0.74777   0.04325   0.00000  Uiso   1.00
N136   N     0.69079   0.97738   0.91577   0.00000  Uiso   1.00
N137   N     0.30636   0.98269   0.53089   0.00000  Uiso   1.00
N138   N     0.25812   0.64901   0.97741   0.00000  Uiso   1.00
C139   C     0.37972   0.47714   0.84219   0.00000  Uiso   1.00
C140   C     0.39172   0.48028   0.93609   0.00000  Uiso   1.00
C141   C     0.43848   0.53794   0.97599   0.00000  Uiso   1.00
C142   C     0.44170   0.53028   0.06236   0.00000  Uiso   1.00
C143   C     0.46671   0.54478   0.20134   0.00000  Uiso   1.00
C144   C     0.28566   0.48175   0.83013   0.00000  Uiso   1.00
C145   C     0.24324   0.54065   0.78094   0.00000  Uiso   1.00
C146   C     0.15718   0.53422   0.77810   0.00000  Uiso   1.00
C147   C     0.01752   0.55097   0.75254   0.00000  Uiso   1.00
C148   C     0.40871   0.38979   0.81685   0.00000  Uiso   1.00
C149   C     0.46974   0.37136   0.75647   0.00000  Uiso   1.00
C150   C     0.48726   0.28751   0.74244   0.00000  Uiso   1.00
C151   C     0.53866   0.16148   0.69625   0.00000  Uiso   1.00
C152   C     0.30230   0.36099   0.92462   0.00000  Uiso   1.00
C153   C     0.34967   0.41719   0.98085   0.00000  Uiso   1.00
C154   C     0.35283   0.40944   0.06718   0.00000  Uiso   1.00
C155   C     0.39958   0.46708   0.10721   0.00000  Uiso   1.00
C156   C     0.24361   0.41867   0.87490   0.00000  Uiso   1.00
C157   C     0.15759   0.41214   0.87213   0.00000  Uiso   1.00
C158   C     0.11505   0.47102   0.82295   0.00000  Uiso   1.00
C159   C     0.36666   0.32670   0.86162   0.00000  Uiso   1.00
C160   C     0.38408   0.24286   0.84767   0.00000  Uiso   1.00
C161   C     0.44513   0.22431   0.78728   0.00000  Uiso   1.00
H162   H     0.41245   0.52625   0.80734   0.00000  Uiso   1.00
H163   H     0.47101   0.58676   0.94132   0.00000  Uiso   1.00
H164   H     0.27580   0.58945   0.74629   0.00000  Uiso   1.00
H165   H     0.50226   0.42020   0.72184   0.00000  Uiso   1.00
H166   H     0.51736   0.62604   0.10962   0.00000  Uiso   1.00
H167   H     0.10576   0.63171   0.69837   0.00000  Uiso   1.00
H168   H     0.58330   0.27480   0.64679   0.00000  Uiso   1.00
H169   H     0.26956   0.31187   0.95947   0.00000  Uiso   1.00
H170   H     0.32028   0.36061   0.10181   0.00000  Uiso   1.00
H171   H     0.12507   0.36331   0.90678   0.00000  Uiso   1.00
H172   H     0.35153   0.19406   0.88232   0.00000  Uiso   1.00
H173   H     0.39502   0.44249   0.23988   0.00000  Uiso   1.00
H174   H     0.98341   0.44816   0.82862   0.00000  Uiso   1.00
H175   H     0.46095   0.09126   0.77705   0.00000  Uiso   1.00
O176   O     0.49211   0.57021   0.26564   0.00000  Uiso   1.00
O177   O     0.95211   0.57764   0.72608   0.00000  Uiso   1.00
O178   O     0.57863   0.10939   0.65841   0.00000  Uiso   1.00
N179   N     0.48162   0.57614   0.12074   0.00000  Uiso   1.00
N180   N     0.09679   0.58145   0.73625   0.00000  Uiso   1.00
N181   N     0.54324   0.24777   0.68801   0.00000  Uiso   1.00
N182   N     0.41579   0.47738   0.19083   0.00000  Uiso   1.00
N183   N     0.03096   0.48269   0.80635   0.00000  Uiso   1.00
N184   N     0.47741   0.14901   0.75811   0.00000  Uiso   1.00
C185   C     0.47712   0.84220   0.37970   0.00000  Uiso   1.00
C186   C     0.48026   0.93609   0.39171   0.00000  Uiso   1.00
C187   C     0.53792   0.97599   0.43847   0.00000  Uiso   1.00
C188   C     0.53026   0.06235   0.44169   0.00000  Uiso   1.00
C189   C     0.54476   0.20132   0.46670   0.00000  Uiso   1.00
C190   C     0.48173   0.83014   0.28562   0.00000  Uiso   1.00
C191   C     0.54062   0.78095   0.24320   0.00000  Uiso   1.00
C192   C     0.53419   0.77812   0.15712   0.00000  Uiso   1.00
C193   C     0.55094   0.75256   0.01744   0.00000  Uiso   1.00
C194   C     0.38978   0.81685   0.40869   0.00000  Uiso   1.00
C195   C     0.37135   0.75648   0.46973   0.00000  Uiso   1.00
C196   C     0.28751   0.74245   0.48726   0.00000  Uiso   1.00
C197   C     0.16149   0.69626   0.53866   0.00000  Uiso   1.00
C198   C     0.36098   0.92462   0.30227   0.00000  Uiso   1.00
C199   C     0.41718   0.98085   0.34965   0.00000  Uiso   1.00
C200   C     0.40943   0.06717   0.35280   0.00000  Uiso   1.00
C201   C     0.46707   0.10719   0.39956   0.00000  Uiso   1.00
C202   C     0.41866   0.87490   0.24357   0.00000  Uiso   1.00
C203   C     0.41213   0.87214   0.15753   0.00000  Uiso   1.00
C204   C     0.47100   0.82297   0.11499   0.00000  Uiso   1.00
C205   C     0.32670   0.86162   0.36664   0.00000  Uiso   1.00
C206   C     0.24286   0.84767   0.38407   0.00000  Uiso   1.00
C207   C     0.22431   0.78729   0.44512   0.00000  Uiso   1.00
H208   H     0.52623   0.80735   0.41244   0.00000  Uiso   1.00
H209   H     0.58673   0.94132   0.47100   0.00000  Uiso   1.00
H210   H     0.58943   0.74631   0.27576   0.00000  Uiso   1.00
H211   H     0.42018   0.72185   0.50226   0.00000  Uiso   1.00
H212   H     0.62601   0.10960   0.51736   0.00000  Uiso   1.00
H213   H     0.63168   0.69839   0.10569   0.00000  Uiso   1.00
H214   H     0.27479   0.64680   0.58331   0.00000  Uiso   1.00
H215   H     0.31187   0.95947   0.26952   0.00000  Uiso   1.00
H216   H     0.36061   0.10180   0.32025   0.00000  Uiso   1.00
H217   H     0.36331   0.90678   0.12501   0.00000  Uiso   1.00
H218   H     0.19406   0.88232   0.35151   0.00000  Uiso   1.00
H219   H     0.44248   0.23985   0.39500   0.00000  Uiso   1.00
H220   H     0.44815   0.82863   0.98333   0.00000  Uiso   1.00
H221   H     0.09127   0.77705   0.46095   0.00000  Uiso   1.00
O222   O     0.57019   0.26561   0.49210   0.00000  Uiso   1.00
O223   O     0.57762   0.72610   0.95202   0.00000  Uiso   1.00
O224   O     0.10940   0.65843   0.57865   0.00000  Uiso   1.00
N225   N     0.57612   0.12072   0.48161   0.00000  Uiso   1.00
N226   N     0.58142   0.73628   0.09673   0.00000  Uiso   1.00
N227   N     0.24777   0.68803   0.54325   0.00000  Uiso   1.00
N228   N     0.47736   0.19081   0.41577   0.00000  Uiso   1.00
N229   N     0.48267   0.80636   0.03089   0.00000  Uiso   1.00
N230   N     0.14902   0.75811   0.47741   0.00000  Uiso   1.00
C231   C     0.84220   0.37971   0.47715   0.00000  Uiso   1.00
C232   C     0.93608   0.39171   0.48030   0.00000  Uiso   1.00
C233   C     0.97598   0.43847   0.53796   0.00000  Uiso   1.00
C234   C     0.06233   0.44170   0.53030   0.00000  Uiso   1.00
C235   C     0.20130   0.46670   0.54480   0.00000  Uiso   1.00
C236   C     0.83014   0.28564   0.48177   0.00000  Uiso   1.00
C237   C     0.78096   0.24322   0.54067   0.00000  Uiso   1.00
C238   C     0.77812   0.15715   0.53424   0.00000  Uiso   1.00
C239   C     0.75257   0.01748   0.55099   0.00000  Uiso   1.00
C240   C     0.81686   0.40870   0.38980   0.00000  Uiso   1.00
C241   C     0.75649   0.46973   0.37137   0.00000  Uiso   1.00
C242   C     0.74246   0.48726   0.28751   0.00000  Uiso   1.00
C243   C     0.69628   0.53866   0.16147   0.00000  Uiso   1.00
C244   C     0.92461   0.30228   0.36100   0.00000  Uiso   1.00
C245   C     0.98084   0.34966   0.41721   0.00000  Uiso   1.00
C246   C     0.06716   0.35281   0.40945   0.00000  Uiso   1.00
C247   C     0.10718   0.39957   0.46710   0.00000  Uiso   1.00
C248   C     0.87490   0.24359   0.41868   0.00000  Uiso   1.00
C249   C     0.87213   0.15756   0.41216   0.00000  Uiso   1.00
C250   C     0.82296   0.11501   0.47104   0.00000  Uiso   1.00
C251   C     0.86162   0.36665   0.32671   0.00000  Uiso   1.00
C252   C     0.84767   0.38408   0.24286   0.00000  Uiso   1.00
C253   C     0.78730   0.44513   0.22431   0.00000  Uiso   1.00
H254   H     0.80735   0.41244   0.52627   0.00000  Uiso   1.00
H255   H     0.94132   0.47100   0.58678   0.00000  Uiso   1.00
H256   H     0.74632   0.27578   0.58948   0.00000  Uiso   1.00
H257   H     0.72187   0.50226   0.42021   0.00000  Uiso   1.00
H258   H     0.10959   0.51736   0.62607   0.00000  Uiso   1.00
H259   H     0.69840   0.10572   0.63174   0.00000  Uiso   1.00
H260   H     0.64683   0.58330   0.27480   0.00000  Uiso   1.00
H261   H     0.95946   0.26954   0.31188   0.00000  Uiso   1.00
H262   H     0.10178   0.32026   0.36062   0.00000  Uiso   1.00
H263   H     0.90678   0.12504   0.36333   0.00000  Uiso   1.00
H264   H     0.88232   0.35152   0.19406   0.00000  Uiso   1.00
H265   H     0.23982   0.39501   0.44251   0.00000  Uiso   1.00
H266   H     0.82863   0.98337   0.44818   0.00000  Uiso   1.00
H267   H     0.77706   0.46096   0.09124   0.00000  Uiso   1.00
O268   O     0.26558   0.49210   0.57024   0.00000  Uiso   1.00
O269   O     0.72611   0.95206   0.57767   0.00000  Uiso   1.00
O270   O     0.65845   0.57864   0.10938   0.00000  Uiso   1.00
N271   N     0.12070   0.48162   0.57617   0.00000  Uiso   1.00
N272   N     0.73628   0.09676   0.58148   0.00000  Uiso   1.00
N273   N     0.68805   0.54324   0.24777   0.00000  Uiso   1.00
N274   N     0.19078   0.41578   0.47739   0.00000  Uiso   1.00
N275   N     0.80636   0.03092   0.48271   0.00000  Uiso   1.00
N276   N     0.75813   0.47741   0.14900   0.00000  Uiso   1.00
