data_job_01517
_audit_creation_date              2018-12-19
_audit_creation_method            'Materials Studio'
_symmetry_space_group_name_H-M    'P1'
_symmetry_Int_Tables_number       1
_symmetry_cell_setting            triclinic
loop_
_symmetry_equiv_pos_as_xyz
  x,y,z
_cell_length_a                    21.3204
_cell_length_b                    24.8500
_cell_length_c                    13.8192
_cell_angle_alpha                 90.0000
_cell_angle_beta                  146.3206
_cell_angle_gamma                 90.0000
loop_
_atom_site_label
_atom_site_type_symbol
_atom_site_fract_x
_atom_site_fract_y
_atom_site_fract_z
_atom_site_U_iso_or_equiv
_atom_site_adp_type
_atom_site_occupancy
C1     C     0.32360   0.88293   0.51394   0.00000  Uiso   1.00
C2     C     0.42882   0.85805   0.60349   0.00000  Uiso   1.00
C3     C     0.52154   0.83807   0.77254   0.00000  Uiso   1.00
C4     C     0.60931   0.81695   0.83034   0.00000  Uiso   1.00
C5     C     0.77340   0.77846   0.98571   0.00000  Uiso   1.00
C6     C     0.22356   0.85047   0.34750   0.00000  Uiso   1.00
C7     C     0.14371   0.82412   0.30132   0.00000  Uiso   1.00
C8     C     0.05869   0.79662   0.14361   0.00000  Uiso   1.00
C9     C     0.90407   0.74639   0.90151   0.00000  Uiso   1.00
C10    C     0.31224   0.93890   0.45515   0.00000  Uiso   1.00
C11    C     0.30692   0.98690   0.49944   0.00000  Uiso   1.00
C12    C     0.29653   0.03384   0.43234   0.00000  Uiso   1.00
C13    C     0.27960   0.12091   0.35739   0.00000  Uiso   1.00
C14    C     0.31458   0.88094   0.31597   0.00000  Uiso   1.00
C15    C     0.42391   0.85697   0.49595   0.00000  Uiso   1.00
C16    C     0.51156   0.83587   0.55351   0.00000  Uiso   1.00
C17    C     0.60440   0.81586   0.72262   0.00000  Uiso   1.00
C18    C     0.21866   0.84939   0.23997   0.00000  Uiso   1.00
C19    C     0.13373   0.82192   0.08229   0.00000  Uiso   1.00
C20    C     0.05377   0.79553   0.03589   0.00000  Uiso   1.00
C21    C     0.30734   0.93781   0.34763   0.00000  Uiso   1.00
C22    C     0.29695   0.98469   0.28043   0.00000  Uiso   1.00
C23    C     0.29162   0.03276   0.32462   0.00000  Uiso   1.00
H24    H     0.32741   0.88377   0.59764   0.00000  Uiso   1.00
H25    H     0.52530   0.83892   0.85571   0.00000  Uiso   1.00
H26    H     0.14752   0.82497   0.38455   0.00000  Uiso   1.00
H27    H     0.31072   0.98772   0.58266   0.00000  Uiso   1.00
H28    H     0.74252   0.78869   0.09437   0.00000  Uiso   1.00
H29    H     0.94592   0.75930   0.10089   0.00000  Uiso   1.00
H30    H     0.29005   0.10249   0.51863   0.00000  Uiso   1.00
H31    H     0.31076   0.88009   0.23225   0.00000  Uiso   1.00
H32    H     0.50774   0.83503   0.47027   0.00000  Uiso   1.00
H33    H     0.12996   0.82109   0.99911   0.00000  Uiso   1.00
H34    H     0.29316   0.98384   0.19722   0.00000  Uiso   1.00
H35    H     0.72826   0.78553   0.78154   0.00000  Uiso   1.00
H36    H     0.93166   0.75615   0.78805   0.00000  Uiso   1.00
H37    H     0.27580   0.09934   0.20580   0.00000  Uiso   1.00
O38    O     0.86525   0.75752   0.10111   0.00000  Uiso   1.00
O39    O     0.82014   0.71898   0.79768   0.00000  Uiso   1.00
O40    O     0.27164   0.16923   0.34576   0.00000  Uiso   1.00
N41    N     0.71214   0.79414   0.98810   0.00000  Uiso   1.00
N42    N     0.96738   0.76666   0.05926   0.00000  Uiso   1.00
N43    N     0.28908   0.08751   0.44978   0.00000  Uiso   1.00
N44    N     0.70447   0.79244   0.81976   0.00000  Uiso   1.00
N45    N     0.95971   0.76496   0.89093   0.00000  Uiso   1.00
N46    N     0.28141   0.08582   0.28145   0.00000  Uiso   1.00
C47    C     0.67640   0.38293   0.98606   0.00000  Uiso   1.00
C48    C     0.57118   0.35805   0.89651   0.00000  Uiso   1.00
C49    C     0.47846   0.33807   0.72746   0.00000  Uiso   1.00
C50    C     0.39069   0.31695   0.66966   0.00000  Uiso   1.00
C51    C     0.22660   0.27846   0.51429   0.00000  Uiso   1.00
C52    C     0.77644   0.35047   0.15250   0.00000  Uiso   1.00
C53    C     0.85629   0.32412   0.19868   0.00000  Uiso   1.00
C54    C     0.94131   0.29662   0.35639   0.00000  Uiso   1.00
C55    C     0.09593   0.24639   0.59849   0.00000  Uiso   1.00
C56    C     0.68776   0.43890   0.04485   0.00000  Uiso   1.00
C57    C     0.69308   0.48690   0.00056   0.00000  Uiso   1.00
C58    C     0.70347   0.53384   0.06766   0.00000  Uiso   1.00
C59    C     0.72040   0.62091   0.14261   0.00000  Uiso   1.00
C60    C     0.68542   0.38094   0.18403   0.00000  Uiso   1.00
C61    C     0.57609   0.35697   0.00405   0.00000  Uiso   1.00
C62    C     0.48844   0.33587   0.94649   0.00000  Uiso   1.00
C63    C     0.39560   0.31586   0.77738   0.00000  Uiso   1.00
C64    C     0.78134   0.34939   0.26003   0.00000  Uiso   1.00
C65    C     0.86627   0.32192   0.41771   0.00000  Uiso   1.00
C66    C     0.94623   0.29553   0.46411   0.00000  Uiso   1.00
C67    C     0.69266   0.43781   0.15237   0.00000  Uiso   1.00
C68    C     0.70305   0.48469   0.21957   0.00000  Uiso   1.00
C69    C     0.70838   0.53276   0.17538   0.00000  Uiso   1.00
H70    H     0.67259   0.38377   0.90236   0.00000  Uiso   1.00
H71    H     0.47470   0.33892   0.64429   0.00000  Uiso   1.00
H72    H     0.85248   0.32497   0.11545   0.00000  Uiso   1.00
H73    H     0.68928   0.48772   0.91734   0.00000  Uiso   1.00
H74    H     0.25748   0.28869   0.40563   0.00000  Uiso   1.00
H75    H     0.05408   0.25930   0.39911   0.00000  Uiso   1.00
H76    H     0.70995   0.60249   0.98137   0.00000  Uiso   1.00
H77    H     0.68924   0.38009   0.26775   0.00000  Uiso   1.00
H78    H     0.49226   0.33503   0.02973   0.00000  Uiso   1.00
H79    H     0.87004   0.32109   0.50089   0.00000  Uiso   1.00
H80    H     0.70684   0.48384   0.30278   0.00000  Uiso   1.00
H81    H     0.27174   0.28553   0.71846   0.00000  Uiso   1.00
H82    H     0.06834   0.25615   0.71195   0.00000  Uiso   1.00
H83    H     0.72420   0.59934   0.29420   0.00000  Uiso   1.00
O84    O     0.13475   0.25752   0.39889   0.00000  Uiso   1.00
O85    O     0.17986   0.21898   0.70232   0.00000  Uiso   1.00
O86    O     0.72836   0.66923   0.15424   0.00000  Uiso   1.00
N87    N     0.28786   0.29414   0.51190   0.00000  Uiso   1.00
N88    N     0.03262   0.26666   0.44074   0.00000  Uiso   1.00
N89    N     0.71092   0.58751   0.05022   0.00000  Uiso   1.00
N90    N     0.29553   0.29244   0.68024   0.00000  Uiso   1.00
N91    N     0.04029   0.26496   0.60907   0.00000  Uiso   1.00
N92    N     0.71859   0.58582   0.21855   0.00000  Uiso   1.00
C93    C     0.67640   0.11707   0.48606   0.00000  Uiso   1.00
C94    C     0.57118   0.14195   0.39651   0.00000  Uiso   1.00
C95    C     0.47846   0.16193   0.22746   0.00000  Uiso   1.00
C96    C     0.39069   0.18305   0.16966   0.00000  Uiso   1.00
C97    C     0.22660   0.22154   0.01429   0.00000  Uiso   1.00
C98    C     0.77644   0.14953   0.65250   0.00000  Uiso   1.00
C99    C     0.85629   0.17588   0.69868   0.00000  Uiso   1.00
C100   C     0.94131   0.20338   0.85639   0.00000  Uiso   1.00
C101   C     0.09593   0.25361   0.09849   0.00000  Uiso   1.00
C102   C     0.68776   0.06110   0.54485   0.00000  Uiso   1.00
C103   C     0.69308   0.01310   0.50056   0.00000  Uiso   1.00
C104   C     0.70347   0.96616   0.56766   0.00000  Uiso   1.00
C105   C     0.72040   0.87909   0.64261   0.00000  Uiso   1.00
C106   C     0.68542   0.11906   0.68403   0.00000  Uiso   1.00
C107   C     0.57609   0.14303   0.50405   0.00000  Uiso   1.00
C108   C     0.48844   0.16413   0.44649   0.00000  Uiso   1.00
C109   C     0.39560   0.18414   0.27738   0.00000  Uiso   1.00
C110   C     0.78134   0.15061   0.76003   0.00000  Uiso   1.00
C111   C     0.86627   0.17808   0.91771   0.00000  Uiso   1.00
C112   C     0.94623   0.20447   0.96411   0.00000  Uiso   1.00
C113   C     0.69266   0.06219   0.65237   0.00000  Uiso   1.00
C114   C     0.70305   0.01531   0.71957   0.00000  Uiso   1.00
C115   C     0.70838   0.96724   0.67538   0.00000  Uiso   1.00
H116   H     0.67259   0.11623   0.40236   0.00000  Uiso   1.00
H117   H     0.47470   0.16108   0.14429   0.00000  Uiso   1.00
H118   H     0.85248   0.17503   0.61545   0.00000  Uiso   1.00
H119   H     0.68928   0.01228   0.41734   0.00000  Uiso   1.00
H120   H     0.25748   0.21131   0.90563   0.00000  Uiso   1.00
H121   H     0.05408   0.24070   0.89911   0.00000  Uiso   1.00
H122   H     0.70995   0.89751   0.48137   0.00000  Uiso   1.00
H123   H     0.68924   0.11991   0.76775   0.00000  Uiso   1.00
H124   H     0.49226   0.16497   0.52973   0.00000  Uiso   1.00
H125   H     0.87004   0.17891   0.00089   0.00000  Uiso   1.00
H126   H     0.70684   0.01616   0.80278   0.00000  Uiso   1.00
H127   H     0.27174   0.21447   0.21846   0.00000  Uiso   1.00
H128   H     0.06834   0.24385   0.21195   0.00000  Uiso   1.00
H129   H     0.72420   0.90066   0.79420   0.00000  Uiso   1.00
O130   O     0.13475   0.24248   0.89889   0.00000  Uiso   1.00
O131   O     0.17986   0.28102   0.20232   0.00000  Uiso   1.00
O132   O     0.72836   0.83077   0.65424   0.00000  Uiso   1.00
N133   N     0.28786   0.20586   0.01190   0.00000  Uiso   1.00
N134   N     0.03262   0.23334   0.94074   0.00000  Uiso   1.00
N135   N     0.71092   0.91249   0.55022   0.00000  Uiso   1.00
N136   N     0.29553   0.20756   0.18024   0.00000  Uiso   1.00
N137   N     0.04029   0.23504   0.10907   0.00000  Uiso   1.00
N138   N     0.71859   0.91418   0.71855   0.00000  Uiso   1.00
C139   C     0.32360   0.61707   0.01394   0.00000  Uiso   1.00
C140   C     0.42882   0.64195   0.10349   0.00000  Uiso   1.00
C141   C     0.52154   0.66193   0.27254   0.00000  Uiso   1.00
C142   C     0.60931   0.68305   0.33034   0.00000  Uiso   1.00
C143   C     0.77340   0.72154   0.48571   0.00000  Uiso   1.00
C144   C     0.22356   0.64953   0.84750   0.00000  Uiso   1.00
C145   C     0.14371   0.67588   0.80132   0.00000  Uiso   1.00
C146   C     0.05869   0.70338   0.64361   0.00000  Uiso   1.00
C147   C     0.90407   0.75361   0.40151   0.00000  Uiso   1.00
C148   C     0.31224   0.56110   0.95515   0.00000  Uiso   1.00
C149   C     0.30692   0.51310   0.99944   0.00000  Uiso   1.00
C150   C     0.29653   0.46616   0.93234   0.00000  Uiso   1.00
C151   C     0.27960   0.37909   0.85739   0.00000  Uiso   1.00
C152   C     0.31458   0.61906   0.81597   0.00000  Uiso   1.00
C153   C     0.42391   0.64303   0.99595   0.00000  Uiso   1.00
C154   C     0.51156   0.66413   0.05351   0.00000  Uiso   1.00
C155   C     0.60440   0.68414   0.22262   0.00000  Uiso   1.00
C156   C     0.21866   0.65061   0.73997   0.00000  Uiso   1.00
C157   C     0.13373   0.67808   0.58229   0.00000  Uiso   1.00
C158   C     0.05377   0.70447   0.53589   0.00000  Uiso   1.00
C159   C     0.30734   0.56219   0.84763   0.00000  Uiso   1.00
C160   C     0.29695   0.51531   0.78043   0.00000  Uiso   1.00
C161   C     0.29162   0.46724   0.82462   0.00000  Uiso   1.00
H162   H     0.32741   0.61623   0.09764   0.00000  Uiso   1.00
H163   H     0.52530   0.66108   0.35571   0.00000  Uiso   1.00
H164   H     0.14752   0.67503   0.88455   0.00000  Uiso   1.00
H165   H     0.31072   0.51228   0.08266   0.00000  Uiso   1.00
H166   H     0.74252   0.71131   0.59437   0.00000  Uiso   1.00
H167   H     0.94592   0.74070   0.60089   0.00000  Uiso   1.00
H168   H     0.29005   0.39751   0.01863   0.00000  Uiso   1.00
H169   H     0.31076   0.61991   0.73225   0.00000  Uiso   1.00
H170   H     0.50774   0.66497   0.97027   0.00000  Uiso   1.00
H171   H     0.12996   0.67891   0.49911   0.00000  Uiso   1.00
H172   H     0.29316   0.51616   0.69722   0.00000  Uiso   1.00
H173   H     0.72826   0.71447   0.28154   0.00000  Uiso   1.00
H174   H     0.93166   0.74385   0.28805   0.00000  Uiso   1.00
H175   H     0.27580   0.40066   0.70580   0.00000  Uiso   1.00
O176   O     0.86525   0.74248   0.60111   0.00000  Uiso   1.00
O177   O     0.82014   0.78102   0.29768   0.00000  Uiso   1.00
O178   O     0.27164   0.33077   0.84576   0.00000  Uiso   1.00
N179   N     0.71214   0.70586   0.48810   0.00000  Uiso   1.00
N180   N     0.96738   0.73334   0.55926   0.00000  Uiso   1.00
N181   N     0.28908   0.41249   0.94978   0.00000  Uiso   1.00
N182   N     0.70447   0.70756   0.31976   0.00000  Uiso   1.00
N183   N     0.95971   0.73504   0.39093   0.00000  Uiso   1.00
N184   N     0.28141   0.41418   0.78145   0.00000  Uiso   1.00
