data_job_05124
_audit_creation_date              2018-12-19
_audit_creation_method            'Materials Studio'
_symmetry_space_group_name_H-M    'P1'
_symmetry_Int_Tables_number       1
_symmetry_cell_setting            triclinic
loop_
_symmetry_equiv_pos_as_xyz
  x,y,z
_cell_length_a                    10.6957
_cell_length_b                    10.6957
_cell_length_c                    41.1439
_cell_angle_alpha                 90.0000
_cell_angle_beta                  90.0000
_cell_angle_gamma                 90.0000
loop_
_atom_site_label
_atom_site_type_symbol
_atom_site_fract_x
_atom_site_fract_y
_atom_site_fract_z
_atom_site_U_iso_or_equiv
_atom_site_adp_type
_atom_site_occupancy
C1     C     0.88456   0.40051   0.01304   0.00000  Uiso   1.00
C2     C     0.79232   0.42441   0.04061   0.00000  Uiso   1.00
C3     C     0.75893   0.54081   0.05273   0.00000  Uiso   1.00
C4     C     0.67301   0.54287   0.07802   0.00000  Uiso   1.00
C5     C     0.53754   0.59677   0.11891   0.00000  Uiso   1.00
C6     C     0.98392   0.31317   0.02686   0.00000  Uiso   1.00
C7     C     0.11163   0.33604   0.02741   0.00000  Uiso   1.00
C8     C     0.18701   0.24446   0.04112   0.00000  Uiso   1.00
C9     C     0.34901   0.12562   0.06064   0.00000  Uiso   1.00
C10    C     0.81356   0.32462   0.98767   0.00000  Uiso   1.00
C11    C     0.79806   0.35709   0.95526   0.00000  Uiso   1.00
C12    C     0.73003   0.27512   0.93597   0.00000  Uiso   1.00
C13    C     0.62753   0.17406   0.89464   0.00000  Uiso   1.00
C14    C     0.79135   0.19719   0.03641   0.00000  Uiso   1.00
C15    C     0.74169   0.31397   0.05330   0.00000  Uiso   1.00
C16    C     0.65580   0.31586   0.07858   0.00000  Uiso   1.00
C17    C     0.62229   0.43224   0.09073   0.00000  Uiso   1.00
C18    C     0.93330   0.20274   0.03955   0.00000  Uiso   1.00
C19    C     0.00850   0.11109   0.05326   0.00000  Uiso   1.00
C20    C     0.13629   0.13382   0.05383   0.00000  Uiso   1.00
C21    C     0.76293   0.21418   0.00036   0.00000  Uiso   1.00
C22    C     0.69493   0.13214   0.98112   0.00000  Uiso   1.00
C23    C     0.67932   0.16448   0.94869   0.00000  Uiso   1.00
H24    H     0.92398   0.48649   0.00316   0.00000  Uiso   1.00
H25    H     0.79814   0.62625   0.04290   0.00000  Uiso   1.00
H26    H     0.15078   0.42151   0.01758   0.00000  Uiso   1.00
H27    H     0.83725   0.44256   0.94544   0.00000  Uiso   1.00
H28    H     0.63632   0.73250   0.09256   0.00000  Uiso   1.00
H29    H     0.37991   0.30078   0.03917   0.00000  Uiso   1.00
H30    H     0.71877   0.34516   0.88706   0.00000  Uiso   1.00
H31    H     0.75193   0.11120   0.04629   0.00000  Uiso   1.00
H32    H     0.61664   0.23038   0.08840   0.00000  Uiso   1.00
H33    H     0.96929   0.02564   0.06308   0.00000  Uiso   1.00
H34    H     0.65576   0.04669   0.99095   0.00000  Uiso   1.00
H35    H     0.48902   0.41119   0.12949   0.00000  Uiso   1.00
H36    H     0.23261   0.97947   0.07610   0.00000  Uiso   1.00
H37    H     0.57147   0.02385   0.92399   0.00000  Uiso   1.00
O38    O     0.47681   0.65701   0.13796   0.00000  Uiso   1.00
O39    O     0.45236   0.09060   0.06790   0.00000  Uiso   1.00
O40    O     0.58496   0.14883   0.86833   0.00000  Uiso   1.00
N41    N     0.62020   0.64053   0.09547   0.00000  Uiso   1.00
N42    N     0.31541   0.23690   0.04555   0.00000  Uiso   1.00
N43    N     0.69733   0.27838   0.90334   0.00000  Uiso   1.00
N44    N     0.54094   0.46764   0.11534   0.00000  Uiso   1.00
N45    N     0.23614   0.06401   0.06543   0.00000  Uiso   1.00
N46    N     0.61807   0.10548   0.92321   0.00000  Uiso   1.00
C47    C     0.11544   0.59949   0.51304   0.00000  Uiso   1.00
C48    C     0.20768   0.57559   0.54061   0.00000  Uiso   1.00
C49    C     0.24107   0.45919   0.55273   0.00000  Uiso   1.00
C50    C     0.32699   0.45713   0.57802   0.00000  Uiso   1.00
C51    C     0.46246   0.40323   0.61891   0.00000  Uiso   1.00
C52    C     0.01608   0.68683   0.52686   0.00000  Uiso   1.00
C53    C     0.88837   0.66396   0.52741   0.00000  Uiso   1.00
C54    C     0.81299   0.75554   0.54112   0.00000  Uiso   1.00
C55    C     0.65099   0.87438   0.56064   0.00000  Uiso   1.00
C56    C     0.18644   0.67538   0.48767   0.00000  Uiso   1.00
C57    C     0.20194   0.64291   0.45526   0.00000  Uiso   1.00
C58    C     0.26997   0.72488   0.43597   0.00000  Uiso   1.00
C59    C     0.37247   0.82594   0.39464   0.00000  Uiso   1.00
C60    C     0.20865   0.80281   0.53641   0.00000  Uiso   1.00
C61    C     0.25831   0.68603   0.55330   0.00000  Uiso   1.00
C62    C     0.34420   0.68414   0.57858   0.00000  Uiso   1.00
C63    C     0.37771   0.56776   0.59073   0.00000  Uiso   1.00
C64    C     0.06670   0.79726   0.53955   0.00000  Uiso   1.00
C65    C     0.99150   0.88891   0.55326   0.00000  Uiso   1.00
C66    C     0.86371   0.86618   0.55383   0.00000  Uiso   1.00
C67    C     0.23707   0.78582   0.50036   0.00000  Uiso   1.00
C68    C     0.30507   0.86786   0.48112   0.00000  Uiso   1.00
C69    C     0.32068   0.83552   0.44869   0.00000  Uiso   1.00
H70    H     0.07602   0.51351   0.50316   0.00000  Uiso   1.00
H71    H     0.20186   0.37375   0.54290   0.00000  Uiso   1.00
H72    H     0.84922   0.57849   0.51758   0.00000  Uiso   1.00
H73    H     0.16275   0.55744   0.44544   0.00000  Uiso   1.00
H74    H     0.36368   0.26750   0.59256   0.00000  Uiso   1.00
H75    H     0.62009   0.69922   0.53917   0.00000  Uiso   1.00
H76    H     0.28123   0.65484   0.38706   0.00000  Uiso   1.00
H77    H     0.24807   0.88880   0.54629   0.00000  Uiso   1.00
H78    H     0.38336   0.76962   0.58840   0.00000  Uiso   1.00
H79    H     0.03071   0.97436   0.56308   0.00000  Uiso   1.00
H80    H     0.34424   0.95331   0.49095   0.00000  Uiso   1.00
H81    H     0.51098   0.58881   0.62949   0.00000  Uiso   1.00
H82    H     0.76739   0.02053   0.57610   0.00000  Uiso   1.00
H83    H     0.42853   0.97615   0.42399   0.00000  Uiso   1.00
O84    O     0.52319   0.34299   0.63796   0.00000  Uiso   1.00
O85    O     0.54764   0.90940   0.56790   0.00000  Uiso   1.00
O86    O     0.41504   0.85117   0.36833   0.00000  Uiso   1.00
N87    N     0.37980   0.35947   0.59547   0.00000  Uiso   1.00
N88    N     0.68459   0.76310   0.54555   0.00000  Uiso   1.00
N89    N     0.30267   0.72162   0.40334   0.00000  Uiso   1.00
N90    N     0.45906   0.53236   0.61534   0.00000  Uiso   1.00
N91    N     0.76386   0.93599   0.56543   0.00000  Uiso   1.00
N92    N     0.38193   0.89452   0.42321   0.00000  Uiso   1.00
C93    C     0.09949   0.38456   0.76304   0.00000  Uiso   1.00
C94    C     0.07559   0.29232   0.79061   0.00000  Uiso   1.00
C95    C     0.95919   0.25893   0.80273   0.00000  Uiso   1.00
C96    C     0.95713   0.17301   0.82802   0.00000  Uiso   1.00
C97    C     0.90323   0.03754   0.86891   0.00000  Uiso   1.00
C98    C     0.18683   0.48392   0.77686   0.00000  Uiso   1.00
C99    C     0.16396   0.61163   0.77741   0.00000  Uiso   1.00
C100   C     0.25554   0.68701   0.79112   0.00000  Uiso   1.00
C101   C     0.37438   0.84901   0.81064   0.00000  Uiso   1.00
C102   C     0.17538   0.31356   0.73767   0.00000  Uiso   1.00
C103   C     0.14291   0.29806   0.70526   0.00000  Uiso   1.00
C104   C     0.22488   0.23003   0.68597   0.00000  Uiso   1.00
C105   C     0.32594   0.12753   0.64464   0.00000  Uiso   1.00
C106   C     0.30281   0.29135   0.78641   0.00000  Uiso   1.00
C107   C     0.18603   0.24169   0.80330   0.00000  Uiso   1.00
C108   C     0.18414   0.15580   0.82858   0.00000  Uiso   1.00
C109   C     0.06776   0.12229   0.84073   0.00000  Uiso   1.00
C110   C     0.29726   0.43330   0.78955   0.00000  Uiso   1.00
C111   C     0.38891   0.50850   0.80326   0.00000  Uiso   1.00
C112   C     0.36618   0.63629   0.80383   0.00000  Uiso   1.00
C113   C     0.28582   0.26293   0.75036   0.00000  Uiso   1.00
C114   C     0.36786   0.19493   0.73112   0.00000  Uiso   1.00
C115   C     0.33552   0.17932   0.69869   0.00000  Uiso   1.00
H116   H     0.01351   0.42398   0.75316   0.00000  Uiso   1.00
H117   H     0.87375   0.29814   0.79290   0.00000  Uiso   1.00
H118   H     0.07849   0.65078   0.76758   0.00000  Uiso   1.00
H119   H     0.05744   0.33725   0.69544   0.00000  Uiso   1.00
H120   H     0.76750   0.13632   0.84256   0.00000  Uiso   1.00
H121   H     0.19922   0.87991   0.78917   0.00000  Uiso   1.00
H122   H     0.15484   0.21877   0.63706   0.00000  Uiso   1.00
H123   H     0.38880   0.25193   0.79629   0.00000  Uiso   1.00
H124   H     0.26962   0.11664   0.83840   0.00000  Uiso   1.00
H125   H     0.47436   0.46929   0.81308   0.00000  Uiso   1.00
H126   H     0.45331   0.15576   0.74095   0.00000  Uiso   1.00
H127   H     0.08881   0.98902   0.87949   0.00000  Uiso   1.00
H128   H     0.52053   0.73261   0.82610   0.00000  Uiso   1.00
H129   H     0.47615   0.07147   0.67399   0.00000  Uiso   1.00
O130   O     0.84299   0.97681   0.88796   0.00000  Uiso   1.00
O131   O     0.40940   0.95236   0.81790   0.00000  Uiso   1.00
O132   O     0.35117   0.08496   0.61833   0.00000  Uiso   1.00
N133   N     0.85947   0.12020   0.84547   0.00000  Uiso   1.00
N134   N     0.26310   0.81541   0.79555   0.00000  Uiso   1.00
N135   N     0.22162   0.19733   0.65334   0.00000  Uiso   1.00
N136   N     0.03236   0.04094   0.86534   0.00000  Uiso   1.00
N137   N     0.43599   0.73614   0.81543   0.00000  Uiso   1.00
N138   N     0.39452   0.11807   0.67321   0.00000  Uiso   1.00
C139   C     0.90051   0.61544   0.26304   0.00000  Uiso   1.00
C140   C     0.92441   0.70768   0.29061   0.00000  Uiso   1.00
C141   C     0.04081   0.74107   0.30273   0.00000  Uiso   1.00
C142   C     0.04287   0.82699   0.32802   0.00000  Uiso   1.00
C143   C     0.09677   0.96246   0.36891   0.00000  Uiso   1.00
C144   C     0.81317   0.51608   0.27686   0.00000  Uiso   1.00
C145   C     0.83604   0.38837   0.27741   0.00000  Uiso   1.00
C146   C     0.74446   0.31299   0.29112   0.00000  Uiso   1.00
C147   C     0.62562   0.15099   0.31064   0.00000  Uiso   1.00
C148   C     0.82462   0.68644   0.23767   0.00000  Uiso   1.00
C149   C     0.85709   0.70194   0.20526   0.00000  Uiso   1.00
C150   C     0.77512   0.76997   0.18597   0.00000  Uiso   1.00
C151   C     0.67406   0.87247   0.14464   0.00000  Uiso   1.00
C152   C     0.69719   0.70865   0.28641   0.00000  Uiso   1.00
C153   C     0.81397   0.75831   0.30330   0.00000  Uiso   1.00
C154   C     0.81586   0.84420   0.32858   0.00000  Uiso   1.00
C155   C     0.93224   0.87771   0.34073   0.00000  Uiso   1.00
C156   C     0.70274   0.56670   0.28955   0.00000  Uiso   1.00
C157   C     0.61109   0.49150   0.30326   0.00000  Uiso   1.00
C158   C     0.63382   0.36371   0.30383   0.00000  Uiso   1.00
C159   C     0.71418   0.73707   0.25036   0.00000  Uiso   1.00
C160   C     0.63214   0.80507   0.23112   0.00000  Uiso   1.00
C161   C     0.66448   0.82068   0.19869   0.00000  Uiso   1.00
H162   H     0.98649   0.57602   0.25316   0.00000  Uiso   1.00
H163   H     0.12625   0.70186   0.29290   0.00000  Uiso   1.00
H164   H     0.92151   0.34922   0.26758   0.00000  Uiso   1.00
H165   H     0.94256   0.66275   0.19544   0.00000  Uiso   1.00
H166   H     0.23250   0.86368   0.34256   0.00000  Uiso   1.00
H167   H     0.80078   0.12009   0.28917   0.00000  Uiso   1.00
H168   H     0.84516   0.78123   0.13706   0.00000  Uiso   1.00
H169   H     0.61120   0.74807   0.29629   0.00000  Uiso   1.00
H170   H     0.73038   0.88336   0.33840   0.00000  Uiso   1.00
H171   H     0.52564   0.53071   0.31308   0.00000  Uiso   1.00
H172   H     0.54669   0.84424   0.24095   0.00000  Uiso   1.00
H173   H     0.91119   0.01098   0.37949   0.00000  Uiso   1.00
H174   H     0.47947   0.26739   0.32610   0.00000  Uiso   1.00
H175   H     0.52385   0.92853   0.17399   0.00000  Uiso   1.00
O176   O     0.15701   0.02319   0.38796   0.00000  Uiso   1.00
O177   O     0.59060   0.04764   0.31790   0.00000  Uiso   1.00
O178   O     0.64883   0.91504   0.11833   0.00000  Uiso   1.00
N179   N     0.14053   0.87980   0.34547   0.00000  Uiso   1.00
N180   N     0.73690   0.18459   0.29555   0.00000  Uiso   1.00
N181   N     0.77838   0.80267   0.15334   0.00000  Uiso   1.00
N182   N     0.96764   0.95906   0.36534   0.00000  Uiso   1.00
N183   N     0.56401   0.26386   0.31543   0.00000  Uiso   1.00
N184   N     0.60548   0.88193   0.17321   0.00000  Uiso   1.00
C185   C     0.61544   0.90051   0.73696   0.00000  Uiso   1.00
C186   C     0.70768   0.92441   0.70939   0.00000  Uiso   1.00
C187   C     0.74107   0.04081   0.69727   0.00000  Uiso   1.00
C188   C     0.82699   0.04287   0.67198   0.00000  Uiso   1.00
C189   C     0.96246   0.09677   0.63109   0.00000  Uiso   1.00
C190   C     0.51608   0.81317   0.72314   0.00000  Uiso   1.00
C191   C     0.38837   0.83604   0.72259   0.00000  Uiso   1.00
C192   C     0.31299   0.74446   0.70888   0.00000  Uiso   1.00
C193   C     0.15099   0.62562   0.68936   0.00000  Uiso   1.00
C194   C     0.68644   0.82462   0.76233   0.00000  Uiso   1.00
C195   C     0.70194   0.85709   0.79474   0.00000  Uiso   1.00
C196   C     0.76997   0.77512   0.81403   0.00000  Uiso   1.00
C197   C     0.87247   0.67406   0.85536   0.00000  Uiso   1.00
C198   C     0.70865   0.69719   0.71359   0.00000  Uiso   1.00
C199   C     0.75831   0.81397   0.69670   0.00000  Uiso   1.00
C200   C     0.84420   0.81586   0.67142   0.00000  Uiso   1.00
C201   C     0.87771   0.93224   0.65927   0.00000  Uiso   1.00
C202   C     0.56670   0.70274   0.71045   0.00000  Uiso   1.00
C203   C     0.49150   0.61109   0.69674   0.00000  Uiso   1.00
C204   C     0.36371   0.63382   0.69617   0.00000  Uiso   1.00
C205   C     0.73707   0.71418   0.74964   0.00000  Uiso   1.00
C206   C     0.80507   0.63214   0.76888   0.00000  Uiso   1.00
C207   C     0.82068   0.66448   0.80131   0.00000  Uiso   1.00
H208   H     0.57602   0.98649   0.74684   0.00000  Uiso   1.00
H209   H     0.70186   0.12625   0.70710   0.00000  Uiso   1.00
H210   H     0.34922   0.92151   0.73242   0.00000  Uiso   1.00
H211   H     0.66275   0.94256   0.80456   0.00000  Uiso   1.00
H212   H     0.86368   0.23250   0.65744   0.00000  Uiso   1.00
H213   H     0.12009   0.80078   0.71083   0.00000  Uiso   1.00
H214   H     0.78123   0.84516   0.86294   0.00000  Uiso   1.00
H215   H     0.74807   0.61120   0.70371   0.00000  Uiso   1.00
H216   H     0.88336   0.73038   0.66160   0.00000  Uiso   1.00
H217   H     0.53071   0.52564   0.68692   0.00000  Uiso   1.00
H218   H     0.84424   0.54669   0.75905   0.00000  Uiso   1.00
H219   H     0.01098   0.91119   0.62051   0.00000  Uiso   1.00
H220   H     0.26739   0.47947   0.67390   0.00000  Uiso   1.00
H221   H     0.92853   0.52385   0.82601   0.00000  Uiso   1.00
O222   O     0.02319   0.15701   0.61204   0.00000  Uiso   1.00
O223   O     0.04764   0.59060   0.68210   0.00000  Uiso   1.00
O224   O     0.91504   0.64883   0.88167   0.00000  Uiso   1.00
N225   N     0.87980   0.14053   0.65453   0.00000  Uiso   1.00
N226   N     0.18459   0.73690   0.70445   0.00000  Uiso   1.00
N227   N     0.80267   0.77838   0.84666   0.00000  Uiso   1.00
N228   N     0.95906   0.96764   0.63466   0.00000  Uiso   1.00
N229   N     0.26386   0.56401   0.68457   0.00000  Uiso   1.00
N230   N     0.88193   0.60548   0.82679   0.00000  Uiso   1.00
C231   C     0.38456   0.09949   0.23696   0.00000  Uiso   1.00
C232   C     0.29232   0.07559   0.20939   0.00000  Uiso   1.00
C233   C     0.25893   0.95919   0.19727   0.00000  Uiso   1.00
C234   C     0.17301   0.95713   0.17198   0.00000  Uiso   1.00
C235   C     0.03754   0.90323   0.13109   0.00000  Uiso   1.00
C236   C     0.48392   0.18683   0.22314   0.00000  Uiso   1.00
C237   C     0.61163   0.16396   0.22259   0.00000  Uiso   1.00
C238   C     0.68701   0.25554   0.20888   0.00000  Uiso   1.00
C239   C     0.84901   0.37438   0.18936   0.00000  Uiso   1.00
C240   C     0.31356   0.17538   0.26233   0.00000  Uiso   1.00
C241   C     0.29806   0.14291   0.29474   0.00000  Uiso   1.00
C242   C     0.23003   0.22488   0.31403   0.00000  Uiso   1.00
C243   C     0.12753   0.32594   0.35536   0.00000  Uiso   1.00
C244   C     0.29135   0.30281   0.21359   0.00000  Uiso   1.00
C245   C     0.24169   0.18603   0.19670   0.00000  Uiso   1.00
C246   C     0.15580   0.18414   0.17142   0.00000  Uiso   1.00
C247   C     0.12229   0.06776   0.15927   0.00000  Uiso   1.00
C248   C     0.43330   0.29726   0.21045   0.00000  Uiso   1.00
C249   C     0.50850   0.38891   0.19674   0.00000  Uiso   1.00
C250   C     0.63629   0.36618   0.19617   0.00000  Uiso   1.00
C251   C     0.26293   0.28582   0.24964   0.00000  Uiso   1.00
C252   C     0.19493   0.36786   0.26888   0.00000  Uiso   1.00
C253   C     0.17932   0.33552   0.30131   0.00000  Uiso   1.00
H254   H     0.42398   0.01351   0.24684   0.00000  Uiso   1.00
H255   H     0.29814   0.87375   0.20710   0.00000  Uiso   1.00
H256   H     0.65078   0.07849   0.23242   0.00000  Uiso   1.00
H257   H     0.33725   0.05744   0.30456   0.00000  Uiso   1.00
H258   H     0.13632   0.76750   0.15744   0.00000  Uiso   1.00
H259   H     0.87991   0.19922   0.21083   0.00000  Uiso   1.00
H260   H     0.21877   0.15484   0.36294   0.00000  Uiso   1.00
H261   H     0.25193   0.38880   0.20371   0.00000  Uiso   1.00
H262   H     0.11664   0.26962   0.16160   0.00000  Uiso   1.00
H263   H     0.46929   0.47436   0.18692   0.00000  Uiso   1.00
H264   H     0.15576   0.45331   0.25905   0.00000  Uiso   1.00
H265   H     0.98902   0.08881   0.12051   0.00000  Uiso   1.00
H266   H     0.73261   0.52053   0.17390   0.00000  Uiso   1.00
H267   H     0.07147   0.47615   0.32601   0.00000  Uiso   1.00
O268   O     0.97681   0.84299   0.11204   0.00000  Uiso   1.00
O269   O     0.95236   0.40940   0.18210   0.00000  Uiso   1.00
O270   O     0.08496   0.35117   0.38167   0.00000  Uiso   1.00
N271   N     0.12020   0.85947   0.15453   0.00000  Uiso   1.00
N272   N     0.81541   0.26310   0.20445   0.00000  Uiso   1.00
N273   N     0.19733   0.22162   0.34666   0.00000  Uiso   1.00
N274   N     0.04094   0.03236   0.13466   0.00000  Uiso   1.00
N275   N     0.73614   0.43599   0.18457   0.00000  Uiso   1.00
N276   N     0.11807   0.39452   0.32679   0.00000  Uiso   1.00
C277   C     0.40051   0.88456   0.98696   0.00000  Uiso   1.00
C278   C     0.42441   0.79232   0.95939   0.00000  Uiso   1.00
C279   C     0.54081   0.75893   0.94727   0.00000  Uiso   1.00
C280   C     0.54287   0.67301   0.92198   0.00000  Uiso   1.00
C281   C     0.59677   0.53754   0.88109   0.00000  Uiso   1.00
C282   C     0.31317   0.98392   0.97314   0.00000  Uiso   1.00
C283   C     0.33604   0.11163   0.97259   0.00000  Uiso   1.00
C284   C     0.24446   0.18701   0.95888   0.00000  Uiso   1.00
C285   C     0.12562   0.34901   0.93936   0.00000  Uiso   1.00
C286   C     0.32462   0.81356   0.01233   0.00000  Uiso   1.00
C287   C     0.35709   0.79806   0.04474   0.00000  Uiso   1.00
C288   C     0.27512   0.73003   0.06403   0.00000  Uiso   1.00
C289   C     0.17406   0.62753   0.10536   0.00000  Uiso   1.00
C290   C     0.19719   0.79135   0.96359   0.00000  Uiso   1.00
C291   C     0.31397   0.74169   0.94670   0.00000  Uiso   1.00
C292   C     0.31586   0.65580   0.92142   0.00000  Uiso   1.00
C293   C     0.43224   0.62229   0.90927   0.00000  Uiso   1.00
C294   C     0.20274   0.93330   0.96045   0.00000  Uiso   1.00
C295   C     0.11109   0.00850   0.94674   0.00000  Uiso   1.00
C296   C     0.13382   0.13629   0.94617   0.00000  Uiso   1.00
C297   C     0.21418   0.76293   0.99964   0.00000  Uiso   1.00
C298   C     0.13214   0.69493   0.01888   0.00000  Uiso   1.00
C299   C     0.16448   0.67932   0.05131   0.00000  Uiso   1.00
H300   H     0.48649   0.92398   0.99684   0.00000  Uiso   1.00
H301   H     0.62625   0.79814   0.95710   0.00000  Uiso   1.00
H302   H     0.42151   0.15078   0.98242   0.00000  Uiso   1.00
H303   H     0.44256   0.83725   0.05456   0.00000  Uiso   1.00
H304   H     0.73250   0.63632   0.90744   0.00000  Uiso   1.00
H305   H     0.30078   0.37991   0.96083   0.00000  Uiso   1.00
H306   H     0.34516   0.71877   0.11294   0.00000  Uiso   1.00
H307   H     0.11120   0.75193   0.95371   0.00000  Uiso   1.00
H308   H     0.23038   0.61664   0.91160   0.00000  Uiso   1.00
H309   H     0.02564   0.96929   0.93692   0.00000  Uiso   1.00
H310   H     0.04669   0.65576   0.00905   0.00000  Uiso   1.00
H311   H     0.41119   0.48902   0.87051   0.00000  Uiso   1.00
H312   H     0.97947   0.23261   0.92390   0.00000  Uiso   1.00
H313   H     0.02385   0.57147   0.07601   0.00000  Uiso   1.00
O314   O     0.65701   0.47681   0.86204   0.00000  Uiso   1.00
O315   O     0.09060   0.45236   0.93210   0.00000  Uiso   1.00
O316   O     0.14883   0.58496   0.13167   0.00000  Uiso   1.00
N317   N     0.64053   0.62020   0.90453   0.00000  Uiso   1.00
N318   N     0.23690   0.31541   0.95445   0.00000  Uiso   1.00
N319   N     0.27838   0.69733   0.09666   0.00000  Uiso   1.00
N320   N     0.46764   0.54094   0.88466   0.00000  Uiso   1.00
N321   N     0.06401   0.23614   0.93457   0.00000  Uiso   1.00
N322   N     0.10548   0.61807   0.07679   0.00000  Uiso   1.00
C323   C     0.59949   0.11544   0.48696   0.00000  Uiso   1.00
C324   C     0.57559   0.20768   0.45939   0.00000  Uiso   1.00
C325   C     0.45919   0.24107   0.44727   0.00000  Uiso   1.00
C326   C     0.45713   0.32699   0.42198   0.00000  Uiso   1.00
C327   C     0.40323   0.46246   0.38109   0.00000  Uiso   1.00
C328   C     0.68683   0.01608   0.47314   0.00000  Uiso   1.00
C329   C     0.66396   0.88837   0.47259   0.00000  Uiso   1.00
C330   C     0.75554   0.81299   0.45888   0.00000  Uiso   1.00
C331   C     0.87438   0.65099   0.43936   0.00000  Uiso   1.00
C332   C     0.67538   0.18644   0.51233   0.00000  Uiso   1.00
C333   C     0.64291   0.20194   0.54474   0.00000  Uiso   1.00
C334   C     0.72488   0.26997   0.56403   0.00000  Uiso   1.00
C335   C     0.82594   0.37247   0.60536   0.00000  Uiso   1.00
C336   C     0.80281   0.20865   0.46359   0.00000  Uiso   1.00
C337   C     0.68603   0.25831   0.44670   0.00000  Uiso   1.00
C338   C     0.68414   0.34420   0.42142   0.00000  Uiso   1.00
C339   C     0.56776   0.37771   0.40927   0.00000  Uiso   1.00
C340   C     0.79726   0.06670   0.46045   0.00000  Uiso   1.00
C341   C     0.88891   0.99150   0.44674   0.00000  Uiso   1.00
C342   C     0.86618   0.86371   0.44617   0.00000  Uiso   1.00
C343   C     0.78582   0.23707   0.49964   0.00000  Uiso   1.00
C344   C     0.86786   0.30507   0.51888   0.00000  Uiso   1.00
C345   C     0.83552   0.32068   0.55131   0.00000  Uiso   1.00
H346   H     0.51351   0.07602   0.49684   0.00000  Uiso   1.00
H347   H     0.37375   0.20186   0.45710   0.00000  Uiso   1.00
H348   H     0.57849   0.84922   0.48242   0.00000  Uiso   1.00
H349   H     0.55744   0.16275   0.55456   0.00000  Uiso   1.00
H350   H     0.26750   0.36368   0.40744   0.00000  Uiso   1.00
H351   H     0.69922   0.62009   0.46083   0.00000  Uiso   1.00
H352   H     0.65484   0.28123   0.61294   0.00000  Uiso   1.00
H353   H     0.88880   0.24807   0.45371   0.00000  Uiso   1.00
H354   H     0.76962   0.38336   0.41160   0.00000  Uiso   1.00
H355   H     0.97436   0.03071   0.43692   0.00000  Uiso   1.00
H356   H     0.95331   0.34424   0.50905   0.00000  Uiso   1.00
H357   H     0.58881   0.51098   0.37051   0.00000  Uiso   1.00
H358   H     0.02053   0.76739   0.42390   0.00000  Uiso   1.00
H359   H     0.97615   0.42853   0.57601   0.00000  Uiso   1.00
O360   O     0.34299   0.52319   0.36204   0.00000  Uiso   1.00
O361   O     0.90940   0.54764   0.43210   0.00000  Uiso   1.00
O362   O     0.85117   0.41504   0.63167   0.00000  Uiso   1.00
N363   N     0.35947   0.37980   0.40453   0.00000  Uiso   1.00
N364   N     0.76310   0.68459   0.45445   0.00000  Uiso   1.00
N365   N     0.72162   0.30267   0.59666   0.00000  Uiso   1.00
N366   N     0.53236   0.45906   0.38466   0.00000  Uiso   1.00
N367   N     0.93599   0.76386   0.43457   0.00000  Uiso   1.00
N368   N     0.89452   0.38193   0.57679   0.00000  Uiso   1.00
