data_job_03696
_audit_creation_date              2018-12-19
_audit_creation_method            'Materials Studio'
_symmetry_space_group_name_H-M    'P1'
_symmetry_Int_Tables_number       1
_symmetry_cell_setting            triclinic
loop_
_symmetry_equiv_pos_as_xyz
  x,y,z
_cell_length_a                    12.3557
_cell_length_b                    12.5838
_cell_length_c                    13.3554
_cell_angle_alpha                 74.0712
_cell_angle_beta                  70.2654
_cell_angle_gamma                 93.9881
loop_
_atom_site_label
_atom_site_type_symbol
_atom_site_fract_x
_atom_site_fract_y
_atom_site_fract_z
_atom_site_U_iso_or_equiv
_atom_site_adp_type
_atom_site_occupancy
C1     C     0.78466   0.05972   0.24722   0.00000  Uiso   1.00
C2     C     0.76760   0.06927   0.36276   0.00000  Uiso   1.00
C3     C     0.71693   0.98287   0.46386   0.00000  Uiso   1.00
C4     C     0.70940   0.00860   0.56038   0.00000  Uiso   1.00
C5     C     0.67663   0.00694   0.74046   0.00000  Uiso   1.00
C6     C     0.91500   0.09818   0.17763   0.00000  Uiso   1.00
C7     C     0.98825   0.03609   0.12306   0.00000  Uiso   1.00
C8     C     0.10480   0.08617   0.06373   0.00000  Uiso   1.00
C9     C     0.30084   0.12942   0.95633   0.00000  Uiso   1.00
C10    C     0.72397   0.14832   0.19555   0.00000  Uiso   1.00
C11    C     0.63662   0.12840   0.15602   0.00000  Uiso   1.00
C12    C     0.59235   0.22071   0.11174   0.00000  Uiso   1.00
C13    C     0.49179   0.34182   0.03216   0.00000  Uiso   1.00
C14    C     0.86138   0.25906   0.23885   0.00000  Uiso   1.00
C15    C     0.80928   0.17754   0.35821   0.00000  Uiso   1.00
C16    C     0.80182   0.20342   0.45460   0.00000  Uiso   1.00
C17    C     0.75114   0.11707   0.55583   0.00000  Uiso   1.00
C18    C     0.95667   0.20645   0.17308   0.00000  Uiso   1.00
C19    C     0.07314   0.25664   0.11380   0.00000  Uiso   1.00
C20    C     0.14655   0.19464   0.05917   0.00000  Uiso   1.00
C21    C     0.76564   0.25660   0.19100   0.00000  Uiso   1.00
C22    C     0.72150   0.34895   0.14677   0.00000  Uiso   1.00
C23    C     0.63410   0.32918   0.10719   0.00000  Uiso   1.00
H24    H     0.75222   0.97542   0.25076   0.00000  Uiso   1.00
H25    H     0.68470   0.89908   0.46734   0.00000  Uiso   1.00
H26    H     0.95597   0.95230   0.12659   0.00000  Uiso   1.00
H27    H     0.60439   0.04460   0.15955   0.00000  Uiso   1.00
H28    H     0.62826   0.86218   0.70546   0.00000  Uiso   1.00
H29    H     0.20024   0.97441   0.98693   0.00000  Uiso   1.00
H30    H     0.45887   0.16905   0.05643   0.00000  Uiso   1.00
H31    H     0.89383   0.34337   0.23531   0.00000  Uiso   1.00
H32    H     0.83408   0.28722   0.45106   0.00000  Uiso   1.00
H33    H     0.10535   0.34043   0.11030   0.00000  Uiso   1.00
H34    H     0.75377   0.43273   0.14326   0.00000  Uiso   1.00
H35    H     0.74951   0.17721   0.69224   0.00000  Uiso   1.00
H36    H     0.32149   0.28944   0.97371   0.00000  Uiso   1.00
H37    H     0.58011   0.48407   0.04321   0.00000  Uiso   1.00
O38    O     0.64706   0.97611   0.84105   0.00000  Uiso   1.00
O39    O     0.39747   0.12336   0.89835   0.00000  Uiso   1.00
O40    O     0.42480   0.37871   0.98953   0.00000  Uiso   1.00
N41    N     0.66497   0.94404   0.67274   0.00000  Uiso   1.00
N42    N     0.19975   0.04896   0.00098   0.00000  Uiso   1.00
N43    N     0.50665   0.23093   0.06592   0.00000  Uiso   1.00
N44    N     0.73021   0.11355   0.66563   0.00000  Uiso   1.00
N45    N     0.26499   0.21847   0.99386   0.00000  Uiso   1.00
N46    N     0.57189   0.40044   0.05881   0.00000  Uiso   1.00
C47    C     0.21534   0.94028   0.75278   0.00000  Uiso   1.00
C48    C     0.23240   0.93073   0.63724   0.00000  Uiso   1.00
C49    C     0.28307   0.01713   0.53614   0.00000  Uiso   1.00
C50    C     0.29060   0.99140   0.43962   0.00000  Uiso   1.00
C51    C     0.32337   0.99306   0.25954   0.00000  Uiso   1.00
C52    C     0.08500   0.90182   0.82237   0.00000  Uiso   1.00
C53    C     0.01175   0.96391   0.87694   0.00000  Uiso   1.00
C54    C     0.89520   0.91383   0.93627   0.00000  Uiso   1.00
C55    C     0.69916   0.87058   0.04367   0.00000  Uiso   1.00
C56    C     0.27603   0.85168   0.80445   0.00000  Uiso   1.00
C57    C     0.36338   0.87160   0.84398   0.00000  Uiso   1.00
C58    C     0.40765   0.77929   0.88826   0.00000  Uiso   1.00
C59    C     0.50821   0.65818   0.96784   0.00000  Uiso   1.00
C60    C     0.13862   0.74094   0.76115   0.00000  Uiso   1.00
C61    C     0.19072   0.82246   0.64179   0.00000  Uiso   1.00
C62    C     0.19818   0.79658   0.54540   0.00000  Uiso   1.00
C63    C     0.24886   0.88293   0.44417   0.00000  Uiso   1.00
C64    C     0.04333   0.79355   0.82692   0.00000  Uiso   1.00
C65    C     0.92686   0.74336   0.88620   0.00000  Uiso   1.00
C66    C     0.85345   0.80536   0.94083   0.00000  Uiso   1.00
C67    C     0.23436   0.74340   0.80900   0.00000  Uiso   1.00
C68    C     0.27850   0.65105   0.85323   0.00000  Uiso   1.00
C69    C     0.36590   0.67082   0.89281   0.00000  Uiso   1.00
H70    H     0.24778   0.02458   0.74924   0.00000  Uiso   1.00
H71    H     0.31530   0.10092   0.53266   0.00000  Uiso   1.00
H72    H     0.04403   0.04770   0.87341   0.00000  Uiso   1.00
H73    H     0.39561   0.95540   0.84045   0.00000  Uiso   1.00
H74    H     0.37174   0.13782   0.29454   0.00000  Uiso   1.00
H75    H     0.79976   0.02559   0.01307   0.00000  Uiso   1.00
H76    H     0.54113   0.83095   0.94357   0.00000  Uiso   1.00
H77    H     0.10617   0.65663   0.76469   0.00000  Uiso   1.00
H78    H     0.16592   0.71278   0.54894   0.00000  Uiso   1.00
H79    H     0.89465   0.65957   0.88970   0.00000  Uiso   1.00
H80    H     0.24623   0.56727   0.85674   0.00000  Uiso   1.00
H81    H     0.25049   0.82279   0.30776   0.00000  Uiso   1.00
H82    H     0.67851   0.71056   0.02629   0.00000  Uiso   1.00
H83    H     0.41989   0.51593   0.95679   0.00000  Uiso   1.00
O84    O     0.35294   0.02389   0.15895   0.00000  Uiso   1.00
O85    O     0.60253   0.87664   0.10165   0.00000  Uiso   1.00
O86    O     0.57520   0.62129   0.01047   0.00000  Uiso   1.00
N87    N     0.33503   0.05596   0.32726   0.00000  Uiso   1.00
N88    N     0.80025   0.95104   0.99902   0.00000  Uiso   1.00
N89    N     0.49335   0.76907   0.93408   0.00000  Uiso   1.00
N90    N     0.26979   0.88645   0.33437   0.00000  Uiso   1.00
N91    N     0.73501   0.78153   0.00614   0.00000  Uiso   1.00
N92    N     0.42811   0.59956   0.94119   0.00000  Uiso   1.00
