data_job_06197
_audit_creation_date              2018-12-19
_audit_creation_method            'Materials Studio'
_symmetry_space_group_name_H-M    'P1'
_symmetry_Int_Tables_number       1
_symmetry_cell_setting            triclinic
loop_
_symmetry_equiv_pos_as_xyz
  x,y,z
_cell_length_a                    15.9300
_cell_length_b                    16.1884
_cell_length_c                    16.4832
_cell_angle_alpha                 109.5472
_cell_angle_beta                  109.7100
_cell_angle_gamma                 106.5280
loop_
_atom_site_label
_atom_site_type_symbol
_atom_site_fract_x
_atom_site_fract_y
_atom_site_fract_z
_atom_site_U_iso_or_equiv
_atom_site_adp_type
_atom_site_occupancy
C1     C     0.54121   0.16256   0.27046   0.00000  Uiso   1.00
C2     C     0.46009   0.19596   0.24439   0.00000  Uiso   1.00
C3     C     0.46812   0.27537   0.22713   0.00000  Uiso   1.00
C4     C     0.38554   0.29388   0.20433   0.00000  Uiso   1.00
C5     C     0.27289   0.35472   0.16472   0.00000  Uiso   1.00
C6     C     0.55820   0.16183   0.36691   0.00000  Uiso   1.00
C7     C     0.64872   0.21254   0.45266   0.00000  Uiso   1.00
C8     C     0.64873   0.20231   0.53300   0.00000  Uiso   1.00
C9     C     0.68841   0.21011   0.68358   0.00000  Uiso   1.00
C10    C     0.49507   0.05564   0.19336   0.00000  Uiso   1.00
C11    C     0.53252   0.01705   0.13320   0.00000  Uiso   1.00
C12    C     0.47940   0.91740   0.06744   0.00000  Uiso   1.00
C13    C     0.42106   0.76033   0.94856   0.00000  Uiso   1.00
C14    C     0.38029   0.05420   0.26066   0.00000  Uiso   1.00
C15    C     0.37269   0.13710   0.23908   0.00000  Uiso   1.00
C16    C     0.29007   0.15549   0.21629   0.00000  Uiso   1.00
C17    C     0.29797   0.23492   0.19900   0.00000  Uiso   1.00
C18    C     0.47080   0.10298   0.36160   0.00000  Uiso   1.00
C19    C     0.47067   0.09266   0.44183   0.00000  Uiso   1.00
C20    C     0.56116   0.14335   0.52767   0.00000  Uiso   1.00
C21    C     0.40766   0.99678   0.18804   0.00000  Uiso   1.00
C22    C     0.35447   0.89717   0.12236   0.00000  Uiso   1.00
C23    C     0.39183   0.85844   0.06211   0.00000  Uiso   1.00
H24    H     0.60927   0.20838   0.27460   0.00000  Uiso   1.00
H25    H     0.53578   0.32091   0.23126   0.00000  Uiso   1.00
H26    H     0.71635   0.25807   0.45675   0.00000  Uiso   1.00
H27    H     0.60017   0.06262   0.13734   0.00000  Uiso   1.00
H28    H     0.41576   0.41973   0.18090   0.00000  Uiso   1.00
H29    H     0.79652   0.28722   0.65635   0.00000  Uiso   1.00
H30    H     0.55153   0.87506   0.98281   0.00000  Uiso   1.00
H31    H     0.31224   0.00838   0.25652   0.00000  Uiso   1.00
H32    H     0.22244   0.10993   0.21218   0.00000  Uiso   1.00
H33    H     0.40302   0.04710   0.43768   0.00000  Uiso   1.00
H34    H     0.28684   0.85165   0.11827   0.00000  Uiso   1.00
H35    H     0.16145   0.24850   0.16542   0.00000  Uiso   1.00
H36    H     0.54221   0.11599   0.64087   0.00000  Uiso   1.00
H37    H     0.29722   0.70383   0.96733   0.00000  Uiso   1.00
O38    O     0.23490   0.40455   0.14435   0.00000  Uiso   1.00
O39    O     0.73445   0.23068   0.76811   0.00000  Uiso   1.00
O40    O     0.41302   0.68995   0.88444   0.00000  Uiso   1.00
N41    N     0.36822   0.36548   0.18332   0.00000  Uiso   1.00
N42    N     0.72421   0.24161   0.62784   0.00000  Uiso   1.00
N43    N     0.49518   0.85627   0.99816   0.00000  Uiso   1.00
N44    N     0.23138   0.27334   0.17499   0.00000  Uiso   1.00
N45    N     0.58737   0.14947   0.61951   0.00000  Uiso   1.00
N46    N     0.35833   0.76413   0.98983   0.00000  Uiso   1.00
C47    C     0.72952   0.62385   0.45983   0.00000  Uiso   1.00
C48    C     0.77660   0.73183   0.53456   0.00000  Uiso   1.00
C49    C     0.74464   0.79995   0.52151   0.00000  Uiso   1.00
C50    C     0.79770   0.89511   0.59865   0.00000  Uiso   1.00
C51    C     0.85835   0.05883   0.70143   0.00000  Uiso   1.00
C52    C     0.81289   0.60630   0.44331   0.00000  Uiso   1.00
C53    C     0.81143   0.56887   0.35354   0.00000  Uiso   1.00
C54    C     0.89503   0.55834   0.35386   0.00000  Uiso   1.00
C55    C     0.01199   0.52711   0.31497   0.00000  Uiso   1.00
C56    C     0.70260   0.56622   0.51139   0.00000  Uiso   1.00
C57    C     0.60841   0.49507   0.47884   0.00000  Uiso   1.00
C58    C     0.59916   0.45078   0.53647   0.00000  Uiso   1.00
C59    C     0.54488   0.35732   0.60327   0.00000  Uiso   1.00
C60    C     0.88058   0.67171   0.62002   0.00000  Uiso   1.00
C61    C     0.85865   0.75782   0.62157   0.00000  Uiso   1.00
C62    C     0.91177   0.85290   0.69875   0.00000  Uiso   1.00
C63    C     0.87990   0.92115   0.68581   0.00000  Uiso   1.00
C64    C     0.89494   0.63229   0.53032   0.00000  Uiso   1.00
C65    C     0.97856   0.62182   0.53077   0.00000  Uiso   1.00
C66    C     0.97723   0.58438   0.44103   0.00000  Uiso   1.00
C67    C     0.78465   0.59222   0.59840   0.00000  Uiso   1.00
C68    C     0.77555   0.54802   0.65608   0.00000  Uiso   1.00
C69    C     0.68137   0.47682   0.62363   0.00000  Uiso   1.00
H70    H     0.66564   0.60361   0.39209   0.00000  Uiso   1.00
H71    H     0.68114   0.77981   0.45416   0.00000  Uiso   1.00
H72    H     0.74791   0.54875   0.28622   0.00000  Uiso   1.00
H73    H     0.54493   0.47497   0.41151   0.00000  Uiso   1.00
H74    H     0.73453   0.98662   0.56134   0.00000  Uiso   1.00
H75    H     0.87532   0.49940   0.20722   0.00000  Uiso   1.00
H76    H     0.44729   0.34381   0.47141   0.00000  Uiso   1.00
H77    H     0.94447   0.69195   0.68776   0.00000  Uiso   1.00
H78    H     0.97527   0.87299   0.76607   0.00000  Uiso   1.00
H79    H     0.04204   0.64194   0.59812   0.00000  Uiso   1.00
H80    H     0.83906   0.56816   0.72341   0.00000  Uiso   1.00
H81    H     0.97326   0.06226   0.81450   0.00000  Uiso   1.00
H82    H     0.11404   0.57503   0.46036   0.00000  Uiso   1.00
H83    H     0.68601   0.41945   0.72456   0.00000  Uiso   1.00
O84    O     0.86915   0.14195   0.73408   0.00000  Uiso   1.00
O85    O     0.05384   0.50271   0.26948   0.00000  Uiso   1.00
O86    O     0.49227   0.29859   0.61609   0.00000  Uiso   1.00
N87    N     0.78648   0.97958   0.61019   0.00000  Uiso   1.00
N88    N     0.91811   0.52406   0.27910   0.00000  Uiso   1.00
N89    N     0.51794   0.37858   0.52608   0.00000  Uiso   1.00
N90    N     0.91494   0.02027   0.74640   0.00000  Uiso   1.00
N91    N     0.04657   0.56476   0.41532   0.00000  Uiso   1.00
N92    N     0.64640   0.41928   0.66230   0.00000  Uiso   1.00
C93    C     0.72638   0.89138   0.26866   0.00000  Uiso   1.00
C94    C     0.74990   0.94916   0.21615   0.00000  Uiso   1.00
C95    C     0.76102   0.04396   0.24178   0.00000  Uiso   1.00
C96    C     0.78241   0.08393   0.18448   0.00000  Uiso   1.00
C97    C     0.81737   0.18169   0.11509   0.00000  Uiso   1.00
C98    C     0.63200   0.79678   0.19090   0.00000  Uiso   1.00
C99    C     0.54400   0.76346   0.19531   0.00000  Uiso   1.00
C100   C     0.46615   0.67514   0.11676   0.00000  Uiso   1.00
C101   C     0.31809   0.53629   0.00820   0.00000  Uiso   1.00
C102   C     0.80973   0.86133   0.29795   0.00000  Uiso   1.00
C103   C     0.87117   0.88225   0.39238   0.00000  Uiso   1.00
C104   C     0.94295   0.84826   0.40395   0.00000  Uiso   1.00
C105   C     0.07085   0.80963   0.46161   0.00000  Uiso   1.00
C106   C     0.74460   0.79380   0.12131   0.00000  Uiso   1.00
C107   C     0.75979   0.89615   0.13612   0.00000  Uiso   1.00
C108   C     0.78118   0.93599   0.07876   0.00000  Uiso   1.00
C109   C     0.79233   0.03083   0.10431   0.00000  Uiso   1.00
C110   C     0.64189   0.74378   0.11087   0.00000  Uiso   1.00
C111   C     0.56416   0.65549   0.03229   0.00000  Uiso   1.00
C112   C     0.47606   0.62204   0.03658   0.00000  Uiso   1.00
C113   C     0.81963   0.80832   0.21792   0.00000  Uiso   1.00
C114   C     0.89133   0.77429   0.22935   0.00000  Uiso   1.00
C115   C     0.95286   0.79516   0.32377   0.00000  Uiso   1.00
H116   H     0.71867   0.93265   0.33097   0.00000  Uiso   1.00
H117   H     0.75334   0.08495   0.30372   0.00000  Uiso   1.00
H118   H     0.53637   0.80449   0.25726   0.00000  Uiso   1.00
H119   H     0.86349   0.92327   0.45429   0.00000  Uiso   1.00
H120   H     0.79611   0.23043   0.23820   0.00000  Uiso   1.00
H121   H     0.33861   0.63903   0.14025   0.00000  Uiso   1.00
H122   H     0.02841   0.88950   0.55573   0.00000  Uiso   1.00
H123   H     0.75231   0.75252   0.05900   0.00000  Uiso   1.00
H124   H     0.78883   0.89495   0.01683   0.00000  Uiso   1.00
H125   H     0.57184   0.61449   0.97037   0.00000  Uiso   1.00
H126   H     0.89897   0.73327   0.16740   0.00000  Uiso   1.00
H127   H     0.82491   0.07621   0.00534   0.00000  Uiso   1.00
H128   H     0.36740   0.48481   0.90740   0.00000  Uiso   1.00
H129   H     0.05720   0.73529   0.32287   0.00000  Uiso   1.00
O130   O     0.83390   0.25025   0.09892   0.00000  Uiso   1.00
O131   O     0.23368   0.47436   0.97043   0.00000  Uiso   1.00
O132   O     0.13868   0.80298   0.51552   0.00000  Uiso   1.00
N133   N     0.79790   0.17459   0.18919   0.00000  Uiso   1.00
N134   N     0.37015   0.62168   0.09761   0.00000  Uiso   1.00
N135   N     0.01504   0.85583   0.48604   0.00000  Uiso   1.00
N136   N     0.81340   0.09161   0.06390   0.00000  Uiso   1.00
N137   N     0.38565   0.53870   0.97232   0.00000  Uiso   1.00
N138   N     0.03054   0.77285   0.36075   0.00000  Uiso   1.00
C139   C     0.45879   0.83744   0.72954   0.00000  Uiso   1.00
C140   C     0.53991   0.80404   0.75561   0.00000  Uiso   1.00
C141   C     0.53189   0.72463   0.77287   0.00000  Uiso   1.00
C142   C     0.61446   0.70612   0.79567   0.00000  Uiso   1.00
C143   C     0.72711   0.64528   0.83528   0.00000  Uiso   1.00
C144   C     0.44180   0.83817   0.63309   0.00000  Uiso   1.00
C145   C     0.35128   0.78746   0.54734   0.00000  Uiso   1.00
C146   C     0.35127   0.79769   0.46700   0.00000  Uiso   1.00
C147   C     0.31159   0.78989   0.31642   0.00000  Uiso   1.00
C148   C     0.50493   0.94436   0.80664   0.00000  Uiso   1.00
C149   C     0.46748   0.98295   0.86680   0.00000  Uiso   1.00
C150   C     0.52060   0.08260   0.93256   0.00000  Uiso   1.00
C151   C     0.57894   0.23967   0.05144   0.00000  Uiso   1.00
C152   C     0.61971   0.94580   0.73934   0.00000  Uiso   1.00
C153   C     0.62731   0.86290   0.76092   0.00000  Uiso   1.00
C154   C     0.70993   0.84451   0.78371   0.00000  Uiso   1.00
C155   C     0.70203   0.76508   0.80100   0.00000  Uiso   1.00
C156   C     0.52920   0.89702   0.63840   0.00000  Uiso   1.00
C157   C     0.52933   0.90734   0.55817   0.00000  Uiso   1.00
C158   C     0.43884   0.85665   0.47233   0.00000  Uiso   1.00
C159   C     0.59234   0.00322   0.81196   0.00000  Uiso   1.00
C160   C     0.64553   0.10283   0.87763   0.00000  Uiso   1.00
C161   C     0.60817   0.14156   0.93789   0.00000  Uiso   1.00
H162   H     0.39073   0.79162   0.72540   0.00000  Uiso   1.00
H163   H     0.46422   0.67909   0.76874   0.00000  Uiso   1.00
H164   H     0.28365   0.74193   0.54325   0.00000  Uiso   1.00
H165   H     0.39983   0.93738   0.86266   0.00000  Uiso   1.00
H166   H     0.58424   0.58027   0.81910   0.00000  Uiso   1.00
H167   H     0.20348   0.71278   0.34365   0.00000  Uiso   1.00
H168   H     0.44847   0.12494   0.01719   0.00000  Uiso   1.00
H169   H     0.68776   0.99162   0.74348   0.00000  Uiso   1.00
H170   H     0.77756   0.89007   0.78782   0.00000  Uiso   1.00
H171   H     0.59698   0.95290   0.56232   0.00000  Uiso   1.00
H172   H     0.71316   0.14835   0.88173   0.00000  Uiso   1.00
H173   H     0.83855   0.75150   0.83458   0.00000  Uiso   1.00
H174   H     0.45779   0.88401   0.35913   0.00000  Uiso   1.00
H175   H     0.70278   0.29617   0.03267   0.00000  Uiso   1.00
O176   O     0.76510   0.59545   0.85565   0.00000  Uiso   1.00
O177   O     0.26555   0.76931   0.23189   0.00000  Uiso   1.00
O178   O     0.58698   0.31005   0.11556   0.00000  Uiso   1.00
N179   N     0.63178   0.63452   0.81668   0.00000  Uiso   1.00
N180   N     0.27579   0.75839   0.37216   0.00000  Uiso   1.00
N181   N     0.50482   0.14373   0.00184   0.00000  Uiso   1.00
N182   N     0.76862   0.72666   0.82501   0.00000  Uiso   1.00
N183   N     0.41263   0.85053   0.38049   0.00000  Uiso   1.00
N184   N     0.64167   0.23587   0.01017   0.00000  Uiso   1.00
C185   C     0.27048   0.37615   0.54017   0.00000  Uiso   1.00
C186   C     0.22340   0.26817   0.46544   0.00000  Uiso   1.00
C187   C     0.25536   0.20005   0.47848   0.00000  Uiso   1.00
C188   C     0.20230   0.10489   0.40135   0.00000  Uiso   1.00
C189   C     0.14165   0.94117   0.29857   0.00000  Uiso   1.00
C190   C     0.18711   0.39370   0.55669   0.00000  Uiso   1.00
C191   C     0.18857   0.43113   0.64646   0.00000  Uiso   1.00
C192   C     0.10497   0.44166   0.64614   0.00000  Uiso   1.00
C193   C     0.98801   0.47289   0.68503   0.00000  Uiso   1.00
C194   C     0.29740   0.43378   0.48861   0.00000  Uiso   1.00
C195   C     0.39159   0.50493   0.52116   0.00000  Uiso   1.00
C196   C     0.40084   0.54922   0.46353   0.00000  Uiso   1.00
C197   C     0.45512   0.64268   0.39673   0.00000  Uiso   1.00
C198   C     0.11942   0.32829   0.37998   0.00000  Uiso   1.00
C199   C     0.14135   0.24218   0.37843   0.00000  Uiso   1.00
C200   C     0.08823   0.14710   0.30125   0.00000  Uiso   1.00
C201   C     0.12010   0.07885   0.31418   0.00000  Uiso   1.00
C202   C     0.10506   0.36771   0.46968   0.00000  Uiso   1.00
C203   C     0.02144   0.37818   0.46923   0.00000  Uiso   1.00
C204   C     0.02277   0.41562   0.55897   0.00000  Uiso   1.00
C205   C     0.21535   0.40778   0.40160   0.00000  Uiso   1.00
C206   C     0.22445   0.45198   0.34392   0.00000  Uiso   1.00
C207   C     0.31864   0.52318   0.37637   0.00000  Uiso   1.00
H208   H     0.33436   0.39639   0.60791   0.00000  Uiso   1.00
H209   H     0.31886   0.22019   0.54584   0.00000  Uiso   1.00
H210   H     0.25209   0.45125   0.71378   0.00000  Uiso   1.00
H211   H     0.45507   0.52503   0.58849   0.00000  Uiso   1.00
H212   H     0.26547   0.01338   0.43866   0.00000  Uiso   1.00
H213   H     0.12468   0.50060   0.79278   0.00000  Uiso   1.00
H214   H     0.55272   0.65619   0.52859   0.00000  Uiso   1.00
H215   H     0.05553   0.30805   0.31224   0.00000  Uiso   1.00
H216   H     0.02473   0.12700   0.23393   0.00000  Uiso   1.00
H217   H     0.95796   0.35806   0.40188   0.00000  Uiso   1.00
H218   H     0.16094   0.43184   0.27659   0.00000  Uiso   1.00
H219   H     0.02674   0.93774   0.18550   0.00000  Uiso   1.00
H220   H     0.88596   0.42497   0.53963   0.00000  Uiso   1.00
H221   H     0.31399   0.58055   0.27544   0.00000  Uiso   1.00
O222   O     0.13085   0.85805   0.26592   0.00000  Uiso   1.00
O223   O     0.94616   0.49729   0.73052   0.00000  Uiso   1.00
O224   O     0.50773   0.70141   0.38391   0.00000  Uiso   1.00
N225   N     0.21352   0.02042   0.38981   0.00000  Uiso   1.00
N226   N     0.08189   0.47594   0.72090   0.00000  Uiso   1.00
N227   N     0.48206   0.62142   0.47392   0.00000  Uiso   1.00
N228   N     0.08506   0.97973   0.25360   0.00000  Uiso   1.00
N229   N     0.95343   0.43524   0.58468   0.00000  Uiso   1.00
N230   N     0.35360   0.58072   0.33770   0.00000  Uiso   1.00
C231   C     0.27362   0.10861   0.73134   0.00000  Uiso   1.00
C232   C     0.25010   0.05084   0.78385   0.00000  Uiso   1.00
C233   C     0.23898   0.95604   0.75822   0.00000  Uiso   1.00
C234   C     0.21759   0.91607   0.81552   0.00000  Uiso   1.00
C235   C     0.18263   0.81831   0.88491   0.00000  Uiso   1.00
C236   C     0.36800   0.20322   0.80910   0.00000  Uiso   1.00
C237   C     0.45600   0.23654   0.80469   0.00000  Uiso   1.00
C238   C     0.53385   0.32486   0.88324   0.00000  Uiso   1.00
C239   C     0.68191   0.46371   0.99180   0.00000  Uiso   1.00
C240   C     0.19027   0.13867   0.70205   0.00000  Uiso   1.00
C241   C     0.12883   0.11775   0.60762   0.00000  Uiso   1.00
C242   C     0.05705   0.15174   0.59605   0.00000  Uiso   1.00
C243   C     0.92915   0.19037   0.53839   0.00000  Uiso   1.00
C244   C     0.25540   0.20620   0.87869   0.00000  Uiso   1.00
C245   C     0.24021   0.10385   0.86388   0.00000  Uiso   1.00
C246   C     0.21882   0.06401   0.92124   0.00000  Uiso   1.00
C247   C     0.20767   0.96917   0.89569   0.00000  Uiso   1.00
C248   C     0.35811   0.25622   0.88913   0.00000  Uiso   1.00
C249   C     0.43584   0.34451   0.96771   0.00000  Uiso   1.00
C250   C     0.52394   0.37796   0.96342   0.00000  Uiso   1.00
C251   C     0.18037   0.19168   0.78208   0.00000  Uiso   1.00
C252   C     0.10867   0.22571   0.77065   0.00000  Uiso   1.00
C253   C     0.04714   0.20484   0.67623   0.00000  Uiso   1.00
H254   H     0.28133   0.06735   0.66903   0.00000  Uiso   1.00
H255   H     0.24665   0.91505   0.69628   0.00000  Uiso   1.00
H256   H     0.46363   0.19551   0.74274   0.00000  Uiso   1.00
H257   H     0.13651   0.07673   0.54571   0.00000  Uiso   1.00
H258   H     0.20389   0.76957   0.76180   0.00000  Uiso   1.00
H259   H     0.66139   0.36097   0.85975   0.00000  Uiso   1.00
H260   H     0.97159   0.11050   0.44427   0.00000  Uiso   1.00
H261   H     0.24769   0.24747   0.94100   0.00000  Uiso   1.00
H262   H     0.21117   0.10504   0.98317   0.00000  Uiso   1.00
H263   H     0.42816   0.38551   0.02963   0.00000  Uiso   1.00
H264   H     0.10103   0.26673   0.83260   0.00000  Uiso   1.00
H265   H     0.17509   0.92379   0.99466   0.00000  Uiso   1.00
H266   H     0.63260   0.51518   0.09260   0.00000  Uiso   1.00
H267   H     0.94280   0.26471   0.67713   0.00000  Uiso   1.00
O268   O     0.16610   0.74975   0.90108   0.00000  Uiso   1.00
O269   O     0.76632   0.52564   0.02957   0.00000  Uiso   1.00
O270   O     0.86132   0.19702   0.48448   0.00000  Uiso   1.00
N271   N     0.20210   0.82541   0.81081   0.00000  Uiso   1.00
N272   N     0.62985   0.37832   0.90239   0.00000  Uiso   1.00
N273   N     0.98496   0.14417   0.51396   0.00000  Uiso   1.00
N274   N     0.18660   0.90839   0.93610   0.00000  Uiso   1.00
N275   N     0.61435   0.46130   0.02768   0.00000  Uiso   1.00
N276   N     0.96946   0.22715   0.63925   0.00000  Uiso   1.00
