data_job_00984
_audit_creation_date              2018-12-19
_audit_creation_method            'Materials Studio'
_symmetry_space_group_name_H-M    'P1'
_symmetry_Int_Tables_number       1
_symmetry_cell_setting            triclinic
loop_
_symmetry_equiv_pos_as_xyz
  x,y,z
_cell_length_a                    12.8253
_cell_length_b                    35.9299
_cell_length_c                    11.8041
_cell_angle_alpha                 90.0000
_cell_angle_beta                  90.0000
_cell_angle_gamma                 90.0000
loop_
_atom_site_label
_atom_site_type_symbol
_atom_site_fract_x
_atom_site_fract_y
_atom_site_fract_z
_atom_site_U_iso_or_equiv
_atom_site_adp_type
_atom_site_occupancy
C1     C     0.88744   0.60812   0.27752   0.00000  Uiso   1.00
C2     C     0.99137   0.60117   0.21843   0.00000  Uiso   1.00
C3     C     0.02211   0.56800   0.16829   0.00000  Uiso   1.00
C4     C     0.12022   0.56727   0.11865   0.00000  Uiso   1.00
C5     C     0.27173   0.55170   0.02686   0.00000  Uiso   1.00
C6     C     0.91425   0.62121   0.39690   0.00000  Uiso   1.00
C7     C     0.88013   0.60490   0.49682   0.00000  Uiso   1.00
C8     C     0.91332   0.62105   0.59742   0.00000  Uiso   1.00
C9     C     0.94503   0.63662   0.78272   0.00000  Uiso   1.00
C10    C     0.83867   0.64151   0.21791   0.00000  Uiso   1.00
C11    C     0.74100   0.64226   0.16736   0.00000  Uiso   1.00
C12    C     0.71055   0.67549   0.11728   0.00000  Uiso   1.00
C13    C     0.62492   0.72257   0.02467   0.00000  Uiso   1.00
C14    C     0.00703   0.66580   0.27851   0.00000  Uiso   1.00
C15    C     0.05632   0.63250   0.21897   0.00000  Uiso   1.00
C16    C     0.15442   0.63182   0.16938   0.00000  Uiso   1.00
C17    C     0.18529   0.59865   0.11918   0.00000  Uiso   1.00
C18    C     0.97920   0.65254   0.39744   0.00000  Uiso   1.00
C19    C     0.01244   0.66872   0.49792   0.00000  Uiso   1.00
C20    C     0.97839   0.65243   0.59796   0.00000  Uiso   1.00
C21    C     0.90363   0.67284   0.21845   0.00000  Uiso   1.00
C22    C     0.87331   0.70608   0.16845   0.00000  Uiso   1.00
C23    C     0.77562   0.70688   0.11782   0.00000  Uiso   1.00
H24    H     0.83688   0.58373   0.27711   0.00000  Uiso   1.00
H25    H     0.97182   0.54376   0.16790   0.00000  Uiso   1.00
H26    H     0.82986   0.58066   0.49638   0.00000  Uiso   1.00
H27    H     0.69076   0.61801   0.16696   0.00000  Uiso   1.00
H28    H     0.15010   0.51326   0.04710   0.00000  Uiso   1.00
H29    H     0.85073   0.59107   0.73972   0.00000  Uiso   1.00
H30    H     0.55740   0.66983   0.04508   0.00000  Uiso   1.00
H31    H     0.05760   0.69019   0.27893   0.00000  Uiso   1.00
H32    H     0.20466   0.65607   0.16981   0.00000  Uiso   1.00
H33    H     0.06270   0.69296   0.49830   0.00000  Uiso   1.00
H34    H     0.92360   0.73032   0.16888   0.00000  Uiso   1.00
H35    H     0.33908   0.60441   0.04866   0.00000  Uiso   1.00
H36    H     0.03971   0.68222   0.74128   0.00000  Uiso   1.00
H37    H     0.74639   0.76099   0.04663   0.00000  Uiso   1.00
O38    O     0.33736   0.53446   0.97610   0.00000  Uiso   1.00
O39    O     0.94459   0.63654   0.88479   0.00000  Uiso   1.00
O40    O     0.55975   0.73988   0.97343   0.00000  Uiso   1.00
N41    N     0.17438   0.53940   0.06242   0.00000  Uiso   1.00
N42    N     0.89451   0.61214   0.70998   0.00000  Uiso   1.00
N43    N     0.62026   0.68578   0.06057   0.00000  Uiso   1.00
N44    N     0.27607   0.58844   0.06326   0.00000  Uiso   1.00
N45    N     0.99620   0.66119   0.71081   0.00000  Uiso   1.00
N46    N     0.72195   0.73483   0.06141   0.00000  Uiso   1.00
C47    C     0.61256   0.39188   0.27752   0.00000  Uiso   1.00
C48    C     0.50863   0.39883   0.21843   0.00000  Uiso   1.00
C49    C     0.47789   0.43200   0.16829   0.00000  Uiso   1.00
C50    C     0.37978   0.43273   0.11865   0.00000  Uiso   1.00
C51    C     0.22827   0.44830   0.02686   0.00000  Uiso   1.00
C52    C     0.58575   0.37879   0.39690   0.00000  Uiso   1.00
C53    C     0.61987   0.39510   0.49682   0.00000  Uiso   1.00
C54    C     0.58668   0.37895   0.59742   0.00000  Uiso   1.00
C55    C     0.55497   0.36338   0.78272   0.00000  Uiso   1.00
C56    C     0.66133   0.35849   0.21791   0.00000  Uiso   1.00
C57    C     0.75900   0.35774   0.16736   0.00000  Uiso   1.00
C58    C     0.78945   0.32451   0.11728   0.00000  Uiso   1.00
C59    C     0.87508   0.27743   0.02467   0.00000  Uiso   1.00
C60    C     0.49297   0.33420   0.27851   0.00000  Uiso   1.00
C61    C     0.44368   0.36750   0.21897   0.00000  Uiso   1.00
C62    C     0.34558   0.36818   0.16938   0.00000  Uiso   1.00
C63    C     0.31471   0.40135   0.11918   0.00000  Uiso   1.00
C64    C     0.52080   0.34746   0.39744   0.00000  Uiso   1.00
C65    C     0.48756   0.33128   0.49792   0.00000  Uiso   1.00
C66    C     0.52161   0.34757   0.59796   0.00000  Uiso   1.00
C67    C     0.59637   0.32716   0.21845   0.00000  Uiso   1.00
C68    C     0.62669   0.29392   0.16845   0.00000  Uiso   1.00
C69    C     0.72438   0.29312   0.11782   0.00000  Uiso   1.00
H70    H     0.66312   0.41627   0.27711   0.00000  Uiso   1.00
H71    H     0.52818   0.45624   0.16790   0.00000  Uiso   1.00
H72    H     0.67014   0.41934   0.49638   0.00000  Uiso   1.00
H73    H     0.80924   0.38199   0.16696   0.00000  Uiso   1.00
H74    H     0.34990   0.48674   0.04710   0.00000  Uiso   1.00
H75    H     0.64927   0.40893   0.73972   0.00000  Uiso   1.00
H76    H     0.94260   0.33017   0.04508   0.00000  Uiso   1.00
H77    H     0.44240   0.30981   0.27893   0.00000  Uiso   1.00
H78    H     0.29534   0.34393   0.16981   0.00000  Uiso   1.00
H79    H     0.43730   0.30704   0.49830   0.00000  Uiso   1.00
H80    H     0.57640   0.26968   0.16888   0.00000  Uiso   1.00
H81    H     0.16092   0.39559   0.04866   0.00000  Uiso   1.00
H82    H     0.46029   0.31778   0.74128   0.00000  Uiso   1.00
H83    H     0.75361   0.23901   0.04663   0.00000  Uiso   1.00
O84    O     0.16264   0.46554   0.97610   0.00000  Uiso   1.00
O85    O     0.55541   0.36346   0.88479   0.00000  Uiso   1.00
O86    O     0.94025   0.26012   0.97343   0.00000  Uiso   1.00
N87    N     0.32562   0.46060   0.06242   0.00000  Uiso   1.00
N88    N     0.60549   0.38786   0.70998   0.00000  Uiso   1.00
N89    N     0.87974   0.31422   0.06057   0.00000  Uiso   1.00
N90    N     0.22393   0.41156   0.06326   0.00000  Uiso   1.00
N91    N     0.50380   0.33881   0.71081   0.00000  Uiso   1.00
N92    N     0.77805   0.26517   0.06141   0.00000  Uiso   1.00
C93    C     0.61256   0.10812   0.22248   0.00000  Uiso   1.00
C94    C     0.50863   0.10117   0.28157   0.00000  Uiso   1.00
C95    C     0.47789   0.06800   0.33171   0.00000  Uiso   1.00
C96    C     0.37978   0.06727   0.38135   0.00000  Uiso   1.00
C97    C     0.22827   0.05170   0.47314   0.00000  Uiso   1.00
C98    C     0.58575   0.12121   0.10310   0.00000  Uiso   1.00
C99    C     0.61987   0.10490   0.00318   0.00000  Uiso   1.00
C100   C     0.58668   0.12105   0.90258   0.00000  Uiso   1.00
C101   C     0.55497   0.13662   0.71728   0.00000  Uiso   1.00
C102   C     0.66133   0.14151   0.28209   0.00000  Uiso   1.00
C103   C     0.75900   0.14226   0.33264   0.00000  Uiso   1.00
C104   C     0.78945   0.17549   0.38272   0.00000  Uiso   1.00
C105   C     0.87508   0.22257   0.47533   0.00000  Uiso   1.00
C106   C     0.49297   0.16580   0.22149   0.00000  Uiso   1.00
C107   C     0.44368   0.13250   0.28103   0.00000  Uiso   1.00
C108   C     0.34558   0.13182   0.33062   0.00000  Uiso   1.00
C109   C     0.31471   0.09865   0.38082   0.00000  Uiso   1.00
C110   C     0.52080   0.15254   0.10256   0.00000  Uiso   1.00
C111   C     0.48756   0.16872   0.00208   0.00000  Uiso   1.00
C112   C     0.52161   0.15243   0.90204   0.00000  Uiso   1.00
C113   C     0.59637   0.17284   0.28155   0.00000  Uiso   1.00
C114   C     0.62669   0.20608   0.33155   0.00000  Uiso   1.00
C115   C     0.72438   0.20688   0.38218   0.00000  Uiso   1.00
H116   H     0.66312   0.08373   0.22289   0.00000  Uiso   1.00
H117   H     0.52818   0.04376   0.33210   0.00000  Uiso   1.00
H118   H     0.67014   0.08066   0.00362   0.00000  Uiso   1.00
H119   H     0.80924   0.11801   0.33304   0.00000  Uiso   1.00
H120   H     0.34990   0.01326   0.45290   0.00000  Uiso   1.00
H121   H     0.64927   0.09107   0.76028   0.00000  Uiso   1.00
H122   H     0.94260   0.16983   0.45492   0.00000  Uiso   1.00
H123   H     0.44240   0.19019   0.22107   0.00000  Uiso   1.00
H124   H     0.29534   0.15607   0.33019   0.00000  Uiso   1.00
H125   H     0.43730   0.19296   0.00170   0.00000  Uiso   1.00
H126   H     0.57640   0.23032   0.33112   0.00000  Uiso   1.00
H127   H     0.16092   0.10441   0.45134   0.00000  Uiso   1.00
H128   H     0.46029   0.18222   0.75872   0.00000  Uiso   1.00
H129   H     0.75361   0.26099   0.45337   0.00000  Uiso   1.00
O130   O     0.16264   0.03446   0.52390   0.00000  Uiso   1.00
O131   O     0.55541   0.13654   0.61521   0.00000  Uiso   1.00
O132   O     0.94025   0.23988   0.52657   0.00000  Uiso   1.00
N133   N     0.32562   0.03940   0.43758   0.00000  Uiso   1.00
N134   N     0.60549   0.11214   0.79002   0.00000  Uiso   1.00
N135   N     0.87974   0.18578   0.43943   0.00000  Uiso   1.00
N136   N     0.22393   0.08844   0.43674   0.00000  Uiso   1.00
N137   N     0.50380   0.16119   0.78919   0.00000  Uiso   1.00
N138   N     0.77805   0.23483   0.43859   0.00000  Uiso   1.00
C139   C     0.88744   0.89188   0.22248   0.00000  Uiso   1.00
C140   C     0.99137   0.89883   0.28157   0.00000  Uiso   1.00
C141   C     0.02211   0.93200   0.33171   0.00000  Uiso   1.00
C142   C     0.12022   0.93273   0.38135   0.00000  Uiso   1.00
C143   C     0.27173   0.94830   0.47314   0.00000  Uiso   1.00
C144   C     0.91425   0.87879   0.10310   0.00000  Uiso   1.00
C145   C     0.88013   0.89510   0.00318   0.00000  Uiso   1.00
C146   C     0.91332   0.87895   0.90258   0.00000  Uiso   1.00
C147   C     0.94503   0.86338   0.71728   0.00000  Uiso   1.00
C148   C     0.83867   0.85849   0.28209   0.00000  Uiso   1.00
C149   C     0.74100   0.85774   0.33264   0.00000  Uiso   1.00
C150   C     0.71055   0.82451   0.38272   0.00000  Uiso   1.00
C151   C     0.62492   0.77743   0.47533   0.00000  Uiso   1.00
C152   C     0.00703   0.83420   0.22149   0.00000  Uiso   1.00
C153   C     0.05632   0.86750   0.28103   0.00000  Uiso   1.00
C154   C     0.15442   0.86818   0.33062   0.00000  Uiso   1.00
C155   C     0.18529   0.90135   0.38082   0.00000  Uiso   1.00
C156   C     0.97920   0.84746   0.10256   0.00000  Uiso   1.00
C157   C     0.01244   0.83128   0.00208   0.00000  Uiso   1.00
C158   C     0.97839   0.84757   0.90204   0.00000  Uiso   1.00
C159   C     0.90363   0.82716   0.28155   0.00000  Uiso   1.00
C160   C     0.87331   0.79392   0.33155   0.00000  Uiso   1.00
C161   C     0.77562   0.79312   0.38218   0.00000  Uiso   1.00
H162   H     0.83688   0.91627   0.22289   0.00000  Uiso   1.00
H163   H     0.97182   0.95624   0.33210   0.00000  Uiso   1.00
H164   H     0.82986   0.91934   0.00362   0.00000  Uiso   1.00
H165   H     0.69076   0.88199   0.33304   0.00000  Uiso   1.00
H166   H     0.15010   0.98674   0.45290   0.00000  Uiso   1.00
H167   H     0.85073   0.90893   0.76028   0.00000  Uiso   1.00
H168   H     0.55740   0.83017   0.45492   0.00000  Uiso   1.00
H169   H     0.05760   0.80981   0.22107   0.00000  Uiso   1.00
H170   H     0.20466   0.84393   0.33019   0.00000  Uiso   1.00
H171   H     0.06270   0.80704   0.00170   0.00000  Uiso   1.00
H172   H     0.92360   0.76968   0.33112   0.00000  Uiso   1.00
H173   H     0.33908   0.89559   0.45134   0.00000  Uiso   1.00
H174   H     0.03971   0.81778   0.75872   0.00000  Uiso   1.00
H175   H     0.74639   0.73901   0.45337   0.00000  Uiso   1.00
O176   O     0.33736   0.96554   0.52390   0.00000  Uiso   1.00
O177   O     0.94459   0.86346   0.61521   0.00000  Uiso   1.00
O178   O     0.55975   0.76012   0.52657   0.00000  Uiso   1.00
N179   N     0.17438   0.96060   0.43758   0.00000  Uiso   1.00
N180   N     0.89451   0.88786   0.79002   0.00000  Uiso   1.00
N181   N     0.62026   0.81422   0.43943   0.00000  Uiso   1.00
N182   N     0.27607   0.91156   0.43674   0.00000  Uiso   1.00
N183   N     0.99620   0.83881   0.78919   0.00000  Uiso   1.00
N184   N     0.72195   0.76517   0.43859   0.00000  Uiso   1.00
C185   C     0.11256   0.39188   0.72248   0.00000  Uiso   1.00
C186   C     0.00863   0.39883   0.78157   0.00000  Uiso   1.00
C187   C     0.97789   0.43200   0.83171   0.00000  Uiso   1.00
C188   C     0.87978   0.43273   0.88135   0.00000  Uiso   1.00
C189   C     0.72827   0.44830   0.97314   0.00000  Uiso   1.00
C190   C     0.08575   0.37879   0.60310   0.00000  Uiso   1.00
C191   C     0.11987   0.39510   0.50318   0.00000  Uiso   1.00
C192   C     0.08668   0.37895   0.40258   0.00000  Uiso   1.00
C193   C     0.05497   0.36338   0.21728   0.00000  Uiso   1.00
C194   C     0.16133   0.35849   0.78209   0.00000  Uiso   1.00
C195   C     0.25900   0.35774   0.83264   0.00000  Uiso   1.00
C196   C     0.28945   0.32451   0.88272   0.00000  Uiso   1.00
C197   C     0.37508   0.27743   0.97533   0.00000  Uiso   1.00
C198   C     0.99297   0.33420   0.72149   0.00000  Uiso   1.00
C199   C     0.94368   0.36750   0.78103   0.00000  Uiso   1.00
C200   C     0.84558   0.36818   0.83062   0.00000  Uiso   1.00
C201   C     0.81471   0.40135   0.88082   0.00000  Uiso   1.00
C202   C     0.02080   0.34746   0.60256   0.00000  Uiso   1.00
C203   C     0.98756   0.33128   0.50208   0.00000  Uiso   1.00
C204   C     0.02161   0.34757   0.40204   0.00000  Uiso   1.00
C205   C     0.09637   0.32716   0.78155   0.00000  Uiso   1.00
C206   C     0.12669   0.29392   0.83155   0.00000  Uiso   1.00
C207   C     0.22438   0.29312   0.88218   0.00000  Uiso   1.00
H208   H     0.16312   0.41627   0.72289   0.00000  Uiso   1.00
H209   H     0.02818   0.45624   0.83210   0.00000  Uiso   1.00
H210   H     0.17014   0.41934   0.50362   0.00000  Uiso   1.00
H211   H     0.30924   0.38199   0.83304   0.00000  Uiso   1.00
H212   H     0.84990   0.48674   0.95290   0.00000  Uiso   1.00
H213   H     0.14927   0.40893   0.26028   0.00000  Uiso   1.00
H214   H     0.44260   0.33017   0.95492   0.00000  Uiso   1.00
H215   H     0.94240   0.30981   0.72107   0.00000  Uiso   1.00
H216   H     0.79534   0.34393   0.83019   0.00000  Uiso   1.00
H217   H     0.93730   0.30704   0.50170   0.00000  Uiso   1.00
H218   H     0.07640   0.26968   0.83112   0.00000  Uiso   1.00
H219   H     0.66092   0.39559   0.95134   0.00000  Uiso   1.00
H220   H     0.96029   0.31778   0.25872   0.00000  Uiso   1.00
H221   H     0.25361   0.23901   0.95337   0.00000  Uiso   1.00
O222   O     0.66264   0.46554   0.02390   0.00000  Uiso   1.00
O223   O     0.05541   0.36346   0.11521   0.00000  Uiso   1.00
O224   O     0.44025   0.26012   0.02657   0.00000  Uiso   1.00
N225   N     0.82562   0.46060   0.93758   0.00000  Uiso   1.00
N226   N     0.10549   0.38786   0.29002   0.00000  Uiso   1.00
N227   N     0.37974   0.31422   0.93943   0.00000  Uiso   1.00
N228   N     0.72393   0.41156   0.93674   0.00000  Uiso   1.00
N229   N     0.00380   0.33881   0.28919   0.00000  Uiso   1.00
N230   N     0.27805   0.26517   0.93859   0.00000  Uiso   1.00
C231   C     0.38744   0.60812   0.72248   0.00000  Uiso   1.00
C232   C     0.49137   0.60117   0.78157   0.00000  Uiso   1.00
C233   C     0.52211   0.56800   0.83171   0.00000  Uiso   1.00
C234   C     0.62022   0.56727   0.88135   0.00000  Uiso   1.00
C235   C     0.77173   0.55170   0.97314   0.00000  Uiso   1.00
C236   C     0.41425   0.62121   0.60310   0.00000  Uiso   1.00
C237   C     0.38013   0.60490   0.50318   0.00000  Uiso   1.00
C238   C     0.41332   0.62105   0.40258   0.00000  Uiso   1.00
C239   C     0.44503   0.63662   0.21728   0.00000  Uiso   1.00
C240   C     0.33867   0.64151   0.78209   0.00000  Uiso   1.00
C241   C     0.24100   0.64226   0.83264   0.00000  Uiso   1.00
C242   C     0.21055   0.67549   0.88272   0.00000  Uiso   1.00
C243   C     0.12492   0.72257   0.97533   0.00000  Uiso   1.00
C244   C     0.50703   0.66580   0.72149   0.00000  Uiso   1.00
C245   C     0.55632   0.63250   0.78103   0.00000  Uiso   1.00
C246   C     0.65442   0.63182   0.83062   0.00000  Uiso   1.00
C247   C     0.68529   0.59865   0.88082   0.00000  Uiso   1.00
C248   C     0.47920   0.65254   0.60256   0.00000  Uiso   1.00
C249   C     0.51244   0.66872   0.50208   0.00000  Uiso   1.00
C250   C     0.47839   0.65243   0.40204   0.00000  Uiso   1.00
C251   C     0.40363   0.67284   0.78155   0.00000  Uiso   1.00
C252   C     0.37331   0.70608   0.83155   0.00000  Uiso   1.00
C253   C     0.27562   0.70688   0.88218   0.00000  Uiso   1.00
H254   H     0.33688   0.58373   0.72289   0.00000  Uiso   1.00
H255   H     0.47182   0.54376   0.83210   0.00000  Uiso   1.00
H256   H     0.32986   0.58066   0.50362   0.00000  Uiso   1.00
H257   H     0.19076   0.61801   0.83304   0.00000  Uiso   1.00
H258   H     0.65010   0.51326   0.95290   0.00000  Uiso   1.00
H259   H     0.35073   0.59107   0.26028   0.00000  Uiso   1.00
H260   H     0.05740   0.66983   0.95492   0.00000  Uiso   1.00
H261   H     0.55760   0.69019   0.72107   0.00000  Uiso   1.00
H262   H     0.70466   0.65607   0.83019   0.00000  Uiso   1.00
H263   H     0.56270   0.69296   0.50170   0.00000  Uiso   1.00
H264   H     0.42360   0.73032   0.83112   0.00000  Uiso   1.00
H265   H     0.83908   0.60441   0.95134   0.00000  Uiso   1.00
H266   H     0.53971   0.68222   0.25872   0.00000  Uiso   1.00
H267   H     0.24639   0.76099   0.95337   0.00000  Uiso   1.00
O268   O     0.83736   0.53446   0.02390   0.00000  Uiso   1.00
O269   O     0.44459   0.63654   0.11521   0.00000  Uiso   1.00
O270   O     0.05975   0.73988   0.02657   0.00000  Uiso   1.00
N271   N     0.67438   0.53940   0.93758   0.00000  Uiso   1.00
N272   N     0.39451   0.61214   0.29002   0.00000  Uiso   1.00
N273   N     0.12026   0.68578   0.93943   0.00000  Uiso   1.00
N274   N     0.77607   0.58844   0.93674   0.00000  Uiso   1.00
N275   N     0.49620   0.66119   0.28919   0.00000  Uiso   1.00
N276   N     0.22195   0.73483   0.93859   0.00000  Uiso   1.00
C277   C     0.38744   0.89188   0.77752   0.00000  Uiso   1.00
C278   C     0.49137   0.89883   0.71843   0.00000  Uiso   1.00
C279   C     0.52211   0.93200   0.66829   0.00000  Uiso   1.00
C280   C     0.62022   0.93273   0.61865   0.00000  Uiso   1.00
C281   C     0.77173   0.94830   0.52686   0.00000  Uiso   1.00
C282   C     0.41425   0.87879   0.89690   0.00000  Uiso   1.00
C283   C     0.38013   0.89510   0.99682   0.00000  Uiso   1.00
C284   C     0.41332   0.87895   0.09742   0.00000  Uiso   1.00
C285   C     0.44503   0.86338   0.28272   0.00000  Uiso   1.00
C286   C     0.33867   0.85849   0.71791   0.00000  Uiso   1.00
C287   C     0.24100   0.85774   0.66736   0.00000  Uiso   1.00
C288   C     0.21055   0.82451   0.61728   0.00000  Uiso   1.00
C289   C     0.12492   0.77743   0.52467   0.00000  Uiso   1.00
C290   C     0.50703   0.83420   0.77851   0.00000  Uiso   1.00
C291   C     0.55632   0.86750   0.71897   0.00000  Uiso   1.00
C292   C     0.65442   0.86818   0.66938   0.00000  Uiso   1.00
C293   C     0.68529   0.90135   0.61918   0.00000  Uiso   1.00
C294   C     0.47920   0.84746   0.89744   0.00000  Uiso   1.00
C295   C     0.51244   0.83128   0.99792   0.00000  Uiso   1.00
C296   C     0.47839   0.84757   0.09796   0.00000  Uiso   1.00
C297   C     0.40363   0.82716   0.71845   0.00000  Uiso   1.00
C298   C     0.37331   0.79392   0.66845   0.00000  Uiso   1.00
C299   C     0.27562   0.79312   0.61782   0.00000  Uiso   1.00
H300   H     0.33688   0.91627   0.77711   0.00000  Uiso   1.00
H301   H     0.47182   0.95624   0.66790   0.00000  Uiso   1.00
H302   H     0.32986   0.91934   0.99638   0.00000  Uiso   1.00
H303   H     0.19076   0.88199   0.66696   0.00000  Uiso   1.00
H304   H     0.65010   0.98674   0.54710   0.00000  Uiso   1.00
H305   H     0.35073   0.90893   0.23972   0.00000  Uiso   1.00
H306   H     0.05740   0.83017   0.54508   0.00000  Uiso   1.00
H307   H     0.55760   0.80981   0.77893   0.00000  Uiso   1.00
H308   H     0.70466   0.84393   0.66981   0.00000  Uiso   1.00
H309   H     0.56270   0.80704   0.99830   0.00000  Uiso   1.00
H310   H     0.42360   0.76968   0.66888   0.00000  Uiso   1.00
H311   H     0.83908   0.89559   0.54866   0.00000  Uiso   1.00
H312   H     0.53971   0.81778   0.24128   0.00000  Uiso   1.00
H313   H     0.24639   0.73901   0.54663   0.00000  Uiso   1.00
O314   O     0.83736   0.96554   0.47610   0.00000  Uiso   1.00
O315   O     0.44459   0.86346   0.38479   0.00000  Uiso   1.00
O316   O     0.05975   0.76012   0.47343   0.00000  Uiso   1.00
N317   N     0.67438   0.96060   0.56242   0.00000  Uiso   1.00
N318   N     0.39451   0.88786   0.20998   0.00000  Uiso   1.00
N319   N     0.12026   0.81422   0.56057   0.00000  Uiso   1.00
N320   N     0.77607   0.91156   0.56326   0.00000  Uiso   1.00
N321   N     0.49620   0.83881   0.21081   0.00000  Uiso   1.00
N322   N     0.22195   0.76517   0.56141   0.00000  Uiso   1.00
C323   C     0.11256   0.10812   0.77752   0.00000  Uiso   1.00
C324   C     0.00863   0.10117   0.71843   0.00000  Uiso   1.00
C325   C     0.97789   0.06800   0.66829   0.00000  Uiso   1.00
C326   C     0.87978   0.06727   0.61865   0.00000  Uiso   1.00
C327   C     0.72827   0.05170   0.52686   0.00000  Uiso   1.00
C328   C     0.08575   0.12121   0.89690   0.00000  Uiso   1.00
C329   C     0.11987   0.10490   0.99682   0.00000  Uiso   1.00
C330   C     0.08668   0.12105   0.09742   0.00000  Uiso   1.00
C331   C     0.05497   0.13662   0.28272   0.00000  Uiso   1.00
C332   C     0.16133   0.14151   0.71791   0.00000  Uiso   1.00
C333   C     0.25900   0.14226   0.66736   0.00000  Uiso   1.00
C334   C     0.28945   0.17549   0.61728   0.00000  Uiso   1.00
C335   C     0.37508   0.22257   0.52467   0.00000  Uiso   1.00
C336   C     0.99297   0.16580   0.77851   0.00000  Uiso   1.00
C337   C     0.94368   0.13250   0.71897   0.00000  Uiso   1.00
C338   C     0.84558   0.13182   0.66938   0.00000  Uiso   1.00
C339   C     0.81471   0.09865   0.61918   0.00000  Uiso   1.00
C340   C     0.02080   0.15254   0.89744   0.00000  Uiso   1.00
C341   C     0.98756   0.16872   0.99792   0.00000  Uiso   1.00
C342   C     0.02161   0.15243   0.09796   0.00000  Uiso   1.00
C343   C     0.09637   0.17284   0.71845   0.00000  Uiso   1.00
C344   C     0.12669   0.20608   0.66845   0.00000  Uiso   1.00
C345   C     0.22438   0.20688   0.61782   0.00000  Uiso   1.00
H346   H     0.16312   0.08373   0.77711   0.00000  Uiso   1.00
H347   H     0.02818   0.04376   0.66790   0.00000  Uiso   1.00
H348   H     0.17014   0.08066   0.99638   0.00000  Uiso   1.00
H349   H     0.30924   0.11801   0.66696   0.00000  Uiso   1.00
H350   H     0.84990   0.01326   0.54710   0.00000  Uiso   1.00
H351   H     0.14927   0.09107   0.23972   0.00000  Uiso   1.00
H352   H     0.44260   0.16983   0.54508   0.00000  Uiso   1.00
H353   H     0.94240   0.19019   0.77893   0.00000  Uiso   1.00
H354   H     0.79534   0.15607   0.66981   0.00000  Uiso   1.00
H355   H     0.93730   0.19296   0.99830   0.00000  Uiso   1.00
H356   H     0.07640   0.23032   0.66888   0.00000  Uiso   1.00
H357   H     0.66092   0.10441   0.54866   0.00000  Uiso   1.00
H358   H     0.96029   0.18222   0.24128   0.00000  Uiso   1.00
H359   H     0.25361   0.26099   0.54663   0.00000  Uiso   1.00
O360   O     0.66264   0.03446   0.47610   0.00000  Uiso   1.00
O361   O     0.05541   0.13654   0.38479   0.00000  Uiso   1.00
O362   O     0.44025   0.23988   0.47343   0.00000  Uiso   1.00
N363   N     0.82562   0.03940   0.56242   0.00000  Uiso   1.00
N364   N     0.10549   0.11214   0.20998   0.00000  Uiso   1.00
N365   N     0.37974   0.18578   0.56057   0.00000  Uiso   1.00
N366   N     0.72393   0.08844   0.56326   0.00000  Uiso   1.00
N367   N     0.00380   0.16119   0.21081   0.00000  Uiso   1.00
N368   N     0.27805   0.23483   0.56141   0.00000  Uiso   1.00
