data_job_03160
_audit_creation_date              2018-12-19
_audit_creation_method            'Materials Studio'
_symmetry_space_group_name_H-M    'P1'
_symmetry_Int_Tables_number       1
_symmetry_cell_setting            triclinic
loop_
_symmetry_equiv_pos_as_xyz
  x,y,z
_cell_length_a                    13.0604
_cell_length_b                    13.0604
_cell_length_c                    22.6942
_cell_angle_alpha                 90.0000
_cell_angle_beta                  90.0000
_cell_angle_gamma                 120.0000
loop_
_atom_site_label
_atom_site_type_symbol
_atom_site_fract_x
_atom_site_fract_y
_atom_site_fract_z
_atom_site_U_iso_or_equiv
_atom_site_adp_type
_atom_site_occupancy
C1     C     0.30750   0.53467   0.35753   0.00000  Uiso   1.00
C2     C     0.25094   0.42630   0.31758   0.00000  Uiso   1.00
C3     C     0.22438   0.42584   0.25834   0.00000  Uiso   1.00
C4     C     0.17280   0.31761   0.22952   0.00000  Uiso   1.00
C5     C     0.08858   0.16514   0.16302   0.00000  Uiso   1.00
C6     C     0.22289   0.50634   0.40923   0.00000  Uiso   1.00
C7     C     0.17276   0.57320   0.42704   0.00000  Uiso   1.00
C8     C     0.09759   0.53234   0.47537   0.00000  Uiso   1.00
C9     C     0.96989   0.50419   0.55117   0.00000  Uiso   1.00
C10    C     0.41827   0.54019   0.38291   0.00000  Uiso   1.00
C11    C     0.53242   0.63553   0.37861   0.00000  Uiso   1.00
C12    C     0.62173   0.62319   0.40480   0.00000  Uiso   1.00
C13    C     0.79739   0.64760   0.43974   0.00000  Uiso   1.00
C14    C     0.26314   0.34326   0.41170   0.00000  Uiso   1.00
C15    C     0.22684   0.32233   0.34700   0.00000  Uiso   1.00
C16    C     0.17530   0.21407   0.31826   0.00000  Uiso   1.00
C17    C     0.14867   0.21345   0.25899   0.00000  Uiso   1.00
C18    C     0.19879   0.40238   0.43865   0.00000  Uiso   1.00
C19    C     0.12368   0.36142   0.48696   0.00000  Uiso   1.00
C20    C     0.07345   0.42819   0.50484   0.00000  Uiso   1.00
C21    C     0.39418   0.43623   0.41233   0.00000  Uiso   1.00
C22    C     0.48333   0.42375   0.43853   0.00000  Uiso   1.00
C23    C     0.59759   0.51904   0.43427   0.00000  Uiso   1.00
H24    H     0.32626   0.61561   0.33463   0.00000  Uiso   1.00
H25    H     0.24303   0.50632   0.23559   0.00000  Uiso   1.00
H26    H     0.19143   0.65365   0.40427   0.00000  Uiso   1.00
H27    H     0.55103   0.71596   0.35584   0.00000  Uiso   1.00
H28    H     0.14008   0.33929   0.13876   0.00000  Uiso   1.00
H29    H     0.03133   0.64998   0.49444   0.00000  Uiso   1.00
H30    H     0.78960   0.78138   0.39233   0.00000  Uiso   1.00
H31    H     0.24438   0.26231   0.43460   0.00000  Uiso   1.00
H32    H     0.15666   0.13363   0.34104   0.00000  Uiso   1.00
H33    H     0.10506   0.28097   0.50972   0.00000  Uiso   1.00
H34    H     0.46466   0.34328   0.46130   0.00000  Uiso   1.00
H35    H     0.06998   0.03680   0.22435   0.00000  Uiso   1.00
H36    H     0.96123   0.34749   0.58003   0.00000  Uiso   1.00
H37    H     0.71950   0.47889   0.47792   0.00000  Uiso   1.00
O38    O     0.04877   0.10976   0.11821   0.00000  Uiso   1.00
O39    O     0.90610   0.51738   0.58485   0.00000  Uiso   1.00
O40    O     0.90094   0.68978   0.45088   0.00000  Uiso   1.00
N41    N     0.13565   0.28576   0.17174   0.00000  Uiso   1.00
N42    N     0.03395   0.57623   0.50427   0.00000  Uiso   1.00
N43    N     0.74287   0.69909   0.40882   0.00000  Uiso   1.00
N44    N     0.09793   0.12299   0.21780   0.00000  Uiso   1.00
N45    N     0.99623   0.41346   0.55033   0.00000  Uiso   1.00
N46    N     0.70515   0.53632   0.45488   0.00000  Uiso   1.00
C47    C     0.46533   0.77284   0.02420   0.00000  Uiso   1.00
C48    C     0.57370   0.82464   0.98425   0.00000  Uiso   1.00
C49    C     0.57416   0.79854   0.92501   0.00000  Uiso   1.00
C50    C     0.68239   0.85519   0.89619   0.00000  Uiso   1.00
C51    C     0.83486   0.92344   0.82968   0.00000  Uiso   1.00
C52    C     0.49366   0.71655   0.07589   0.00000  Uiso   1.00
C53    C     0.42680   0.59957   0.09371   0.00000  Uiso   1.00
C54    C     0.46766   0.56524   0.14204   0.00000  Uiso   1.00
C55    C     0.49581   0.46570   0.21784   0.00000  Uiso   1.00
C56    C     0.45981   0.87807   0.04958   0.00000  Uiso   1.00
C57    C     0.36447   0.89689   0.04528   0.00000  Uiso   1.00
C58    C     0.37681   0.99854   0.07147   0.00000  Uiso   1.00
C59    C     0.35240   0.14979   0.10641   0.00000  Uiso   1.00
C60    C     0.65674   0.91989   0.07836   0.00000  Uiso   1.00
C61    C     0.67767   0.90451   0.01367   0.00000  Uiso   1.00
C62    C     0.78593   0.96123   0.98493   0.00000  Uiso   1.00
C63    C     0.78655   0.93521   0.92566   0.00000  Uiso   1.00
C64    C     0.59762   0.79642   0.10531   0.00000  Uiso   1.00
C65    C     0.63858   0.76226   0.15363   0.00000  Uiso   1.00
C66    C     0.57181   0.64526   0.17151   0.00000  Uiso   1.00
C67    C     0.56377   0.95795   0.07900   0.00000  Uiso   1.00
C68    C     0.57625   0.05959   0.10520   0.00000  Uiso   1.00
C69    C     0.48096   0.07856   0.10094   0.00000  Uiso   1.00
H70    H     0.38439   0.71065   0.00130   0.00000  Uiso   1.00
H71    H     0.49368   0.73671   0.90226   0.00000  Uiso   1.00
H72    H     0.34635   0.53778   0.07094   0.00000  Uiso   1.00
H73    H     0.28404   0.83506   0.02251   0.00000  Uiso   1.00
H74    H     0.66071   0.80080   0.80543   0.00000  Uiso   1.00
H75    H     0.35002   0.38135   0.16111   0.00000  Uiso   1.00
H76    H     0.21862   0.00822   0.05900   0.00000  Uiso   1.00
H77    H     0.73769   0.98207   0.10127   0.00000  Uiso   1.00
H78    H     0.86637   0.02304   0.00771   0.00000  Uiso   1.00
H79    H     0.71903   0.82410   0.17639   0.00000  Uiso   1.00
H80    H     0.65672   0.12138   0.12796   0.00000  Uiso   1.00
H81    H     0.96320   0.03318   0.89102   0.00000  Uiso   1.00
H82    H     0.65251   0.61373   0.24670   0.00000  Uiso   1.00
H83    H     0.52111   0.24061   0.14459   0.00000  Uiso   1.00
O84    O     0.89024   0.93901   0.78488   0.00000  Uiso   1.00
O85    O     0.48262   0.38872   0.25152   0.00000  Uiso   1.00
O86    O     0.31022   0.21116   0.11755   0.00000  Uiso   1.00
N87    N     0.71424   0.84989   0.83841   0.00000  Uiso   1.00
N88    N     0.42377   0.45772   0.17094   0.00000  Uiso   1.00
N89    N     0.30091   0.04378   0.07549   0.00000  Uiso   1.00
N90    N     0.87701   0.97493   0.88446   0.00000  Uiso   1.00
N91    N     0.58654   0.58277   0.21700   0.00000  Uiso   1.00
N92    N     0.46368   0.16883   0.12155   0.00000  Uiso   1.00
C93    C     0.22716   0.69250   0.69087   0.00000  Uiso   1.00
C94    C     0.17536   0.74906   0.65092   0.00000  Uiso   1.00
C95    C     0.20146   0.77562   0.59167   0.00000  Uiso   1.00
C96    C     0.14481   0.82720   0.56285   0.00000  Uiso   1.00
C97    C     0.07656   0.91142   0.49635   0.00000  Uiso   1.00
C98    C     0.28345   0.77711   0.74256   0.00000  Uiso   1.00
C99    C     0.40043   0.82724   0.76037   0.00000  Uiso   1.00
C100   C     0.43476   0.90241   0.80870   0.00000  Uiso   1.00
C101   C     0.53430   0.03011   0.88451   0.00000  Uiso   1.00
C102   C     0.12193   0.58173   0.71624   0.00000  Uiso   1.00
C103   C     0.10311   0.46758   0.71195   0.00000  Uiso   1.00
C104   C     0.00146   0.37827   0.73813   0.00000  Uiso   1.00
C105   C     0.85021   0.20261   0.77308   0.00000  Uiso   1.00
C106   C     0.08011   0.73686   0.74503   0.00000  Uiso   1.00
C107   C     0.09549   0.77316   0.68034   0.00000  Uiso   1.00
C108   C     0.03877   0.82470   0.65160   0.00000  Uiso   1.00
C109   C     0.06479   0.85133   0.59232   0.00000  Uiso   1.00
C110   C     0.20358   0.80121   0.77198   0.00000  Uiso   1.00
C111   C     0.23774   0.87632   0.82030   0.00000  Uiso   1.00
C112   C     0.35474   0.92655   0.83818   0.00000  Uiso   1.00
C113   C     0.04205   0.60582   0.74566   0.00000  Uiso   1.00
C114   C     0.94041   0.51667   0.77187   0.00000  Uiso   1.00
C115   C     0.92144   0.40241   0.76761   0.00000  Uiso   1.00
H116   H     0.28935   0.67374   0.66797   0.00000  Uiso   1.00
H117   H     0.26329   0.75697   0.56892   0.00000  Uiso   1.00
H118   H     0.46222   0.80857   0.73760   0.00000  Uiso   1.00
H119   H     0.16494   0.44897   0.68918   0.00000  Uiso   1.00
H120   H     0.19920   0.85992   0.47210   0.00000  Uiso   1.00
H121   H     0.61865   0.96867   0.82777   0.00000  Uiso   1.00
H122   H     0.99178   0.21040   0.72566   0.00000  Uiso   1.00
H123   H     0.01793   0.75562   0.76794   0.00000  Uiso   1.00
H124   H     0.97696   0.84334   0.67438   0.00000  Uiso   1.00
H125   H     0.17590   0.89494   0.84305   0.00000  Uiso   1.00
H126   H     0.87862   0.53534   0.79463   0.00000  Uiso   1.00
H127   H     0.96682   0.93002   0.55768   0.00000  Uiso   1.00
H128   H     0.38627   0.03877   0.91336   0.00000  Uiso   1.00
H129   H     0.75939   0.28050   0.81125   0.00000  Uiso   1.00
O130   O     0.06099   0.95123   0.45155   0.00000  Uiso   1.00
O131   O     0.61128   0.09390   0.91819   0.00000  Uiso   1.00
O132   O     0.78884   0.09906   0.78422   0.00000  Uiso   1.00
N133   N     0.15011   0.86435   0.50508   0.00000  Uiso   1.00
N134   N     0.54228   0.96605   0.83761   0.00000  Uiso   1.00
N135   N     0.95622   0.25713   0.74216   0.00000  Uiso   1.00
N136   N     0.02507   0.90207   0.55113   0.00000  Uiso   1.00
N137   N     0.41723   0.00377   0.88366   0.00000  Uiso   1.00
N138   N     0.83117   0.29485   0.78821   0.00000  Uiso   1.00
C139   C     0.53467   0.30750   0.64247   0.00000  Uiso   1.00
C140   C     0.42630   0.25094   0.68242   0.00000  Uiso   1.00
C141   C     0.42584   0.22438   0.74166   0.00000  Uiso   1.00
C142   C     0.31761   0.17280   0.77048   0.00000  Uiso   1.00
C143   C     0.16514   0.08858   0.83698   0.00000  Uiso   1.00
C144   C     0.50634   0.22289   0.59077   0.00000  Uiso   1.00
C145   C     0.57320   0.17276   0.57296   0.00000  Uiso   1.00
C146   C     0.53234   0.09759   0.52463   0.00000  Uiso   1.00
C147   C     0.50419   0.96989   0.44883   0.00000  Uiso   1.00
C148   C     0.54019   0.41827   0.61709   0.00000  Uiso   1.00
C149   C     0.63553   0.53242   0.62139   0.00000  Uiso   1.00
C150   C     0.62319   0.62173   0.59520   0.00000  Uiso   1.00
C151   C     0.64760   0.79739   0.56026   0.00000  Uiso   1.00
C152   C     0.34326   0.26314   0.58830   0.00000  Uiso   1.00
C153   C     0.32233   0.22684   0.65300   0.00000  Uiso   1.00
C154   C     0.21407   0.17530   0.68174   0.00000  Uiso   1.00
C155   C     0.21345   0.14867   0.74101   0.00000  Uiso   1.00
C156   C     0.40238   0.19879   0.56135   0.00000  Uiso   1.00
C157   C     0.36142   0.12368   0.51304   0.00000  Uiso   1.00
C158   C     0.42819   0.07345   0.49516   0.00000  Uiso   1.00
C159   C     0.43623   0.39418   0.58767   0.00000  Uiso   1.00
C160   C     0.42375   0.48333   0.56147   0.00000  Uiso   1.00
C161   C     0.51904   0.59759   0.56573   0.00000  Uiso   1.00
H162   H     0.61561   0.32626   0.66537   0.00000  Uiso   1.00
H163   H     0.50632   0.24303   0.76441   0.00000  Uiso   1.00
H164   H     0.65365   0.19143   0.59573   0.00000  Uiso   1.00
H165   H     0.71596   0.55103   0.64416   0.00000  Uiso   1.00
H166   H     0.33929   0.14008   0.86124   0.00000  Uiso   1.00
H167   H     0.64998   0.03133   0.50556   0.00000  Uiso   1.00
H168   H     0.78138   0.78960   0.60767   0.00000  Uiso   1.00
H169   H     0.26231   0.24438   0.56540   0.00000  Uiso   1.00
H170   H     0.13363   0.15666   0.65896   0.00000  Uiso   1.00
H171   H     0.28097   0.10506   0.49028   0.00000  Uiso   1.00
H172   H     0.34328   0.46466   0.53870   0.00000  Uiso   1.00
H173   H     0.03680   0.06998   0.77565   0.00000  Uiso   1.00
H174   H     0.34749   0.96123   0.41997   0.00000  Uiso   1.00
H175   H     0.47889   0.71950   0.52208   0.00000  Uiso   1.00
O176   O     0.10976   0.04877   0.88179   0.00000  Uiso   1.00
O177   O     0.51738   0.90610   0.41515   0.00000  Uiso   1.00
O178   O     0.68978   0.90094   0.54912   0.00000  Uiso   1.00
N179   N     0.28576   0.13565   0.82826   0.00000  Uiso   1.00
N180   N     0.57623   0.03395   0.49573   0.00000  Uiso   1.00
N181   N     0.69909   0.74287   0.59118   0.00000  Uiso   1.00
N182   N     0.12299   0.09793   0.78220   0.00000  Uiso   1.00
N183   N     0.41346   0.99623   0.44967   0.00000  Uiso   1.00
N184   N     0.53632   0.70515   0.54512   0.00000  Uiso   1.00
C185   C     0.77284   0.46533   0.97580   0.00000  Uiso   1.00
C186   C     0.82464   0.57370   0.01575   0.00000  Uiso   1.00
C187   C     0.79854   0.57416   0.07499   0.00000  Uiso   1.00
C188   C     0.85519   0.68239   0.10381   0.00000  Uiso   1.00
C189   C     0.92344   0.83486   0.17032   0.00000  Uiso   1.00
C190   C     0.71655   0.49366   0.92411   0.00000  Uiso   1.00
C191   C     0.59957   0.42680   0.90629   0.00000  Uiso   1.00
C192   C     0.56524   0.46766   0.85796   0.00000  Uiso   1.00
C193   C     0.46570   0.49581   0.78216   0.00000  Uiso   1.00
C194   C     0.87807   0.45981   0.95042   0.00000  Uiso   1.00
C195   C     0.89689   0.36447   0.95472   0.00000  Uiso   1.00
C196   C     0.99854   0.37681   0.92853   0.00000  Uiso   1.00
C197   C     0.14979   0.35240   0.89359   0.00000  Uiso   1.00
C198   C     0.91989   0.65674   0.92164   0.00000  Uiso   1.00
C199   C     0.90451   0.67767   0.98633   0.00000  Uiso   1.00
C200   C     0.96123   0.78593   0.01507   0.00000  Uiso   1.00
C201   C     0.93521   0.78655   0.07434   0.00000  Uiso   1.00
C202   C     0.79642   0.59762   0.89469   0.00000  Uiso   1.00
C203   C     0.76226   0.63858   0.84637   0.00000  Uiso   1.00
C204   C     0.64526   0.57181   0.82849   0.00000  Uiso   1.00
C205   C     0.95795   0.56377   0.92100   0.00000  Uiso   1.00
C206   C     0.05959   0.57625   0.89480   0.00000  Uiso   1.00
C207   C     0.07856   0.48096   0.89906   0.00000  Uiso   1.00
H208   H     0.71065   0.38439   0.99870   0.00000  Uiso   1.00
H209   H     0.73671   0.49368   0.09774   0.00000  Uiso   1.00
H210   H     0.53778   0.34635   0.92906   0.00000  Uiso   1.00
H211   H     0.83506   0.28404   0.97749   0.00000  Uiso   1.00
H212   H     0.80080   0.66071   0.19457   0.00000  Uiso   1.00
H213   H     0.38135   0.35002   0.83889   0.00000  Uiso   1.00
H214   H     0.00822   0.21862   0.94100   0.00000  Uiso   1.00
H215   H     0.98207   0.73769   0.89873   0.00000  Uiso   1.00
H216   H     0.02304   0.86637   0.99229   0.00000  Uiso   1.00
H217   H     0.82410   0.71903   0.82361   0.00000  Uiso   1.00
H218   H     0.12138   0.65672   0.87204   0.00000  Uiso   1.00
H219   H     0.03318   0.96320   0.10898   0.00000  Uiso   1.00
H220   H     0.61373   0.65251   0.75330   0.00000  Uiso   1.00
H221   H     0.24061   0.52111   0.85541   0.00000  Uiso   1.00
O222   O     0.93901   0.89024   0.21512   0.00000  Uiso   1.00
O223   O     0.38872   0.48262   0.74848   0.00000  Uiso   1.00
O224   O     0.21116   0.31022   0.88245   0.00000  Uiso   1.00
N225   N     0.84989   0.71424   0.16159   0.00000  Uiso   1.00
N226   N     0.45772   0.42377   0.82906   0.00000  Uiso   1.00
N227   N     0.04378   0.30091   0.92451   0.00000  Uiso   1.00
N228   N     0.97493   0.87701   0.11554   0.00000  Uiso   1.00
N229   N     0.58277   0.58654   0.78300   0.00000  Uiso   1.00
N230   N     0.16883   0.46368   0.87845   0.00000  Uiso   1.00
C231   C     0.69250   0.22716   0.30913   0.00000  Uiso   1.00
C232   C     0.74906   0.17536   0.34908   0.00000  Uiso   1.00
C233   C     0.77562   0.20146   0.40833   0.00000  Uiso   1.00
C234   C     0.82720   0.14481   0.43715   0.00000  Uiso   1.00
C235   C     0.91142   0.07656   0.50365   0.00000  Uiso   1.00
C236   C     0.77711   0.28345   0.25744   0.00000  Uiso   1.00
C237   C     0.82724   0.40043   0.23963   0.00000  Uiso   1.00
C238   C     0.90241   0.43476   0.19130   0.00000  Uiso   1.00
C239   C     0.03011   0.53430   0.11549   0.00000  Uiso   1.00
C240   C     0.58173   0.12193   0.28376   0.00000  Uiso   1.00
C241   C     0.46758   0.10311   0.28805   0.00000  Uiso   1.00
C242   C     0.37827   0.00146   0.26187   0.00000  Uiso   1.00
C243   C     0.20261   0.85021   0.22692   0.00000  Uiso   1.00
C244   C     0.73686   0.08011   0.25497   0.00000  Uiso   1.00
C245   C     0.77316   0.09549   0.31966   0.00000  Uiso   1.00
C246   C     0.82470   0.03877   0.34840   0.00000  Uiso   1.00
C247   C     0.85133   0.06479   0.40768   0.00000  Uiso   1.00
C248   C     0.80121   0.20358   0.22802   0.00000  Uiso   1.00
C249   C     0.87632   0.23774   0.17970   0.00000  Uiso   1.00
C250   C     0.92655   0.35474   0.16182   0.00000  Uiso   1.00
C251   C     0.60582   0.04205   0.25434   0.00000  Uiso   1.00
C252   C     0.51667   0.94041   0.22813   0.00000  Uiso   1.00
C253   C     0.40241   0.92144   0.23239   0.00000  Uiso   1.00
H254   H     0.67374   0.28935   0.33203   0.00000  Uiso   1.00
H255   H     0.75697   0.26329   0.43108   0.00000  Uiso   1.00
H256   H     0.80857   0.46222   0.26240   0.00000  Uiso   1.00
H257   H     0.44897   0.16494   0.31082   0.00000  Uiso   1.00
H258   H     0.85992   0.19920   0.52790   0.00000  Uiso   1.00
H259   H     0.96867   0.61865   0.17223   0.00000  Uiso   1.00
H260   H     0.21040   0.99178   0.27434   0.00000  Uiso   1.00
H261   H     0.75562   0.01793   0.23206   0.00000  Uiso   1.00
H262   H     0.84334   0.97696   0.32562   0.00000  Uiso   1.00
H263   H     0.89494   0.17590   0.15695   0.00000  Uiso   1.00
H264   H     0.53534   0.87862   0.20537   0.00000  Uiso   1.00
H265   H     0.93002   0.96682   0.44232   0.00000  Uiso   1.00
H266   H     0.03877   0.38627   0.08664   0.00000  Uiso   1.00
H267   H     0.28050   0.75939   0.18875   0.00000  Uiso   1.00
O268   O     0.95123   0.06099   0.54845   0.00000  Uiso   1.00
O269   O     0.09390   0.61128   0.08181   0.00000  Uiso   1.00
O270   O     0.09906   0.78884   0.21578   0.00000  Uiso   1.00
N271   N     0.86435   0.15011   0.49492   0.00000  Uiso   1.00
N272   N     0.96605   0.54228   0.16239   0.00000  Uiso   1.00
N273   N     0.25713   0.95622   0.25784   0.00000  Uiso   1.00
N274   N     0.90207   0.02507   0.44887   0.00000  Uiso   1.00
N275   N     0.00377   0.41723   0.11634   0.00000  Uiso   1.00
N276   N     0.29485   0.83117   0.21179   0.00000  Uiso   1.00
