data_job_01816
_audit_creation_date              2018-12-19
_audit_creation_method            'Materials Studio'
_symmetry_space_group_name_H-M    'P1'
_symmetry_Int_Tables_number       1
_symmetry_cell_setting            triclinic
loop_
_symmetry_equiv_pos_as_xyz
  x,y,z
_cell_length_a                    39.8020
_cell_length_b                    8.7978
_cell_length_c                    17.0315
_cell_angle_alpha                 90.0000
_cell_angle_beta                  100.9690
_cell_angle_gamma                 90.0000
loop_
_atom_site_label
_atom_site_type_symbol
_atom_site_fract_x
_atom_site_fract_y
_atom_site_fract_z
_atom_site_U_iso_or_equiv
_atom_site_adp_type
_atom_site_occupancy
C1     C     0.66789   0.97314   0.77233   0.00000  Uiso   1.00
C2     C     0.69298   0.04247   0.72500   0.00000  Uiso   1.00
C3     C     0.72264   0.97400   0.71064   0.00000  Uiso   1.00
C4     C     0.74216   0.05615   0.66604   0.00000  Uiso   1.00
C5     C     0.78262   0.14173   0.59702   0.00000  Uiso   1.00
C6     C     0.66525   0.08612   0.83878   0.00000  Uiso   1.00
C7     C     0.67158   0.05433   0.92008   0.00000  Uiso   1.00
C8     C     0.66775   0.17322   0.97126   0.00000  Uiso   1.00
C9     C     0.66512   0.32653   0.07888   0.00000  Uiso   1.00
C10    C     0.63307   0.97425   0.71644   0.00000  Uiso   1.00
C11    C     0.61234   0.84840   0.69489   0.00000  Uiso   1.00
C12    C     0.58141   0.87312   0.64308   0.00000  Uiso   1.00
C13    C     0.52882   0.85273   0.56075   0.00000  Uiso   1.00
C14    C     0.64982   0.24080   0.71867   0.00000  Uiso   1.00
C15    C     0.68317   0.18786   0.69586   0.00000  Uiso   1.00
C16    C     0.70265   0.27014   0.65127   0.00000  Uiso   1.00
C17    C     0.73232   0.20179   0.63684   0.00000  Uiso   1.00
C18    C     0.65543   0.23150   0.80964   0.00000  Uiso   1.00
C19    C     0.65159   0.35047   0.86071   0.00000  Uiso   1.00
C20    C     0.65791   0.31887   0.94206   0.00000  Uiso   1.00
C21    C     0.62325   0.11963   0.68729   0.00000  Uiso   1.00
C22    C     0.59235   0.14454   0.63551   0.00000  Uiso   1.00
C23    C     0.57158   0.01876   0.61388   0.00000  Uiso   1.00
H24    H     0.67553   0.85995   0.79503   0.00000  Uiso   1.00
H25    H     0.73022   0.86149   0.73321   0.00000  Uiso   1.00
H26    H     0.67917   0.94181   0.94262   0.00000  Uiso   1.00
H27    H     0.61994   0.73592   0.71746   0.00000  Uiso   1.00
H28    H     0.78654   0.92733   0.65185   0.00000  Uiso   1.00
H29    H     0.67888   0.09667   0.09339   0.00000  Uiso   1.00
H30    H     0.55398   0.66251   0.61860   0.00000  Uiso   1.00
H31    H     0.64218   0.35399   0.69598   0.00000  Uiso   1.00
H32    H     0.69505   0.38264   0.62872   0.00000  Uiso   1.00
H33    H     0.64399   0.46296   0.83813   0.00000  Uiso   1.00
H34    H     0.58476   0.25707   0.61297   0.00000  Uiso   1.00
H35    H     0.75799   0.35032   0.56704   0.00000  Uiso   1.00
H36    H     0.65032   0.51966   0.00859   0.00000  Uiso   1.00
H37    H     0.52543   0.08550   0.53379   0.00000  Uiso   1.00
O38    O     0.80765   0.14878   0.56701   0.00000  Uiso   1.00
O39    O     0.66639   0.37093   0.14630   0.00000  Uiso   1.00
O40    O     0.50253   0.80132   0.52338   0.00000  Uiso   1.00
N41    N     0.77256   0.02294   0.64110   0.00000  Uiso   1.00
N42    N     0.67191   0.18127   0.05393   0.00000  Uiso   1.00
N43    N     0.55514   0.77537   0.61005   0.00000  Uiso   1.00
N44    N     0.75720   0.25054   0.59547   0.00000  Uiso   1.00
N45    N     0.65654   0.40887   0.00829   0.00000  Uiso   1.00
N46    N     0.53977   0.00297   0.56441   0.00000  Uiso   1.00
C47    C     0.16789   0.47314   0.77233   0.00000  Uiso   1.00
C48    C     0.19298   0.54247   0.72500   0.00000  Uiso   1.00
C49    C     0.22264   0.47400   0.71064   0.00000  Uiso   1.00
C50    C     0.24216   0.55615   0.66604   0.00000  Uiso   1.00
C51    C     0.28262   0.64173   0.59702   0.00000  Uiso   1.00
C52    C     0.16525   0.58612   0.83878   0.00000  Uiso   1.00
C53    C     0.17158   0.55433   0.92008   0.00000  Uiso   1.00
C54    C     0.16775   0.67322   0.97126   0.00000  Uiso   1.00
C55    C     0.16512   0.82653   0.07888   0.00000  Uiso   1.00
C56    C     0.13307   0.47425   0.71644   0.00000  Uiso   1.00
C57    C     0.11234   0.34840   0.69489   0.00000  Uiso   1.00
C58    C     0.08141   0.37312   0.64308   0.00000  Uiso   1.00
C59    C     0.02882   0.35273   0.56075   0.00000  Uiso   1.00
C60    C     0.14982   0.74080   0.71867   0.00000  Uiso   1.00
C61    C     0.18317   0.68786   0.69586   0.00000  Uiso   1.00
C62    C     0.20265   0.77014   0.65127   0.00000  Uiso   1.00
C63    C     0.23232   0.70179   0.63684   0.00000  Uiso   1.00
C64    C     0.15543   0.73150   0.80964   0.00000  Uiso   1.00
C65    C     0.15159   0.85047   0.86071   0.00000  Uiso   1.00
C66    C     0.15791   0.81887   0.94206   0.00000  Uiso   1.00
C67    C     0.12325   0.61963   0.68729   0.00000  Uiso   1.00
C68    C     0.09235   0.64454   0.63551   0.00000  Uiso   1.00
C69    C     0.07158   0.51876   0.61388   0.00000  Uiso   1.00
H70    H     0.17553   0.35995   0.79503   0.00000  Uiso   1.00
H71    H     0.23022   0.36149   0.73321   0.00000  Uiso   1.00
H72    H     0.17917   0.44181   0.94262   0.00000  Uiso   1.00
H73    H     0.11994   0.23592   0.71746   0.00000  Uiso   1.00
H74    H     0.28654   0.42733   0.65185   0.00000  Uiso   1.00
H75    H     0.17888   0.59667   0.09339   0.00000  Uiso   1.00
H76    H     0.05398   0.16251   0.61860   0.00000  Uiso   1.00
H77    H     0.14218   0.85399   0.69598   0.00000  Uiso   1.00
H78    H     0.19505   0.88264   0.62872   0.00000  Uiso   1.00
H79    H     0.14399   0.96296   0.83813   0.00000  Uiso   1.00
H80    H     0.08476   0.75707   0.61297   0.00000  Uiso   1.00
H81    H     0.25799   0.85032   0.56704   0.00000  Uiso   1.00
H82    H     0.15032   0.01966   0.00859   0.00000  Uiso   1.00
H83    H     0.02543   0.58550   0.53379   0.00000  Uiso   1.00
O84    O     0.30765   0.64878   0.56701   0.00000  Uiso   1.00
O85    O     0.16639   0.87093   0.14630   0.00000  Uiso   1.00
O86    O     0.00253   0.30132   0.52338   0.00000  Uiso   1.00
N87    N     0.27256   0.52294   0.64110   0.00000  Uiso   1.00
N88    N     0.17191   0.68127   0.05393   0.00000  Uiso   1.00
N89    N     0.05514   0.27537   0.61005   0.00000  Uiso   1.00
N90    N     0.25720   0.75054   0.59547   0.00000  Uiso   1.00
N91    N     0.15654   0.90887   0.00829   0.00000  Uiso   1.00
N92    N     0.03977   0.50297   0.56441   0.00000  Uiso   1.00
C93    C     0.33211   0.97314   0.72767   0.00000  Uiso   1.00
C94    C     0.30702   0.04247   0.77500   0.00000  Uiso   1.00
C95    C     0.27736   0.97400   0.78936   0.00000  Uiso   1.00
C96    C     0.25784   0.05615   0.83396   0.00000  Uiso   1.00
C97    C     0.21738   0.14173   0.90298   0.00000  Uiso   1.00
C98    C     0.33475   0.08612   0.66122   0.00000  Uiso   1.00
C99    C     0.32842   0.05433   0.57992   0.00000  Uiso   1.00
C100   C     0.33225   0.17322   0.52874   0.00000  Uiso   1.00
C101   C     0.33488   0.32653   0.42112   0.00000  Uiso   1.00
C102   C     0.36693   0.97425   0.78356   0.00000  Uiso   1.00
C103   C     0.38766   0.84840   0.80511   0.00000  Uiso   1.00
C104   C     0.41859   0.87312   0.85692   0.00000  Uiso   1.00
C105   C     0.47118   0.85273   0.93925   0.00000  Uiso   1.00
C106   C     0.35018   0.24080   0.78133   0.00000  Uiso   1.00
C107   C     0.31683   0.18786   0.80414   0.00000  Uiso   1.00
C108   C     0.29735   0.27014   0.84873   0.00000  Uiso   1.00
C109   C     0.26768   0.20179   0.86316   0.00000  Uiso   1.00
C110   C     0.34457   0.23150   0.69036   0.00000  Uiso   1.00
C111   C     0.34841   0.35047   0.63929   0.00000  Uiso   1.00
C112   C     0.34209   0.31887   0.55794   0.00000  Uiso   1.00
C113   C     0.37675   0.11963   0.81271   0.00000  Uiso   1.00
C114   C     0.40765   0.14454   0.86449   0.00000  Uiso   1.00
C115   C     0.42842   0.01876   0.88612   0.00000  Uiso   1.00
H116   H     0.32447   0.85995   0.70497   0.00000  Uiso   1.00
H117   H     0.26978   0.86149   0.76679   0.00000  Uiso   1.00
H118   H     0.32083   0.94181   0.55738   0.00000  Uiso   1.00
H119   H     0.38006   0.73592   0.78254   0.00000  Uiso   1.00
H120   H     0.21346   0.92733   0.84815   0.00000  Uiso   1.00
H121   H     0.32112   0.09667   0.40661   0.00000  Uiso   1.00
H122   H     0.44602   0.66251   0.88140   0.00000  Uiso   1.00
H123   H     0.35782   0.35399   0.80402   0.00000  Uiso   1.00
H124   H     0.30495   0.38264   0.87128   0.00000  Uiso   1.00
H125   H     0.35601   0.46296   0.66187   0.00000  Uiso   1.00
H126   H     0.41524   0.25707   0.88703   0.00000  Uiso   1.00
H127   H     0.24201   0.35032   0.93296   0.00000  Uiso   1.00
H128   H     0.34968   0.51966   0.49141   0.00000  Uiso   1.00
H129   H     0.47457   0.08550   0.96621   0.00000  Uiso   1.00
O130   O     0.19235   0.14878   0.93299   0.00000  Uiso   1.00
O131   O     0.33361   0.37093   0.35370   0.00000  Uiso   1.00
O132   O     0.49747   0.80132   0.97662   0.00000  Uiso   1.00
N133   N     0.22744   0.02294   0.85890   0.00000  Uiso   1.00
N134   N     0.32809   0.18127   0.44607   0.00000  Uiso   1.00
N135   N     0.44486   0.77537   0.88995   0.00000  Uiso   1.00
N136   N     0.24280   0.25054   0.90453   0.00000  Uiso   1.00
N137   N     0.34346   0.40887   0.49171   0.00000  Uiso   1.00
N138   N     0.46023   0.00297   0.93559   0.00000  Uiso   1.00
C139   C     0.83211   0.47314   0.72767   0.00000  Uiso   1.00
C140   C     0.80702   0.54247   0.77500   0.00000  Uiso   1.00
C141   C     0.77736   0.47400   0.78936   0.00000  Uiso   1.00
C142   C     0.75784   0.55615   0.83396   0.00000  Uiso   1.00
C143   C     0.71738   0.64173   0.90298   0.00000  Uiso   1.00
C144   C     0.83475   0.58612   0.66122   0.00000  Uiso   1.00
C145   C     0.82842   0.55433   0.57992   0.00000  Uiso   1.00
C146   C     0.83225   0.67322   0.52874   0.00000  Uiso   1.00
C147   C     0.83488   0.82653   0.42112   0.00000  Uiso   1.00
C148   C     0.86693   0.47425   0.78356   0.00000  Uiso   1.00
C149   C     0.88766   0.34840   0.80511   0.00000  Uiso   1.00
C150   C     0.91859   0.37312   0.85692   0.00000  Uiso   1.00
C151   C     0.97118   0.35273   0.93925   0.00000  Uiso   1.00
C152   C     0.85018   0.74080   0.78133   0.00000  Uiso   1.00
C153   C     0.81683   0.68786   0.80414   0.00000  Uiso   1.00
C154   C     0.79735   0.77014   0.84873   0.00000  Uiso   1.00
C155   C     0.76768   0.70179   0.86316   0.00000  Uiso   1.00
C156   C     0.84457   0.73150   0.69036   0.00000  Uiso   1.00
C157   C     0.84841   0.85047   0.63929   0.00000  Uiso   1.00
C158   C     0.84209   0.81887   0.55794   0.00000  Uiso   1.00
C159   C     0.87675   0.61963   0.81271   0.00000  Uiso   1.00
C160   C     0.90765   0.64454   0.86449   0.00000  Uiso   1.00
C161   C     0.92842   0.51876   0.88612   0.00000  Uiso   1.00
H162   H     0.82447   0.35995   0.70497   0.00000  Uiso   1.00
H163   H     0.76978   0.36149   0.76679   0.00000  Uiso   1.00
H164   H     0.82083   0.44181   0.55738   0.00000  Uiso   1.00
H165   H     0.88006   0.23592   0.78254   0.00000  Uiso   1.00
H166   H     0.71346   0.42733   0.84815   0.00000  Uiso   1.00
H167   H     0.82112   0.59667   0.40661   0.00000  Uiso   1.00
H168   H     0.94602   0.16251   0.88140   0.00000  Uiso   1.00
H169   H     0.85782   0.85399   0.80402   0.00000  Uiso   1.00
H170   H     0.80495   0.88264   0.87128   0.00000  Uiso   1.00
H171   H     0.85601   0.96296   0.66187   0.00000  Uiso   1.00
H172   H     0.91524   0.75707   0.88703   0.00000  Uiso   1.00
H173   H     0.74201   0.85032   0.93296   0.00000  Uiso   1.00
H174   H     0.84968   0.01966   0.49141   0.00000  Uiso   1.00
H175   H     0.97457   0.58550   0.96621   0.00000  Uiso   1.00
O176   O     0.69235   0.64878   0.93299   0.00000  Uiso   1.00
O177   O     0.83361   0.87093   0.35370   0.00000  Uiso   1.00
O178   O     0.99747   0.30132   0.97662   0.00000  Uiso   1.00
N179   N     0.72744   0.52294   0.85890   0.00000  Uiso   1.00
N180   N     0.82809   0.68127   0.44607   0.00000  Uiso   1.00
N181   N     0.94486   0.27537   0.88995   0.00000  Uiso   1.00
N182   N     0.74280   0.75054   0.90453   0.00000  Uiso   1.00
N183   N     0.84346   0.90887   0.49171   0.00000  Uiso   1.00
N184   N     0.96023   0.50297   0.93559   0.00000  Uiso   1.00
C185   C     0.33211   0.02686   0.22767   0.00000  Uiso   1.00
C186   C     0.30702   0.95753   0.27500   0.00000  Uiso   1.00
C187   C     0.27736   0.02600   0.28936   0.00000  Uiso   1.00
C188   C     0.25784   0.94385   0.33396   0.00000  Uiso   1.00
C189   C     0.21738   0.85827   0.40298   0.00000  Uiso   1.00
C190   C     0.33475   0.91388   0.16122   0.00000  Uiso   1.00
C191   C     0.32842   0.94567   0.07992   0.00000  Uiso   1.00
C192   C     0.33225   0.82678   0.02874   0.00000  Uiso   1.00
C193   C     0.33488   0.67347   0.92112   0.00000  Uiso   1.00
C194   C     0.36693   0.02575   0.28356   0.00000  Uiso   1.00
C195   C     0.38766   0.15160   0.30511   0.00000  Uiso   1.00
C196   C     0.41859   0.12688   0.35692   0.00000  Uiso   1.00
C197   C     0.47118   0.14727   0.43925   0.00000  Uiso   1.00
C198   C     0.35018   0.75920   0.28133   0.00000  Uiso   1.00
C199   C     0.31683   0.81214   0.30414   0.00000  Uiso   1.00
C200   C     0.29735   0.72986   0.34873   0.00000  Uiso   1.00
C201   C     0.26768   0.79821   0.36316   0.00000  Uiso   1.00
C202   C     0.34457   0.76850   0.19036   0.00000  Uiso   1.00
C203   C     0.34841   0.64953   0.13929   0.00000  Uiso   1.00
C204   C     0.34209   0.68113   0.05794   0.00000  Uiso   1.00
C205   C     0.37675   0.88037   0.31271   0.00000  Uiso   1.00
C206   C     0.40765   0.85546   0.36449   0.00000  Uiso   1.00
C207   C     0.42842   0.98124   0.38612   0.00000  Uiso   1.00
H208   H     0.32447   0.14005   0.20497   0.00000  Uiso   1.00
H209   H     0.26978   0.13851   0.26679   0.00000  Uiso   1.00
H210   H     0.32083   0.05819   0.05738   0.00000  Uiso   1.00
H211   H     0.38006   0.26408   0.28254   0.00000  Uiso   1.00
H212   H     0.21346   0.07267   0.34815   0.00000  Uiso   1.00
H213   H     0.32112   0.90333   0.90661   0.00000  Uiso   1.00
H214   H     0.44602   0.33749   0.38140   0.00000  Uiso   1.00
H215   H     0.35782   0.64601   0.30402   0.00000  Uiso   1.00
H216   H     0.30495   0.61736   0.37128   0.00000  Uiso   1.00
H217   H     0.35601   0.53704   0.16187   0.00000  Uiso   1.00
H218   H     0.41524   0.74293   0.38703   0.00000  Uiso   1.00
H219   H     0.24201   0.64968   0.43296   0.00000  Uiso   1.00
H220   H     0.34968   0.48034   0.99141   0.00000  Uiso   1.00
H221   H     0.47457   0.91450   0.46621   0.00000  Uiso   1.00
O222   O     0.19235   0.85122   0.43299   0.00000  Uiso   1.00
O223   O     0.33361   0.62907   0.85370   0.00000  Uiso   1.00
O224   O     0.49747   0.19868   0.47662   0.00000  Uiso   1.00
N225   N     0.22744   0.97706   0.35890   0.00000  Uiso   1.00
N226   N     0.32809   0.81873   0.94607   0.00000  Uiso   1.00
N227   N     0.44486   0.22463   0.38995   0.00000  Uiso   1.00
N228   N     0.24280   0.74946   0.40453   0.00000  Uiso   1.00
N229   N     0.34346   0.59113   0.99171   0.00000  Uiso   1.00
N230   N     0.46023   0.99703   0.43559   0.00000  Uiso   1.00
C231   C     0.83211   0.52686   0.22767   0.00000  Uiso   1.00
C232   C     0.80702   0.45753   0.27500   0.00000  Uiso   1.00
C233   C     0.77736   0.52600   0.28936   0.00000  Uiso   1.00
C234   C     0.75784   0.44385   0.33396   0.00000  Uiso   1.00
C235   C     0.71738   0.35827   0.40298   0.00000  Uiso   1.00
C236   C     0.83475   0.41388   0.16122   0.00000  Uiso   1.00
C237   C     0.82842   0.44567   0.07992   0.00000  Uiso   1.00
C238   C     0.83225   0.32678   0.02874   0.00000  Uiso   1.00
C239   C     0.83488   0.17347   0.92112   0.00000  Uiso   1.00
C240   C     0.86693   0.52575   0.28356   0.00000  Uiso   1.00
C241   C     0.88766   0.65160   0.30511   0.00000  Uiso   1.00
C242   C     0.91859   0.62688   0.35692   0.00000  Uiso   1.00
C243   C     0.97118   0.64727   0.43925   0.00000  Uiso   1.00
C244   C     0.85018   0.25920   0.28133   0.00000  Uiso   1.00
C245   C     0.81683   0.31214   0.30414   0.00000  Uiso   1.00
C246   C     0.79735   0.22986   0.34873   0.00000  Uiso   1.00
C247   C     0.76768   0.29821   0.36316   0.00000  Uiso   1.00
C248   C     0.84457   0.26850   0.19036   0.00000  Uiso   1.00
C249   C     0.84841   0.14953   0.13929   0.00000  Uiso   1.00
C250   C     0.84209   0.18113   0.05794   0.00000  Uiso   1.00
C251   C     0.87675   0.38037   0.31271   0.00000  Uiso   1.00
C252   C     0.90765   0.35546   0.36449   0.00000  Uiso   1.00
C253   C     0.92842   0.48124   0.38612   0.00000  Uiso   1.00
H254   H     0.82447   0.64005   0.20497   0.00000  Uiso   1.00
H255   H     0.76978   0.63851   0.26679   0.00000  Uiso   1.00
H256   H     0.82083   0.55819   0.05738   0.00000  Uiso   1.00
H257   H     0.88006   0.76408   0.28254   0.00000  Uiso   1.00
H258   H     0.71346   0.57267   0.34815   0.00000  Uiso   1.00
H259   H     0.82112   0.40333   0.90661   0.00000  Uiso   1.00
H260   H     0.94602   0.83749   0.38140   0.00000  Uiso   1.00
H261   H     0.85782   0.14601   0.30402   0.00000  Uiso   1.00
H262   H     0.80495   0.11736   0.37128   0.00000  Uiso   1.00
H263   H     0.85601   0.03704   0.16187   0.00000  Uiso   1.00
H264   H     0.91524   0.24293   0.38703   0.00000  Uiso   1.00
H265   H     0.74201   0.14968   0.43296   0.00000  Uiso   1.00
H266   H     0.84968   0.98034   0.99141   0.00000  Uiso   1.00
H267   H     0.97457   0.41450   0.46621   0.00000  Uiso   1.00
O268   O     0.69235   0.35122   0.43299   0.00000  Uiso   1.00
O269   O     0.83361   0.12907   0.85370   0.00000  Uiso   1.00
O270   O     0.99747   0.69868   0.47662   0.00000  Uiso   1.00
N271   N     0.72744   0.47706   0.35890   0.00000  Uiso   1.00
N272   N     0.82809   0.31873   0.94607   0.00000  Uiso   1.00
N273   N     0.94486   0.72463   0.38995   0.00000  Uiso   1.00
N274   N     0.74280   0.24946   0.40453   0.00000  Uiso   1.00
N275   N     0.84346   0.09113   0.99171   0.00000  Uiso   1.00
N276   N     0.96023   0.49703   0.43559   0.00000  Uiso   1.00
C277   C     0.66789   0.02686   0.27233   0.00000  Uiso   1.00
C278   C     0.69298   0.95753   0.22500   0.00000  Uiso   1.00
C279   C     0.72264   0.02600   0.21064   0.00000  Uiso   1.00
C280   C     0.74216   0.94385   0.16604   0.00000  Uiso   1.00
C281   C     0.78262   0.85827   0.09702   0.00000  Uiso   1.00
C282   C     0.66525   0.91388   0.33878   0.00000  Uiso   1.00
C283   C     0.67158   0.94567   0.42008   0.00000  Uiso   1.00
C284   C     0.66775   0.82678   0.47126   0.00000  Uiso   1.00
C285   C     0.66512   0.67347   0.57888   0.00000  Uiso   1.00
C286   C     0.63307   0.02575   0.21644   0.00000  Uiso   1.00
C287   C     0.61234   0.15160   0.19489   0.00000  Uiso   1.00
C288   C     0.58141   0.12688   0.14308   0.00000  Uiso   1.00
C289   C     0.52882   0.14727   0.06075   0.00000  Uiso   1.00
C290   C     0.64982   0.75920   0.21867   0.00000  Uiso   1.00
C291   C     0.68317   0.81214   0.19586   0.00000  Uiso   1.00
C292   C     0.70265   0.72986   0.15127   0.00000  Uiso   1.00
C293   C     0.73232   0.79821   0.13684   0.00000  Uiso   1.00
C294   C     0.65543   0.76850   0.30964   0.00000  Uiso   1.00
C295   C     0.65159   0.64953   0.36071   0.00000  Uiso   1.00
C296   C     0.65791   0.68113   0.44206   0.00000  Uiso   1.00
C297   C     0.62325   0.88037   0.18729   0.00000  Uiso   1.00
C298   C     0.59235   0.85546   0.13551   0.00000  Uiso   1.00
C299   C     0.57158   0.98124   0.11388   0.00000  Uiso   1.00
H300   H     0.67553   0.14005   0.29503   0.00000  Uiso   1.00
H301   H     0.73022   0.13851   0.23321   0.00000  Uiso   1.00
H302   H     0.67917   0.05819   0.44262   0.00000  Uiso   1.00
H303   H     0.61994   0.26408   0.21746   0.00000  Uiso   1.00
H304   H     0.78654   0.07267   0.15185   0.00000  Uiso   1.00
H305   H     0.67888   0.90333   0.59339   0.00000  Uiso   1.00
H306   H     0.55398   0.33749   0.11860   0.00000  Uiso   1.00
H307   H     0.64218   0.64601   0.19598   0.00000  Uiso   1.00
H308   H     0.69505   0.61736   0.12872   0.00000  Uiso   1.00
H309   H     0.64399   0.53704   0.33813   0.00000  Uiso   1.00
H310   H     0.58476   0.74293   0.11297   0.00000  Uiso   1.00
H311   H     0.75799   0.64968   0.06704   0.00000  Uiso   1.00
H312   H     0.65032   0.48034   0.50859   0.00000  Uiso   1.00
H313   H     0.52543   0.91450   0.03379   0.00000  Uiso   1.00
O314   O     0.80765   0.85122   0.06701   0.00000  Uiso   1.00
O315   O     0.66639   0.62907   0.64630   0.00000  Uiso   1.00
O316   O     0.50253   0.19868   0.02338   0.00000  Uiso   1.00
N317   N     0.77256   0.97706   0.14110   0.00000  Uiso   1.00
N318   N     0.67191   0.81873   0.55393   0.00000  Uiso   1.00
N319   N     0.55514   0.22463   0.11005   0.00000  Uiso   1.00
N320   N     0.75720   0.74946   0.09547   0.00000  Uiso   1.00
N321   N     0.65654   0.59113   0.50829   0.00000  Uiso   1.00
N322   N     0.53977   0.99703   0.06441   0.00000  Uiso   1.00
C323   C     0.16789   0.52686   0.27233   0.00000  Uiso   1.00
C324   C     0.19298   0.45753   0.22500   0.00000  Uiso   1.00
C325   C     0.22264   0.52600   0.21064   0.00000  Uiso   1.00
C326   C     0.24216   0.44385   0.16604   0.00000  Uiso   1.00
C327   C     0.28262   0.35827   0.09702   0.00000  Uiso   1.00
C328   C     0.16525   0.41388   0.33878   0.00000  Uiso   1.00
C329   C     0.17158   0.44567   0.42008   0.00000  Uiso   1.00
C330   C     0.16775   0.32678   0.47126   0.00000  Uiso   1.00
C331   C     0.16512   0.17347   0.57888   0.00000  Uiso   1.00
C332   C     0.13307   0.52575   0.21644   0.00000  Uiso   1.00
C333   C     0.11234   0.65160   0.19489   0.00000  Uiso   1.00
C334   C     0.08141   0.62688   0.14308   0.00000  Uiso   1.00
C335   C     0.02882   0.64727   0.06075   0.00000  Uiso   1.00
C336   C     0.14982   0.25920   0.21867   0.00000  Uiso   1.00
C337   C     0.18317   0.31214   0.19586   0.00000  Uiso   1.00
C338   C     0.20265   0.22986   0.15127   0.00000  Uiso   1.00
C339   C     0.23232   0.29821   0.13684   0.00000  Uiso   1.00
C340   C     0.15543   0.26850   0.30964   0.00000  Uiso   1.00
C341   C     0.15159   0.14953   0.36071   0.00000  Uiso   1.00
C342   C     0.15791   0.18113   0.44206   0.00000  Uiso   1.00
C343   C     0.12325   0.38037   0.18729   0.00000  Uiso   1.00
C344   C     0.09235   0.35546   0.13551   0.00000  Uiso   1.00
C345   C     0.07158   0.48124   0.11388   0.00000  Uiso   1.00
H346   H     0.17553   0.64005   0.29503   0.00000  Uiso   1.00
H347   H     0.23022   0.63851   0.23321   0.00000  Uiso   1.00
H348   H     0.17917   0.55819   0.44262   0.00000  Uiso   1.00
H349   H     0.11994   0.76408   0.21746   0.00000  Uiso   1.00
H350   H     0.28654   0.57267   0.15185   0.00000  Uiso   1.00
H351   H     0.17888   0.40333   0.59339   0.00000  Uiso   1.00
H352   H     0.05398   0.83749   0.11860   0.00000  Uiso   1.00
H353   H     0.14218   0.14601   0.19598   0.00000  Uiso   1.00
H354   H     0.19505   0.11736   0.12872   0.00000  Uiso   1.00
H355   H     0.14399   0.03704   0.33813   0.00000  Uiso   1.00
H356   H     0.08476   0.24293   0.11297   0.00000  Uiso   1.00
H357   H     0.25799   0.14968   0.06704   0.00000  Uiso   1.00
H358   H     0.15032   0.98034   0.50859   0.00000  Uiso   1.00
H359   H     0.02543   0.41450   0.03379   0.00000  Uiso   1.00
O360   O     0.30765   0.35122   0.06701   0.00000  Uiso   1.00
O361   O     0.16639   0.12907   0.64630   0.00000  Uiso   1.00
O362   O     0.00253   0.69868   0.02338   0.00000  Uiso   1.00
N363   N     0.27256   0.47706   0.14110   0.00000  Uiso   1.00
N364   N     0.17191   0.31873   0.55393   0.00000  Uiso   1.00
N365   N     0.05514   0.72463   0.11005   0.00000  Uiso   1.00
N366   N     0.25720   0.24946   0.09547   0.00000  Uiso   1.00
N367   N     0.15654   0.09113   0.50829   0.00000  Uiso   1.00
N368   N     0.03977   0.49703   0.06441   0.00000  Uiso   1.00
