data_job_02868
_audit_creation_date              2018-12-19
_audit_creation_method            'Materials Studio'
_symmetry_space_group_name_H-M    'P1'
_symmetry_Int_Tables_number       1
_symmetry_cell_setting            triclinic
loop_
_symmetry_equiv_pos_as_xyz
  x,y,z
_cell_length_a                    12.6908
_cell_length_b                    12.7725
_cell_length_c                    29.6257
_cell_angle_alpha                 94.2963
_cell_angle_beta                  90.9147
_cell_angle_gamma                 63.0966
loop_
_atom_site_label
_atom_site_type_symbol
_atom_site_fract_x
_atom_site_fract_y
_atom_site_fract_z
_atom_site_U_iso_or_equiv
_atom_site_adp_type
_atom_site_occupancy
C1     C     0.18660   0.57098   0.95655   0.00000  Uiso   1.00
C2     C     0.05370   0.63730   0.96589   0.00000  Uiso   1.00
C3     C     0.99546   0.63240   0.00432   0.00000  Uiso   1.00
C4     C     0.87354   0.69959   0.00644   0.00000  Uiso   1.00
C5     C     0.67651   0.79194   0.02626   0.00000  Uiso   1.00
C6     C     0.20248   0.49914   0.91145   0.00000  Uiso   1.00
C7     C     0.26934   0.37809   0.90411   0.00000  Uiso   1.00
C8     C     0.27268   0.32898   0.86040   0.00000  Uiso   1.00
C9     C     0.30671   0.20686   0.79570   0.00000  Uiso   1.00
C10    C     0.22622   0.66422   0.94807   0.00000  Uiso   1.00
C11    C     0.31306   0.68196   0.97151   0.00000  Uiso   1.00
C12    C     0.33641   0.77182   0.95863   0.00000  Uiso   1.00
C13    C     0.40729   0.90601   0.95078   0.00000  Uiso   1.00
C14    C     0.07367   0.69901   0.89198   0.00000  Uiso   1.00
C15    C     0.99236   0.70684   0.93081   0.00000  Uiso   1.00
C16    C     0.87051   0.77406   0.93288   0.00000  Uiso   1.00
C17    C     0.81209   0.76926   0.97131   0.00000  Uiso   1.00
C18    C     0.14115   0.56868   0.87638   0.00000  Uiso   1.00
C19    C     0.14439   0.51974   0.83267   0.00000  Uiso   1.00
C20    C     0.21123   0.39865   0.82527   0.00000  Uiso   1.00
C21    C     0.16488   0.73377   0.91300   0.00000  Uiso   1.00
C22    C     0.18810   0.82362   0.90007   0.00000  Uiso   1.00
C23    C     0.27496   0.84149   0.92349   0.00000  Uiso   1.00
H24    H     0.23436   0.51683   0.98385   0.00000  Uiso   1.00
H25    H     0.04296   0.57856   0.03145   0.00000  Uiso   1.00
H26    H     0.31681   0.32430   0.93125   0.00000  Uiso   1.00
H27    H     0.36051   0.62812   0.99865   0.00000  Uiso   1.00
H28    H     0.80370   0.67764   0.06874   0.00000  Uiso   1.00
H29    H     0.38117   0.14151   0.85748   0.00000  Uiso   1.00
H30    H     0.47333   0.78218   0.99958   0.00000  Uiso   1.00
H31    H     0.02591   0.75316   0.86468   0.00000  Uiso   1.00
H32    H     0.82306   0.82786   0.90573   0.00000  Uiso   1.00
H33    H     0.09692   0.57359   0.80554   0.00000  Uiso   1.00
H34    H     0.14062   0.87741   0.87293   0.00000  Uiso   1.00
H35    H     0.62522   0.87998   0.96671   0.00000  Uiso   1.00
H36    H     0.20270   0.34384   0.75544   0.00000  Uiso   1.00
H37    H     0.29485   0.98452   0.89755   0.00000  Uiso   1.00
O38    O     0.58478   0.82366   0.04687   0.00000  Uiso   1.00
O39    O     0.34241   0.12028   0.76970   0.00000  Uiso   1.00
O40    O     0.46332   0.96083   0.95615   0.00000  Uiso   1.00
N41    N     0.78953   0.71503   0.03910   0.00000  Uiso   1.00
N42    N     0.32942   0.21377   0.84158   0.00000  Uiso   1.00
N43    N     0.41560   0.81273   0.97443   0.00000  Uiso   1.00
N44    N     0.69350   0.82390   0.98419   0.00000  Uiso   1.00
N45    N     0.23338   0.32265   0.78667   0.00000  Uiso   1.00
N46    N     0.31956   0.92160   0.91952   0.00000  Uiso   1.00
C47    C     0.12565   0.21715   0.28268   0.00000  Uiso   1.00
C48    C     0.18293   0.08451   0.28670   0.00000  Uiso   1.00
C49    C     0.23537   0.02772   0.32510   0.00000  Uiso   1.00
C50    C     0.28281   0.90580   0.32192   0.00000  Uiso   1.00
C51    C     0.37255   0.70940   0.33427   0.00000  Uiso   1.00
C52    C     0.18843   0.23614   0.24297   0.00000  Uiso   1.00
C53    C     0.24549   0.30684   0.24460   0.00000  Uiso   1.00
C54    C     0.29755   0.31257   0.20460   0.00000  Uiso   1.00
C55    C     0.39576   0.35164   0.14905   0.00000  Uiso   1.00
C56    C     0.99942   0.25162   0.26770   0.00000  Uiso   1.00
C57    C     0.89754   0.33536   0.29011   0.00000  Uiso   1.00
C58    C     0.79047   0.35414   0.27093   0.00000  Uiso   1.00
C59    C     0.59521   0.41724   0.25377   0.00000  Uiso   1.00
C60    C     0.11664   0.10163   0.20875   0.00000  Uiso   1.00
C61    C     0.17804   0.02177   0.24654   0.00000  Uiso   1.00
C62    C     0.22541   0.89991   0.24330   0.00000  Uiso   1.00
C63    C     0.27791   0.84294   0.28169   0.00000  Uiso   1.00
C64    C     0.18355   0.17340   0.20281   0.00000  Uiso   1.00
C65    C     0.23553   0.17903   0.16280   0.00000  Uiso   1.00
C66    C     0.29265   0.24972   0.16437   0.00000  Uiso   1.00
C67    C     0.99453   0.18887   0.22754   0.00000  Uiso   1.00
C68    C     0.88759   0.20754   0.20832   0.00000  Uiso   1.00
C69    C     0.78557   0.29128   0.23070   0.00000  Uiso   1.00
H70    H     0.12946   0.26600   0.31394   0.00000  Uiso   1.00
H71    H     0.23914   0.07631   0.35617   0.00000  Uiso   1.00
H72    H     0.24925   0.35540   0.27568   0.00000  Uiso   1.00
H73    H     0.90136   0.38389   0.32119   0.00000  Uiso   1.00
H74    H     0.35863   0.83832   0.38527   0.00000  Uiso   1.00
H75    H     0.37991   0.42683   0.21555   0.00000  Uiso   1.00
H76    H     0.64632   0.48693   0.31152   0.00000  Uiso   1.00
H77    H     0.11284   0.05278   0.17748   0.00000  Uiso   1.00
H78    H     0.22161   0.85138   0.21222   0.00000  Uiso   1.00
H79    H     0.23172   0.13047   0.13173   0.00000  Uiso   1.00
H80    H     0.88383   0.15897   0.17724   0.00000  Uiso   1.00
H81    H     0.34441   0.65576   0.26844   0.00000  Uiso   1.00
H82    H     0.36568   0.24428   0.09872   0.00000  Uiso   1.00
H83    H     0.63209   0.30437   0.19468   0.00000  Uiso   1.00
O84    O     0.42341   0.61840   0.35217   0.00000  Uiso   1.00
O85    O     0.45130   0.39052   0.12950   0.00000  Uiso   1.00
O86    O     0.48886   0.46936   0.25540   0.00000  Uiso   1.00
N87    N     0.34034   0.82300   0.35301   0.00000  Uiso   1.00
N88    N     0.36025   0.37320   0.19433   0.00000  Uiso   1.00
N89    N     0.67440   0.42942   0.28405   0.00000  Uiso   1.00
N90    N     0.33268   0.72476   0.29015   0.00000  Uiso   1.00
N91    N     0.35259   0.27497   0.13147   0.00000  Uiso   1.00
N92    N     0.66674   0.33118   0.22118   0.00000  Uiso   1.00
C93    C     0.53571   0.26642   0.61567   0.00000  Uiso   1.00
C94    C     0.60916   0.33348   0.62103   0.00000  Uiso   1.00
C95    C     0.61954   0.39339   0.66055   0.00000  Uiso   1.00
C96    C     0.69099   0.44921   0.65849   0.00000  Uiso   1.00
C97    C     0.79604   0.55401   0.67292   0.00000  Uiso   1.00
C98    C     0.45136   0.31950   0.57719   0.00000  Uiso   1.00
C99    C     0.32906   0.36763   0.57985   0.00000  Uiso   1.00
C100   C     0.26767   0.41166   0.54089   0.00000  Uiso   1.00
C101   C     0.12773   0.49466   0.48724   0.00000  Uiso   1.00
C102   C     0.62091   0.14121   0.59813   0.00000  Uiso   1.00
C103   C     0.64115   0.03943   0.61839   0.00000  Uiso   1.00
C104   C     0.72250   0.93335   0.59705   0.00000  Uiso   1.00
C105   C     0.84581   0.73954   0.57591   0.00000  Uiso   1.00
C106   C     0.64414   0.25902   0.54174   0.00000  Uiso   1.00
C107   C     0.66805   0.32946   0.58087   0.00000  Uiso   1.00
C108   C     0.73951   0.38521   0.57875   0.00000  Uiso   1.00
C109   C     0.75000   0.44518   0.61827   0.00000  Uiso   1.00
C110   C     0.51025   0.31548   0.53703   0.00000  Uiso   1.00
C111   C     0.44903   0.35944   0.49805   0.00000  Uiso   1.00
C112   C     0.32667   0.40763   0.50066   0.00000  Uiso   1.00
C113   C     0.67981   0.13719   0.55797   0.00000  Uiso   1.00
C114   C     0.76113   0.03124   0.53659   0.00000  Uiso   1.00
C115   C     0.78150   0.92932   0.55682   0.00000  Uiso   1.00
H116   H     0.48985   0.26955   0.64693   0.00000  Uiso   1.00
H117   H     0.57394   0.39649   0.69162   0.00000  Uiso   1.00
H118   H     0.28351   0.37071   0.61093   0.00000  Uiso   1.00
H119   H     0.59556   0.04257   0.64946   0.00000  Uiso   1.00
H120   H     0.69311   0.53550   0.72345   0.00000  Uiso   1.00
H121   H     0.08072   0.48111   0.55331   0.00000  Uiso   1.00
H122   H     0.73874   0.78915   0.63457   0.00000  Uiso   1.00
H123   H     0.69000   0.25589   0.51047   0.00000  Uiso   1.00
H124   H     0.78508   0.38208   0.54767   0.00000  Uiso   1.00
H125   H     0.49464   0.35631   0.46698   0.00000  Uiso   1.00
H126   H     0.80669   0.02817   0.50552   0.00000  Uiso   1.00
H127   H     0.86447   0.52381   0.60662   0.00000  Uiso   1.00
H128   H     0.25208   0.46941   0.43647   0.00000  Uiso   1.00
H129   H     0.91010   0.77746   0.51773   0.00000  Uiso   1.00
O130   O     0.83769   0.61294   0.69196   0.00000  Uiso   1.00
O131   O     0.03426   0.54157   0.46874   0.00000  Uiso   1.00
O132   O     0.89757   0.63375   0.57535   0.00000  Uiso   1.00
N133   N     0.72041   0.51541   0.69085   0.00000  Uiso   1.00
N134   N     0.14786   0.46457   0.53178   0.00000  Uiso   1.00
N135   N     0.76303   0.81765   0.60774   0.00000  Uiso   1.00
N136   N     0.81262   0.50911   0.62798   0.00000  Uiso   1.00
N137   N     0.24007   0.45828   0.46891   0.00000  Uiso   1.00
N138   N     0.85524   0.81136   0.54487   0.00000  Uiso   1.00
C139   C     0.78874   0.42246   0.93242   0.00000  Uiso   1.00
C140   C     0.91707   0.35883   0.94677   0.00000  Uiso   1.00
C141   C     0.95836   0.36609   0.98996   0.00000  Uiso   1.00
C142   C     0.07889   0.30114   0.99621   0.00000  Uiso   1.00
C143   C     0.26654   0.21297   0.02391   0.00000  Uiso   1.00
C144   C     0.78809   0.49368   0.89324   0.00000  Uiso   1.00
C145   C     0.72092   0.61433   0.89144   0.00000  Uiso   1.00
C146   C     0.73286   0.66289   0.85262   0.00000  Uiso   1.00
C147   C     0.72020   0.78407   0.79721   0.00000  Uiso   1.00
C148   C     0.75743   0.32699   0.91219   0.00000  Uiso   1.00
C149   C     0.66446   0.30750   0.92631   0.00000  Uiso   1.00
C150   C     0.65057   0.21574   0.90344   0.00000  Uiso   1.00
C151   C     0.59030   0.07812   0.87747   0.00000  Uiso   1.00
C152   C     0.92935   0.29419   0.86668   0.00000  Uiso   1.00
C153   C     0.99344   0.28916   0.91106   0.00000  Uiso   1.00
C154   C     0.11394   0.22418   0.91724   0.00000  Uiso   1.00
C155   C     0.15540   0.23134   0.96044   0.00000  Uiso   1.00
C156   C     0.86446   0.42402   0.85754   0.00000  Uiso   1.00
C157   C     0.87649   0.47241   0.81871   0.00000  Uiso   1.00
C158   C     0.80937   0.59310   0.81685   0.00000  Uiso   1.00
C159   C     0.83380   0.25732   0.87649   0.00000  Uiso   1.00
C160   C     0.82004   0.16558   0.85359   0.00000  Uiso   1.00
C161   C     0.72708   0.14595   0.86768   0.00000  Uiso   1.00
H162   H     0.72928   0.47671   0.96021   0.00000  Uiso   1.00
H163   H     0.89923   0.42003   0.01758   0.00000  Uiso   1.00
H164   H     0.66182   0.66822   0.91907   0.00000  Uiso   1.00
H165   H     0.60538   0.36144   0.95394   0.00000  Uiso   1.00
H166   H     0.12135   0.32649   0.06545   0.00000  Uiso   1.00
H167   H     0.62072   0.84981   0.85771   0.00000  Uiso   1.00
H168   H     0.50169   0.20290   0.93125   0.00000  Uiso   1.00
H169   H     0.98881   0.23995   0.83889   0.00000  Uiso   1.00
H170   H     0.17302   0.17027   0.88961   0.00000  Uiso   1.00
H171   H     0.93560   0.41847   0.79109   0.00000  Uiso   1.00
H172   H     0.87916   0.11169   0.82597   0.00000  Uiso   1.00
H173   H     0.34356   0.12378   0.96157   0.00000  Uiso   1.00
H174   H     0.84293   0.64710   0.75384   0.00000  Uiso   1.00
H175   H     0.72391   0.00020   0.82738   0.00000  Uiso   1.00
O176   O     0.34895   0.18360   0.04906   0.00000  Uiso   1.00
O177   O     0.69213   0.87017   0.77652   0.00000  Uiso   1.00
O178   O     0.53597   0.02144   0.87301   0.00000  Uiso   1.00
N179   N     0.14836   0.28833   0.03404   0.00000  Uiso   1.00
N180   N     0.68032   0.77760   0.83983   0.00000  Uiso   1.00
N181   N     0.56902   0.17282   0.90857   0.00000  Uiso   1.00
N182   N     0.26793   0.17925   0.97815   0.00000  Uiso   1.00
N183   N     0.79989   0.66853   0.78393   0.00000  Uiso   1.00
N184   N     0.68859   0.06374   0.85268   0.00000  Uiso   1.00
C185   C     0.39310   0.77601   0.60457   0.00000  Uiso   1.00
C186   C     0.32195   0.71559   0.62028   0.00000  Uiso   1.00
C187   C     0.34027   0.65742   0.65958   0.00000  Uiso   1.00
C188   C     0.26574   0.60791   0.66791   0.00000  Uiso   1.00
C189   C     0.16893   0.51276   0.69685   0.00000  Uiso   1.00
C190   C     0.44053   0.71999   0.55726   0.00000  Uiso   1.00
C191   C     0.55856   0.66553   0.54357   0.00000  Uiso   1.00
C192   C     0.58384   0.61974   0.49886   0.00000  Uiso   1.00
C193   C     0.67113   0.53149   0.42995   0.00000  Uiso   1.00
C194   C     0.30378   0.90309   0.59842   0.00000  Uiso   1.00
C195   C     0.30684   0.00259   0.61932   0.00000  Uiso   1.00
C196   C     0.21700   0.11097   0.60925   0.00000  Uiso   1.00
C197   C     0.09196   0.30701   0.60424   0.00000  Uiso   1.00
C198   C     0.22814   0.79155   0.54950   0.00000  Uiso   1.00
C199   C     0.23235   0.72403   0.59037   0.00000  Uiso   1.00
C200   C     0.15777   0.67460   0.59864   0.00000  Uiso   1.00
C201   C     0.17597   0.61637   0.63794   0.00000  Uiso   1.00
C202   C     0.35094   0.72842   0.52735   0.00000  Uiso   1.00
C203   C     0.37605   0.68272   0.48264   0.00000  Uiso   1.00
C204   C     0.49409   0.62819   0.46889   0.00000  Uiso   1.00
C205   C     0.21418   0.91153   0.56851   0.00000  Uiso   1.00
C206   C     0.12433   0.01977   0.55839   0.00000  Uiso   1.00
C207   C     0.12725   0.11942   0.57928   0.00000  Uiso   1.00
H208   H     0.46286   0.76944   0.62786   0.00000  Uiso   1.00
H209   H     0.40963   0.65090   0.68272   0.00000  Uiso   1.00
H210   H     0.62787   0.65902   0.56673   0.00000  Uiso   1.00
H211   H     0.37619   0.99603   0.64247   0.00000  Uiso   1.00
H212   H     0.31113   0.52316   0.73034   0.00000  Uiso   1.00
H213   H     0.77131   0.54032   0.48577   0.00000  Uiso   1.00
H214   H     0.24059   0.25096   0.64548   0.00000  Uiso   1.00
H215   H     0.15839   0.79811   0.52620   0.00000  Uiso   1.00
H216   H     0.08844   0.68115   0.57549   0.00000  Uiso   1.00
H217   H     0.30669   0.68927   0.45950   0.00000  Uiso   1.00
H218   H     0.05501   0.02627   0.53524   0.00000  Uiso   1.00
H219   H     0.05044   0.54770   0.64330   0.00000  Uiso   1.00
H220   H     0.51063   0.56487   0.39874   0.00000  Uiso   1.00
H221   H     0.97990   0.27551   0.55845   0.00000  Uiso   1.00
O222   O     0.14029   0.45793   0.72107   0.00000  Uiso   1.00
O223   O     0.74403   0.48047   0.40020   0.00000  Uiso   1.00
O224   O     0.04773   0.41281   0.60974   0.00000  Uiso   1.00
N225   N     0.25936   0.54501   0.70309   0.00000  Uiso   1.00
N226   N     0.68960   0.56104   0.47444   0.00000  Uiso   1.00
N227   N     0.19344   0.22543   0.62375   0.00000  Uiso   1.00
N228   N     0.11908   0.55821   0.65626   0.00000  Uiso   1.00
N229   N     0.54933   0.57425   0.42761   0.00000  Uiso   1.00
N230   N     0.05317   0.23863   0.57692   0.00000  Uiso   1.00
C231   C     0.65356   0.83553   0.26230   0.00000  Uiso   1.00
C232   C     0.59685   0.96495   0.27977   0.00000  Uiso   1.00
C233   C     0.55343   0.00886   0.32343   0.00000  Uiso   1.00
C234   C     0.50487   0.12999   0.33271   0.00000  Uiso   1.00
C235   C     0.41752   0.31962   0.36489   0.00000  Uiso   1.00
C236   C     0.58221   0.82741   0.22146   0.00000  Uiso   1.00
C237   C     0.52649   0.75565   0.21610   0.00000  Uiso   1.00
C238   C     0.46562   0.76098   0.17629   0.00000  Uiso   1.00
C239   C     0.35560   0.73701   0.11793   0.00000  Uiso   1.00
C240   C     0.77542   0.80815   0.24374   0.00000  Uiso   1.00
C241   C     0.88216   0.72018   0.25709   0.00000  Uiso   1.00
C242   C     0.98396   0.70928   0.23603   0.00000  Uiso   1.00
C243   C     0.17393   0.65540   0.21225   0.00000  Uiso   1.00
C244   C     0.64454   0.97256   0.20113   0.00000  Uiso   1.00
C245   C     0.59195   0.03938   0.24654   0.00000  Uiso   1.00
C246   C     0.54346   0.16047   0.25576   0.00000  Uiso   1.00
C247   C     0.49997   0.20455   0.29943   0.00000  Uiso   1.00
C248   C     0.57731   0.90183   0.18824   0.00000  Uiso   1.00
C249   C     0.51651   0.90726   0.14842   0.00000  Uiso   1.00
C250   C     0.46071   0.83554   0.14300   0.00000  Uiso   1.00
C251   C     0.77052   0.88258   0.21051   0.00000  Uiso   1.00
C252   C     0.87218   0.87180   0.18942   0.00000  Uiso   1.00
C253   C     0.97905   0.78384   0.20274   0.00000  Uiso   1.00
H254   H     0.65737   0.77759   0.28816   0.00000  Uiso   1.00
H255   H     0.55723   0.95123   0.34914   0.00000  Uiso   1.00
H256   H     0.53030   0.69806   0.24182   0.00000  Uiso   1.00
H257   H     0.88591   0.66260   0.28280   0.00000  Uiso   1.00
H258   H     0.44401   0.17658   0.40208   0.00000  Uiso   1.00
H259   H     0.38727   0.64272   0.17579   0.00000  Uiso   1.00
H260   H     0.13715   0.56794   0.26222   0.00000  Uiso   1.00
H261   H     0.64073   0.03051   0.17526   0.00000  Uiso   1.00
H262   H     0.53968   0.21804   0.23004   0.00000  Uiso   1.00
H263   H     0.51275   0.96486   0.12272   0.00000  Uiso   1.00
H264   H     0.86836   0.92941   0.16371   0.00000  Uiso   1.00
H265   H     0.42976   0.39314   0.30542   0.00000  Uiso   1.00
H266   H     0.37302   0.85926   0.07912   0.00000  Uiso   1.00
H267   H     0.12289   0.78449   0.16555   0.00000  Uiso   1.00
O268   O     0.37067   0.40367   0.39182   0.00000  Uiso   1.00
O269   O     0.29625   0.70324   0.09492   0.00000  Uiso   1.00
O270   O     0.28007   0.60514   0.20832   0.00000  Uiso   1.00
N271   N     0.45454   0.20181   0.37181   0.00000  Uiso   1.00
N272   N     0.40148   0.70269   0.16025   0.00000  Uiso   1.00
N273   N     0.10255   0.63276   0.24104   0.00000  Uiso   1.00
N274   N     0.44688   0.31834   0.31980   0.00000  Uiso   1.00
N275   N     0.39381   0.81922   0.10823   0.00000  Uiso   1.00
N276   N     0.09488   0.74929   0.18903   0.00000  Uiso   1.00
