data_job_04183
_audit_creation_date              2018-12-19
_audit_creation_method            'Materials Studio'
_symmetry_space_group_name_H-M    'P1'
_symmetry_Int_Tables_number       1
_symmetry_cell_setting            triclinic
loop_
_symmetry_equiv_pos_as_xyz
  x,y,z
_cell_length_a                    9.7530
_cell_length_b                    23.2960
_cell_length_c                    22.7125
_cell_angle_alpha                 90.0000
_cell_angle_beta                  116.9731
_cell_angle_gamma                 90.0000
loop_
_atom_site_label
_atom_site_type_symbol
_atom_site_fract_x
_atom_site_fract_y
_atom_site_fract_z
_atom_site_U_iso_or_equiv
_atom_site_adp_type
_atom_site_occupancy
C1     C     0.60032   0.15438   0.54313   0.00000  Uiso   1.00
C2     C     0.44056   0.15440   0.53976   0.00000  Uiso   1.00
C3     C     0.30210   0.15412   0.48237   0.00000  Uiso   1.00
C4     C     0.16837   0.15420   0.48975   0.00000  Uiso   1.00
C5     C     0.91958   0.15421   0.47500   0.00000  Uiso   1.00
C6     C     0.68286   0.20689   0.58390   0.00000  Uiso   1.00
C7     C     0.74814   0.25073   0.56363   0.00000  Uiso   1.00
C8     C     0.81840   0.29499   0.60818   0.00000  Uiso   1.00
C9     C     0.94588   0.37646   0.66197   0.00000  Uiso   1.00
C10    C     0.68354   0.10232   0.58466   0.00000  Uiso   1.00
C11    C     0.74942   0.05823   0.56504   0.00000  Uiso   1.00
C12    C     0.82029   0.01446   0.61024   0.00000  Uiso   1.00
C13    C     0.94881   0.93356   0.66522   0.00000  Uiso   1.00
C14    C     0.60906   0.15505   0.65830   0.00000  Uiso   1.00
C15    C     0.44531   0.15477   0.60231   0.00000  Uiso   1.00
C16    C     0.31176   0.15485   0.60979   0.00000  Uiso   1.00
C17    C     0.17312   0.15456   0.55242   0.00000  Uiso   1.00
C18    C     0.68760   0.20725   0.64645   0.00000  Uiso   1.00
C19    C     0.75780   0.25146   0.69105   0.00000  Uiso   1.00
C20    C     0.82315   0.29535   0.67084   0.00000  Uiso   1.00
C21    C     0.68828   0.10267   0.64722   0.00000  Uiso   1.00
C22    C     0.75907   0.05896   0.69246   0.00000  Uiso   1.00
C23    C     0.82504   0.01482   0.67291   0.00000  Uiso   1.00
H24    H     0.59664   0.15411   0.49443   0.00000  Uiso   1.00
H25    H     0.29848   0.15384   0.43397   0.00000  Uiso   1.00
H26    H     0.74446   0.25044   0.51522   0.00000  Uiso   1.00
H27    H     0.74573   0.05797   0.51663   0.00000  Uiso   1.00
H28    H     0.97000   0.15373   0.39452   0.00000  Uiso   1.00
H29    H     0.91043   0.35739   0.56584   0.00000  Uiso   1.00
H30    H     0.91311   0.95154   0.56882   0.00000  Uiso   1.00
H31    H     0.61275   0.15533   0.70701   0.00000  Uiso   1.00
H32    H     0.31546   0.15513   0.65820   0.00000  Uiso   1.00
H33    H     0.76145   0.25172   0.73945   0.00000  Uiso   1.00
H34    H     0.76272   0.05926   0.74086   0.00000  Uiso   1.00
H35    H     0.98379   0.15478   0.57652   0.00000  Uiso   1.00
H36    H     0.92422   0.35843   0.74784   0.00000  Uiso   1.00
H37    H     0.92690   0.95258   0.75082   0.00000  Uiso   1.00
O38    O     0.78104   0.15412   0.44958   0.00000  Uiso   1.00
O39    O     0.01487   0.42131   0.67435   0.00000  Uiso   1.00
O40    O     0.01838   0.88884   0.67826   0.00000  Uiso   1.00
N41    N     0.01404   0.15399   0.44405   0.00000  Uiso   1.00
N42    N     0.89327   0.34441   0.60422   0.00000  Uiso   1.00
N43    N     0.89581   0.96498   0.60701   0.00000  Uiso   1.00
N44    N     0.02146   0.15456   0.54198   0.00000  Uiso   1.00
N45    N     0.90068   0.34497   0.70216   0.00000  Uiso   1.00
N46    N     0.90323   0.96554   0.70495   0.00000  Uiso   1.00
C47    C     0.39968   0.65438   0.95687   0.00000  Uiso   1.00
C48    C     0.55944   0.65440   0.96024   0.00000  Uiso   1.00
C49    C     0.69790   0.65412   0.01763   0.00000  Uiso   1.00
C50    C     0.83163   0.65420   0.01025   0.00000  Uiso   1.00
C51    C     0.08042   0.65421   0.02500   0.00000  Uiso   1.00
C52    C     0.31714   0.70689   0.91610   0.00000  Uiso   1.00
C53    C     0.25186   0.75073   0.93637   0.00000  Uiso   1.00
C54    C     0.18160   0.79499   0.89182   0.00000  Uiso   1.00
C55    C     0.05412   0.87646   0.83803   0.00000  Uiso   1.00
C56    C     0.31646   0.60232   0.91534   0.00000  Uiso   1.00
C57    C     0.25058   0.55823   0.93496   0.00000  Uiso   1.00
C58    C     0.17971   0.51446   0.88976   0.00000  Uiso   1.00
C59    C     0.05119   0.43356   0.83478   0.00000  Uiso   1.00
C60    C     0.39094   0.65505   0.84170   0.00000  Uiso   1.00
C61    C     0.55469   0.65477   0.89769   0.00000  Uiso   1.00
C62    C     0.68824   0.65485   0.89021   0.00000  Uiso   1.00
C63    C     0.82688   0.65456   0.94758   0.00000  Uiso   1.00
C64    C     0.31240   0.70725   0.85355   0.00000  Uiso   1.00
C65    C     0.24220   0.75146   0.80895   0.00000  Uiso   1.00
C66    C     0.17685   0.79535   0.82916   0.00000  Uiso   1.00
C67    C     0.31172   0.60267   0.85278   0.00000  Uiso   1.00
C68    C     0.24093   0.55896   0.80754   0.00000  Uiso   1.00
C69    C     0.17496   0.51482   0.82709   0.00000  Uiso   1.00
H70    H     0.40336   0.65411   0.00557   0.00000  Uiso   1.00
H71    H     0.70152   0.65384   0.06603   0.00000  Uiso   1.00
H72    H     0.25554   0.75044   0.98478   0.00000  Uiso   1.00
H73    H     0.25427   0.55797   0.98337   0.00000  Uiso   1.00
H74    H     0.03000   0.65373   0.10548   0.00000  Uiso   1.00
H75    H     0.08957   0.85739   0.93416   0.00000  Uiso   1.00
H76    H     0.08689   0.45154   0.93118   0.00000  Uiso   1.00
H77    H     0.38725   0.65533   0.79299   0.00000  Uiso   1.00
H78    H     0.68454   0.65513   0.84180   0.00000  Uiso   1.00
H79    H     0.23855   0.75172   0.76055   0.00000  Uiso   1.00
H80    H     0.23728   0.55926   0.75914   0.00000  Uiso   1.00
H81    H     0.01621   0.65478   0.92348   0.00000  Uiso   1.00
H82    H     0.07578   0.85843   0.75216   0.00000  Uiso   1.00
H83    H     0.07310   0.45258   0.74918   0.00000  Uiso   1.00
O84    O     0.21896   0.65412   0.05042   0.00000  Uiso   1.00
O85    O     0.98513   0.92131   0.82565   0.00000  Uiso   1.00
O86    O     0.98162   0.38884   0.82174   0.00000  Uiso   1.00
N87    N     0.98596   0.65399   0.05595   0.00000  Uiso   1.00
N88    N     0.10673   0.84441   0.89578   0.00000  Uiso   1.00
N89    N     0.10419   0.46498   0.89299   0.00000  Uiso   1.00
N90    N     0.97854   0.65456   0.95802   0.00000  Uiso   1.00
N91    N     0.09932   0.84497   0.79784   0.00000  Uiso   1.00
N92    N     0.09677   0.46554   0.79505   0.00000  Uiso   1.00
C93    C     0.39968   0.84562   0.45687   0.00000  Uiso   1.00
C94    C     0.55944   0.84560   0.46024   0.00000  Uiso   1.00
C95    C     0.69790   0.84588   0.51763   0.00000  Uiso   1.00
C96    C     0.83163   0.84580   0.51025   0.00000  Uiso   1.00
C97    C     0.08042   0.84579   0.52500   0.00000  Uiso   1.00
C98    C     0.31714   0.79311   0.41610   0.00000  Uiso   1.00
C99    C     0.25186   0.74927   0.43637   0.00000  Uiso   1.00
C100   C     0.18160   0.70501   0.39182   0.00000  Uiso   1.00
C101   C     0.05412   0.62354   0.33803   0.00000  Uiso   1.00
C102   C     0.31646   0.89768   0.41534   0.00000  Uiso   1.00
C103   C     0.25058   0.94177   0.43496   0.00000  Uiso   1.00
C104   C     0.17971   0.98554   0.38976   0.00000  Uiso   1.00
C105   C     0.05119   0.06644   0.33478   0.00000  Uiso   1.00
C106   C     0.39094   0.84495   0.34170   0.00000  Uiso   1.00
C107   C     0.55469   0.84523   0.39769   0.00000  Uiso   1.00
C108   C     0.68824   0.84515   0.39021   0.00000  Uiso   1.00
C109   C     0.82688   0.84544   0.44758   0.00000  Uiso   1.00
C110   C     0.31240   0.79275   0.35355   0.00000  Uiso   1.00
C111   C     0.24220   0.74854   0.30895   0.00000  Uiso   1.00
C112   C     0.17685   0.70465   0.32916   0.00000  Uiso   1.00
C113   C     0.31172   0.89733   0.35278   0.00000  Uiso   1.00
C114   C     0.24093   0.94104   0.30754   0.00000  Uiso   1.00
C115   C     0.17496   0.98518   0.32709   0.00000  Uiso   1.00
H116   H     0.40336   0.84589   0.50557   0.00000  Uiso   1.00
H117   H     0.70152   0.84616   0.56603   0.00000  Uiso   1.00
H118   H     0.25554   0.74956   0.48478   0.00000  Uiso   1.00
H119   H     0.25427   0.94203   0.48337   0.00000  Uiso   1.00
H120   H     0.03000   0.84627   0.60548   0.00000  Uiso   1.00
H121   H     0.08957   0.64261   0.43416   0.00000  Uiso   1.00
H122   H     0.08689   0.04846   0.43118   0.00000  Uiso   1.00
H123   H     0.38725   0.84467   0.29299   0.00000  Uiso   1.00
H124   H     0.68454   0.84487   0.34180   0.00000  Uiso   1.00
H125   H     0.23855   0.74828   0.26055   0.00000  Uiso   1.00
H126   H     0.23728   0.94074   0.25914   0.00000  Uiso   1.00
H127   H     0.01621   0.84522   0.42348   0.00000  Uiso   1.00
H128   H     0.07578   0.64157   0.25216   0.00000  Uiso   1.00
H129   H     0.07310   0.04742   0.24918   0.00000  Uiso   1.00
O130   O     0.21896   0.84588   0.55042   0.00000  Uiso   1.00
O131   O     0.98513   0.57869   0.32565   0.00000  Uiso   1.00
O132   O     0.98162   0.11116   0.32174   0.00000  Uiso   1.00
N133   N     0.98596   0.84601   0.55595   0.00000  Uiso   1.00
N134   N     0.10673   0.65559   0.39578   0.00000  Uiso   1.00
N135   N     0.10419   0.03502   0.39299   0.00000  Uiso   1.00
N136   N     0.97854   0.84544   0.45802   0.00000  Uiso   1.00
N137   N     0.09932   0.65503   0.29784   0.00000  Uiso   1.00
N138   N     0.09677   0.03446   0.29505   0.00000  Uiso   1.00
C139   C     0.60032   0.34562   0.04313   0.00000  Uiso   1.00
C140   C     0.44056   0.34560   0.03976   0.00000  Uiso   1.00
C141   C     0.30210   0.34588   0.98237   0.00000  Uiso   1.00
C142   C     0.16837   0.34580   0.98975   0.00000  Uiso   1.00
C143   C     0.91958   0.34579   0.97500   0.00000  Uiso   1.00
C144   C     0.68286   0.29311   0.08390   0.00000  Uiso   1.00
C145   C     0.74814   0.24927   0.06363   0.00000  Uiso   1.00
C146   C     0.81840   0.20501   0.10818   0.00000  Uiso   1.00
C147   C     0.94588   0.12354   0.16197   0.00000  Uiso   1.00
C148   C     0.68354   0.39768   0.08466   0.00000  Uiso   1.00
C149   C     0.74942   0.44177   0.06504   0.00000  Uiso   1.00
C150   C     0.82029   0.48554   0.11024   0.00000  Uiso   1.00
C151   C     0.94881   0.56644   0.16522   0.00000  Uiso   1.00
C152   C     0.60906   0.34495   0.15830   0.00000  Uiso   1.00
C153   C     0.44531   0.34523   0.10231   0.00000  Uiso   1.00
C154   C     0.31176   0.34515   0.10979   0.00000  Uiso   1.00
C155   C     0.17312   0.34544   0.05242   0.00000  Uiso   1.00
C156   C     0.68760   0.29275   0.14645   0.00000  Uiso   1.00
C157   C     0.75780   0.24854   0.19105   0.00000  Uiso   1.00
C158   C     0.82315   0.20465   0.17084   0.00000  Uiso   1.00
C159   C     0.68828   0.39733   0.14722   0.00000  Uiso   1.00
C160   C     0.75907   0.44104   0.19246   0.00000  Uiso   1.00
C161   C     0.82504   0.48518   0.17291   0.00000  Uiso   1.00
H162   H     0.59664   0.34589   0.99443   0.00000  Uiso   1.00
H163   H     0.29848   0.34616   0.93397   0.00000  Uiso   1.00
H164   H     0.74446   0.24956   0.01522   0.00000  Uiso   1.00
H165   H     0.74573   0.44203   0.01663   0.00000  Uiso   1.00
H166   H     0.97000   0.34627   0.89452   0.00000  Uiso   1.00
H167   H     0.91043   0.14261   0.06584   0.00000  Uiso   1.00
H168   H     0.91311   0.54846   0.06882   0.00000  Uiso   1.00
H169   H     0.61275   0.34467   0.20701   0.00000  Uiso   1.00
H170   H     0.31546   0.34487   0.15820   0.00000  Uiso   1.00
H171   H     0.76145   0.24828   0.23945   0.00000  Uiso   1.00
H172   H     0.76272   0.44074   0.24086   0.00000  Uiso   1.00
H173   H     0.98379   0.34522   0.07652   0.00000  Uiso   1.00
H174   H     0.92422   0.14157   0.24784   0.00000  Uiso   1.00
H175   H     0.92690   0.54742   0.25082   0.00000  Uiso   1.00
O176   O     0.78104   0.34588   0.94958   0.00000  Uiso   1.00
O177   O     0.01487   0.07869   0.17435   0.00000  Uiso   1.00
O178   O     0.01838   0.61116   0.17826   0.00000  Uiso   1.00
N179   N     0.01404   0.34601   0.94405   0.00000  Uiso   1.00
N180   N     0.89327   0.15559   0.10422   0.00000  Uiso   1.00
N181   N     0.89581   0.53502   0.10701   0.00000  Uiso   1.00
N182   N     0.02146   0.34544   0.04198   0.00000  Uiso   1.00
N183   N     0.90068   0.15503   0.20216   0.00000  Uiso   1.00
N184   N     0.90323   0.53446   0.20495   0.00000  Uiso   1.00
