data_job_00087
_audit_creation_date              2018-12-19
_audit_creation_method            'Materials Studio'
_symmetry_space_group_name_H-M    'P1'
_symmetry_Int_Tables_number       1
_symmetry_cell_setting            triclinic
loop_
_symmetry_equiv_pos_as_xyz
  x,y,z
_cell_length_a                    7.3311
_cell_length_b                    12.2188
_cell_length_c                    20.5774
_cell_angle_alpha                 90.9787
_cell_angle_beta                  89.9981
_cell_angle_gamma                 72.5490
loop_
_atom_site_label
_atom_site_type_symbol
_atom_site_fract_x
_atom_site_fract_y
_atom_site_fract_z
_atom_site_U_iso_or_equiv
_atom_site_adp_type
_atom_site_occupancy
C1     C     0.88756   0.07660   0.17837   0.00000  Uiso   1.00
C2     C     0.81525   0.06054   0.24596   0.00000  Uiso   1.00
C3     C     0.92104   0.04703   0.30279   0.00000  Uiso   1.00
C4     C     0.82895   0.03348   0.35968   0.00000  Uiso   1.00
C5     C     0.74576   0.00849   0.46463   0.00000  Uiso   1.00
C6     C     0.85501   0.98102   0.13566   0.00000  Uiso   1.00
C7     C     0.99423   0.90068   0.09973   0.00000  Uiso   1.00
C8     C     0.93559   0.82021   0.06377   0.00000  Uiso   1.00
C9     C     0.91410   0.67182   0.99743   0.00000  Uiso   1.00
C10    C     0.75142   0.18820   0.15350   0.00000  Uiso   1.00
C11    C     0.80354   0.28205   0.13256   0.00000  Uiso   1.00
C12    C     0.65768   0.37600   0.11161   0.00000  Uiso   1.00
C13    C     0.47536   0.54929   0.07297   0.00000  Uiso   1.00
C14    C     0.53588   0.07657   0.17837   0.00000  Uiso   1.00
C15    C     0.62423   0.06052   0.24596   0.00000  Uiso   1.00
C16    C     0.53195   0.04700   0.30279   0.00000  Uiso   1.00
C17    C     0.63758   0.03348   0.35969   0.00000  Uiso   1.00
C18    C     0.66400   0.98101   0.13566   0.00000  Uiso   1.00
C19    C     0.60514   0.90065   0.09973   0.00000  Uiso   1.00
C20    C     0.74423   0.82019   0.06377   0.00000  Uiso   1.00
C21    C     0.56040   0.18819   0.15350   0.00000  Uiso   1.00
C22    C     0.41444   0.28202   0.13257   0.00000  Uiso   1.00
C23    C     0.46632   0.37599   0.11161   0.00000  Uiso   1.00
H24    H     0.03627   0.07661   0.17837   0.00000  Uiso   1.00
H25    H     0.06887   0.04703   0.30277   0.00000  Uiso   1.00
H26    H     0.14203   0.90072   0.09974   0.00000  Uiso   1.00
H27    H     0.95137   0.28203   0.13257   0.00000  Uiso   1.00
H28    H     0.02079   0.01420   0.44068   0.00000  Uiso   1.00
H29    H     0.17505   0.70570   0.01257   0.00000  Uiso   1.00
H30    H     0.77300   0.50977   0.08179   0.00000  Uiso   1.00
H31    H     0.38716   0.07656   0.17837   0.00000  Uiso   1.00
H32    H     0.38413   0.04699   0.30277   0.00000  Uiso   1.00
H33    H     0.45730   0.90067   0.09974   0.00000  Uiso   1.00
H34    H     0.26664   0.28198   0.13257   0.00000  Uiso   1.00
H35    H     0.46503   0.01416   0.44068   0.00000  Uiso   1.00
H36    H     0.61930   0.70566   0.01257   0.00000  Uiso   1.00
H37    H     0.21724   0.50973   0.08180   0.00000  Uiso   1.00
O38    O     0.75265   0.99469   0.52251   0.00000  Uiso   1.00
O39    O     0.95503   0.58997   0.96084   0.00000  Uiso   1.00
O40    O     0.42755   0.64489   0.05167   0.00000  Uiso   1.00
N41    N     0.89039   0.01827   0.42361   0.00000  Uiso   1.00
N42    N     0.03463   0.72983   0.02336   0.00000  Uiso   1.00
N43    N     0.65875   0.48156   0.08806   0.00000  Uiso   1.00
N44    N     0.59134   0.01825   0.42361   0.00000  Uiso   1.00
N45    N     0.73558   0.72981   0.02336   0.00000  Uiso   1.00
N46    N     0.35970   0.48154   0.08807   0.00000  Uiso   1.00
C47    C     0.11244   0.92340   0.82163   0.00000  Uiso   1.00
C48    C     0.18475   0.93946   0.75404   0.00000  Uiso   1.00
C49    C     0.07896   0.95297   0.69721   0.00000  Uiso   1.00
C50    C     0.17105   0.96652   0.64032   0.00000  Uiso   1.00
C51    C     0.25424   0.99151   0.53537   0.00000  Uiso   1.00
C52    C     0.14499   0.01898   0.86434   0.00000  Uiso   1.00
C53    C     0.00577   0.09932   0.90027   0.00000  Uiso   1.00
C54    C     0.06441   0.17979   0.93623   0.00000  Uiso   1.00
C55    C     0.08590   0.32818   0.00257   0.00000  Uiso   1.00
C56    C     0.24858   0.81180   0.84650   0.00000  Uiso   1.00
C57    C     0.19646   0.71795   0.86744   0.00000  Uiso   1.00
C58    C     0.34232   0.62400   0.88839   0.00000  Uiso   1.00
C59    C     0.52464   0.45071   0.92703   0.00000  Uiso   1.00
C60    C     0.46412   0.92343   0.82163   0.00000  Uiso   1.00
C61    C     0.37577   0.93948   0.75404   0.00000  Uiso   1.00
C62    C     0.46805   0.95300   0.69721   0.00000  Uiso   1.00
C63    C     0.36242   0.96652   0.64031   0.00000  Uiso   1.00
C64    C     0.33600   0.01899   0.86434   0.00000  Uiso   1.00
C65    C     0.39486   0.09935   0.90027   0.00000  Uiso   1.00
C66    C     0.25577   0.17981   0.93623   0.00000  Uiso   1.00
C67    C     0.43960   0.81181   0.84650   0.00000  Uiso   1.00
C68    C     0.58556   0.71798   0.86743   0.00000  Uiso   1.00
C69    C     0.53368   0.62401   0.88839   0.00000  Uiso   1.00
H70    H     0.96373   0.92339   0.82163   0.00000  Uiso   1.00
H71    H     0.93113   0.95297   0.69723   0.00000  Uiso   1.00
H72    H     0.85797   0.09928   0.90026   0.00000  Uiso   1.00
H73    H     0.04863   0.71797   0.86743   0.00000  Uiso   1.00
H74    H     0.97921   0.98580   0.55932   0.00000  Uiso   1.00
H75    H     0.82495   0.29430   0.98743   0.00000  Uiso   1.00
H76    H     0.22700   0.49023   0.91821   0.00000  Uiso   1.00
H77    H     0.61284   0.92344   0.82163   0.00000  Uiso   1.00
H78    H     0.61587   0.95301   0.69723   0.00000  Uiso   1.00
H79    H     0.54270   0.09933   0.90026   0.00000  Uiso   1.00
H80    H     0.73336   0.71802   0.86743   0.00000  Uiso   1.00
H81    H     0.53497   0.98584   0.55932   0.00000  Uiso   1.00
H82    H     0.38070   0.29434   0.98743   0.00000  Uiso   1.00
H83    H     0.78276   0.49027   0.91820   0.00000  Uiso   1.00
O84    O     0.24735   0.00531   0.47749   0.00000  Uiso   1.00
O85    O     0.04497   0.41003   0.03916   0.00000  Uiso   1.00
O86    O     0.57245   0.35511   0.94833   0.00000  Uiso   1.00
N87    N     0.10961   0.98173   0.57639   0.00000  Uiso   1.00
N88    N     0.96537   0.27017   0.97664   0.00000  Uiso   1.00
N89    N     0.34125   0.51844   0.91194   0.00000  Uiso   1.00
N90    N     0.40866   0.98175   0.57639   0.00000  Uiso   1.00
N91    N     0.26442   0.27019   0.97664   0.00000  Uiso   1.00
N92    N     0.64030   0.51846   0.91193   0.00000  Uiso   1.00
