data_job_01342
_audit_creation_date              2018-12-19
_audit_creation_method            'Materials Studio'
_symmetry_space_group_name_H-M    'P1'
_symmetry_Int_Tables_number       1
_symmetry_cell_setting            triclinic
loop_
_symmetry_equiv_pos_as_xyz
  x,y,z
_cell_length_a                    21.1728
_cell_length_b                    12.2950
_cell_length_c                    26.1185
_cell_angle_alpha                 90.0000
_cell_angle_beta                  126.6082
_cell_angle_gamma                 90.0000
loop_
_atom_site_label
_atom_site_type_symbol
_atom_site_fract_x
_atom_site_fract_y
_atom_site_fract_z
_atom_site_U_iso_or_equiv
_atom_site_adp_type
_atom_site_occupancy
C1     C     0.67779   0.63344   0.44742   0.00000  Uiso   1.00
C2     C     0.71863   0.58733   0.41993   0.00000  Uiso   1.00
C3     C     0.78500   0.63042   0.42863   0.00000  Uiso   1.00
C4     C     0.81337   0.57627   0.39951   0.00000  Uiso   1.00
C5     C     0.88235   0.51898   0.36234   0.00000  Uiso   1.00
C6     C     0.59249   0.65311   0.39064   0.00000  Uiso   1.00
C7     C     0.55280   0.75152   0.37472   0.00000  Uiso   1.00
C8     C     0.47498   0.75274   0.32094   0.00000  Uiso   1.00
C9     C     0.34811   0.79757   0.23832   0.00000  Uiso   1.00
C10    C     0.67590   0.54145   0.48565   0.00000  Uiso   1.00
C11    C     0.70632   0.54598   0.54962   0.00000  Uiso   1.00
C12    C     0.69870   0.45319   0.57584   0.00000  Uiso   1.00
C13    C     0.70133   0.32465   0.64074   0.00000  Uiso   1.00
C14    C     0.61016   0.46063   0.38023   0.00000  Uiso   1.00
C15    C     0.68189   0.49347   0.38343   0.00000  Uiso   1.00
C16    C     0.71017   0.43923   0.35429   0.00000  Uiso   1.00
C17    C     0.77657   0.48224   0.36295   0.00000  Uiso   1.00
C18    C     0.55575   0.55926   0.35414   0.00000  Uiso   1.00
C19    C     0.47797   0.56033   0.30037   0.00000  Uiso   1.00
C20    C     0.43818   0.65871   0.28437   0.00000  Uiso   1.00
C21    C     0.63916   0.44759   0.44915   0.00000  Uiso   1.00
C22    C     0.63149   0.35478   0.47527   0.00000  Uiso   1.00
C23    C     0.66190   0.35916   0.53927   0.00000  Uiso   1.00
H24    H     0.70639   0.70651   0.47584   0.00000  Uiso   1.00
H25    H     0.81341   0.70307   0.45688   0.00000  Uiso   1.00
H26    H     0.58124   0.82413   0.40298   0.00000  Uiso   1.00
H27    H     0.73474   0.61862   0.57785   0.00000  Uiso   1.00
H28    H     0.91584   0.65787   0.41975   0.00000  Uiso   1.00
H29    H     0.42630   0.91315   0.30610   0.00000  Uiso   1.00
H30    H     0.74998   0.47979   0.67486   0.00000  Uiso   1.00
H31    H     0.58155   0.38755   0.35181   0.00000  Uiso   1.00
H32    H     0.68173   0.36660   0.32604   0.00000  Uiso   1.00
H33    H     0.44956   0.48768   0.27214   0.00000  Uiso   1.00
H34    H     0.60306   0.28216   0.44701   0.00000  Uiso   1.00
H35    H     0.80897   0.38479   0.31355   0.00000  Uiso   1.00
H36    H     0.31942   0.64007   0.19991   0.00000  Uiso   1.00
H37    H     0.64310   0.20670   0.56866   0.00000  Uiso   1.00
O38    O     0.93054   0.51332   0.35192   0.00000  Uiso   1.00
O39    O     0.28828   0.84823   0.20283   0.00000  Uiso   1.00
O40    O     0.71293   0.27967   0.68663   0.00000  Uiso   1.00
N41    N     0.87695   0.59647   0.39830   0.00000  Uiso   1.00
N42    N     0.41926   0.83514   0.29204   0.00000  Uiso   1.00
N43    N     0.72185   0.42999   0.63679   0.00000  Uiso   1.00
N44    N     0.81944   0.44952   0.34116   0.00000  Uiso   1.00
N45    N     0.36175   0.68819   0.23490   0.00000  Uiso   1.00
N46    N     0.66434   0.28305   0.57965   0.00000  Uiso   1.00
C47    C     0.17779   0.13344   0.44742   0.00000  Uiso   1.00
C48    C     0.21863   0.08733   0.41993   0.00000  Uiso   1.00
C49    C     0.28500   0.13042   0.42863   0.00000  Uiso   1.00
C50    C     0.31337   0.07627   0.39951   0.00000  Uiso   1.00
C51    C     0.38235   0.01898   0.36234   0.00000  Uiso   1.00
C52    C     0.09249   0.15311   0.39064   0.00000  Uiso   1.00
C53    C     0.05280   0.25152   0.37472   0.00000  Uiso   1.00
C54    C     0.97498   0.25274   0.32094   0.00000  Uiso   1.00
C55    C     0.84811   0.29757   0.23832   0.00000  Uiso   1.00
C56    C     0.17590   0.04145   0.48565   0.00000  Uiso   1.00
C57    C     0.20632   0.04598   0.54962   0.00000  Uiso   1.00
C58    C     0.19870   0.95319   0.57584   0.00000  Uiso   1.00
C59    C     0.20133   0.82465   0.64074   0.00000  Uiso   1.00
C60    C     0.11016   0.96063   0.38023   0.00000  Uiso   1.00
C61    C     0.18189   0.99347   0.38343   0.00000  Uiso   1.00
C62    C     0.21017   0.93923   0.35429   0.00000  Uiso   1.00
C63    C     0.27657   0.98224   0.36295   0.00000  Uiso   1.00
C64    C     0.05575   0.05926   0.35414   0.00000  Uiso   1.00
C65    C     0.97797   0.06033   0.30037   0.00000  Uiso   1.00
C66    C     0.93818   0.15871   0.28437   0.00000  Uiso   1.00
C67    C     0.13916   0.94759   0.44915   0.00000  Uiso   1.00
C68    C     0.13149   0.85478   0.47527   0.00000  Uiso   1.00
C69    C     0.16190   0.85916   0.53927   0.00000  Uiso   1.00
H70    H     0.20639   0.20651   0.47584   0.00000  Uiso   1.00
H71    H     0.31341   0.20307   0.45688   0.00000  Uiso   1.00
H72    H     0.08124   0.32413   0.40298   0.00000  Uiso   1.00
H73    H     0.23474   0.11862   0.57785   0.00000  Uiso   1.00
H74    H     0.41584   0.15787   0.41975   0.00000  Uiso   1.00
H75    H     0.92630   0.41315   0.30610   0.00000  Uiso   1.00
H76    H     0.24998   0.97979   0.67486   0.00000  Uiso   1.00
H77    H     0.08155   0.88755   0.35181   0.00000  Uiso   1.00
H78    H     0.18173   0.86660   0.32604   0.00000  Uiso   1.00
H79    H     0.94956   0.98768   0.27214   0.00000  Uiso   1.00
H80    H     0.10306   0.78216   0.44701   0.00000  Uiso   1.00
H81    H     0.30897   0.88479   0.31355   0.00000  Uiso   1.00
H82    H     0.81942   0.14007   0.19991   0.00000  Uiso   1.00
H83    H     0.14310   0.70670   0.56866   0.00000  Uiso   1.00
O84    O     0.43054   0.01332   0.35192   0.00000  Uiso   1.00
O85    O     0.78828   0.34823   0.20283   0.00000  Uiso   1.00
O86    O     0.21293   0.77967   0.68663   0.00000  Uiso   1.00
N87    N     0.37695   0.09647   0.39830   0.00000  Uiso   1.00
N88    N     0.91926   0.33514   0.29204   0.00000  Uiso   1.00
N89    N     0.22185   0.92999   0.63679   0.00000  Uiso   1.00
N90    N     0.31944   0.94952   0.34116   0.00000  Uiso   1.00
N91    N     0.86175   0.18819   0.23490   0.00000  Uiso   1.00
N92    N     0.16434   0.78305   0.57965   0.00000  Uiso   1.00
C93    C     0.32221   0.63344   0.05258   0.00000  Uiso   1.00
C94    C     0.28137   0.58733   0.08007   0.00000  Uiso   1.00
C95    C     0.21500   0.63042   0.07137   0.00000  Uiso   1.00
C96    C     0.18663   0.57627   0.10049   0.00000  Uiso   1.00
C97    C     0.11765   0.51898   0.13766   0.00000  Uiso   1.00
C98    C     0.40751   0.65311   0.10936   0.00000  Uiso   1.00
C99    C     0.44720   0.75152   0.12528   0.00000  Uiso   1.00
C100   C     0.52502   0.75274   0.17906   0.00000  Uiso   1.00
C101   C     0.65189   0.79757   0.26168   0.00000  Uiso   1.00
C102   C     0.32410   0.54145   0.01435   0.00000  Uiso   1.00
C103   C     0.29368   0.54598   0.95038   0.00000  Uiso   1.00
C104   C     0.30130   0.45319   0.92416   0.00000  Uiso   1.00
C105   C     0.29867   0.32465   0.85926   0.00000  Uiso   1.00
C106   C     0.38984   0.46063   0.11977   0.00000  Uiso   1.00
C107   C     0.31811   0.49347   0.11657   0.00000  Uiso   1.00
C108   C     0.28983   0.43923   0.14571   0.00000  Uiso   1.00
C109   C     0.22343   0.48224   0.13705   0.00000  Uiso   1.00
C110   C     0.44425   0.55926   0.14586   0.00000  Uiso   1.00
C111   C     0.52203   0.56033   0.19963   0.00000  Uiso   1.00
C112   C     0.56182   0.65871   0.21563   0.00000  Uiso   1.00
C113   C     0.36084   0.44759   0.05085   0.00000  Uiso   1.00
C114   C     0.36851   0.35478   0.02473   0.00000  Uiso   1.00
C115   C     0.33810   0.35916   0.96073   0.00000  Uiso   1.00
H116   H     0.29361   0.70651   0.02416   0.00000  Uiso   1.00
H117   H     0.18659   0.70307   0.04312   0.00000  Uiso   1.00
H118   H     0.41876   0.82413   0.09702   0.00000  Uiso   1.00
H119   H     0.26526   0.61862   0.92215   0.00000  Uiso   1.00
H120   H     0.08416   0.65787   0.08025   0.00000  Uiso   1.00
H121   H     0.57370   0.91315   0.19390   0.00000  Uiso   1.00
H122   H     0.25002   0.47979   0.82514   0.00000  Uiso   1.00
H123   H     0.41845   0.38755   0.14819   0.00000  Uiso   1.00
H124   H     0.31827   0.36660   0.17396   0.00000  Uiso   1.00
H125   H     0.55044   0.48768   0.22786   0.00000  Uiso   1.00
H126   H     0.39694   0.28216   0.05299   0.00000  Uiso   1.00
H127   H     0.19103   0.38479   0.18645   0.00000  Uiso   1.00
H128   H     0.68058   0.64007   0.30009   0.00000  Uiso   1.00
H129   H     0.35690   0.20670   0.93134   0.00000  Uiso   1.00
O130   O     0.06946   0.51332   0.14808   0.00000  Uiso   1.00
O131   O     0.71172   0.84823   0.29717   0.00000  Uiso   1.00
O132   O     0.28707   0.27967   0.81337   0.00000  Uiso   1.00
N133   N     0.12305   0.59647   0.10170   0.00000  Uiso   1.00
N134   N     0.58074   0.83514   0.20796   0.00000  Uiso   1.00
N135   N     0.27815   0.42999   0.86321   0.00000  Uiso   1.00
N136   N     0.18056   0.44952   0.15884   0.00000  Uiso   1.00
N137   N     0.63825   0.68819   0.26510   0.00000  Uiso   1.00
N138   N     0.33566   0.28305   0.92035   0.00000  Uiso   1.00
C139   C     0.82221   0.13344   0.05258   0.00000  Uiso   1.00
C140   C     0.78137   0.08733   0.08007   0.00000  Uiso   1.00
C141   C     0.71500   0.13042   0.07137   0.00000  Uiso   1.00
C142   C     0.68663   0.07627   0.10049   0.00000  Uiso   1.00
C143   C     0.61765   0.01898   0.13766   0.00000  Uiso   1.00
C144   C     0.90751   0.15311   0.10936   0.00000  Uiso   1.00
C145   C     0.94720   0.25152   0.12528   0.00000  Uiso   1.00
C146   C     0.02502   0.25274   0.17906   0.00000  Uiso   1.00
C147   C     0.15189   0.29757   0.26168   0.00000  Uiso   1.00
C148   C     0.82410   0.04145   0.01435   0.00000  Uiso   1.00
C149   C     0.79368   0.04598   0.95038   0.00000  Uiso   1.00
C150   C     0.80130   0.95319   0.92416   0.00000  Uiso   1.00
C151   C     0.79867   0.82465   0.85926   0.00000  Uiso   1.00
C152   C     0.88984   0.96063   0.11977   0.00000  Uiso   1.00
C153   C     0.81811   0.99347   0.11657   0.00000  Uiso   1.00
C154   C     0.78983   0.93923   0.14571   0.00000  Uiso   1.00
C155   C     0.72343   0.98224   0.13705   0.00000  Uiso   1.00
C156   C     0.94425   0.05926   0.14586   0.00000  Uiso   1.00
C157   C     0.02203   0.06033   0.19963   0.00000  Uiso   1.00
C158   C     0.06182   0.15871   0.21563   0.00000  Uiso   1.00
C159   C     0.86084   0.94759   0.05085   0.00000  Uiso   1.00
C160   C     0.86851   0.85478   0.02473   0.00000  Uiso   1.00
C161   C     0.83810   0.85916   0.96073   0.00000  Uiso   1.00
H162   H     0.79361   0.20651   0.02416   0.00000  Uiso   1.00
H163   H     0.68659   0.20307   0.04312   0.00000  Uiso   1.00
H164   H     0.91876   0.32413   0.09702   0.00000  Uiso   1.00
H165   H     0.76526   0.11862   0.92215   0.00000  Uiso   1.00
H166   H     0.58416   0.15787   0.08025   0.00000  Uiso   1.00
H167   H     0.07370   0.41315   0.19390   0.00000  Uiso   1.00
H168   H     0.75002   0.97979   0.82514   0.00000  Uiso   1.00
H169   H     0.91845   0.88755   0.14819   0.00000  Uiso   1.00
H170   H     0.81827   0.86660   0.17396   0.00000  Uiso   1.00
H171   H     0.05044   0.98768   0.22786   0.00000  Uiso   1.00
H172   H     0.89694   0.78216   0.05299   0.00000  Uiso   1.00
H173   H     0.69103   0.88479   0.18645   0.00000  Uiso   1.00
H174   H     0.18058   0.14007   0.30009   0.00000  Uiso   1.00
H175   H     0.85690   0.70670   0.93134   0.00000  Uiso   1.00
O176   O     0.56946   0.01332   0.14808   0.00000  Uiso   1.00
O177   O     0.21172   0.34823   0.29717   0.00000  Uiso   1.00
O178   O     0.78707   0.77967   0.81337   0.00000  Uiso   1.00
N179   N     0.62305   0.09647   0.10170   0.00000  Uiso   1.00
N180   N     0.08074   0.33514   0.20796   0.00000  Uiso   1.00
N181   N     0.77815   0.92999   0.86321   0.00000  Uiso   1.00
N182   N     0.68056   0.94952   0.15884   0.00000  Uiso   1.00
N183   N     0.13825   0.18819   0.26510   0.00000  Uiso   1.00
N184   N     0.83566   0.78305   0.92035   0.00000  Uiso   1.00
C185   C     0.32221   0.36656   0.55258   0.00000  Uiso   1.00
C186   C     0.28137   0.41267   0.58007   0.00000  Uiso   1.00
C187   C     0.21500   0.36958   0.57137   0.00000  Uiso   1.00
C188   C     0.18663   0.42373   0.60049   0.00000  Uiso   1.00
C189   C     0.11765   0.48102   0.63766   0.00000  Uiso   1.00
C190   C     0.40751   0.34689   0.60936   0.00000  Uiso   1.00
C191   C     0.44720   0.24848   0.62528   0.00000  Uiso   1.00
C192   C     0.52502   0.24726   0.67906   0.00000  Uiso   1.00
C193   C     0.65189   0.20243   0.76168   0.00000  Uiso   1.00
C194   C     0.32410   0.45855   0.51435   0.00000  Uiso   1.00
C195   C     0.29368   0.45402   0.45038   0.00000  Uiso   1.00
C196   C     0.30130   0.54681   0.42416   0.00000  Uiso   1.00
C197   C     0.29867   0.67535   0.35926   0.00000  Uiso   1.00
C198   C     0.38984   0.53937   0.61977   0.00000  Uiso   1.00
C199   C     0.31811   0.50653   0.61657   0.00000  Uiso   1.00
C200   C     0.28983   0.56077   0.64571   0.00000  Uiso   1.00
C201   C     0.22343   0.51776   0.63705   0.00000  Uiso   1.00
C202   C     0.44425   0.44074   0.64586   0.00000  Uiso   1.00
C203   C     0.52203   0.43967   0.69963   0.00000  Uiso   1.00
C204   C     0.56182   0.34129   0.71563   0.00000  Uiso   1.00
C205   C     0.36084   0.55241   0.55085   0.00000  Uiso   1.00
C206   C     0.36851   0.64522   0.52473   0.00000  Uiso   1.00
C207   C     0.33810   0.64084   0.46073   0.00000  Uiso   1.00
H208   H     0.29361   0.29349   0.52416   0.00000  Uiso   1.00
H209   H     0.18659   0.29693   0.54312   0.00000  Uiso   1.00
H210   H     0.41876   0.17587   0.59702   0.00000  Uiso   1.00
H211   H     0.26526   0.38138   0.42215   0.00000  Uiso   1.00
H212   H     0.08416   0.34213   0.58025   0.00000  Uiso   1.00
H213   H     0.57370   0.08685   0.69390   0.00000  Uiso   1.00
H214   H     0.25002   0.52021   0.32514   0.00000  Uiso   1.00
H215   H     0.41845   0.61245   0.64819   0.00000  Uiso   1.00
H216   H     0.31827   0.63340   0.67396   0.00000  Uiso   1.00
H217   H     0.55044   0.51232   0.72786   0.00000  Uiso   1.00
H218   H     0.39694   0.71784   0.55299   0.00000  Uiso   1.00
H219   H     0.19103   0.61521   0.68645   0.00000  Uiso   1.00
H220   H     0.68058   0.35993   0.80009   0.00000  Uiso   1.00
H221   H     0.35690   0.79330   0.43134   0.00000  Uiso   1.00
O222   O     0.06946   0.48668   0.64808   0.00000  Uiso   1.00
O223   O     0.71172   0.15177   0.79717   0.00000  Uiso   1.00
O224   O     0.28707   0.72033   0.31337   0.00000  Uiso   1.00
N225   N     0.12305   0.40353   0.60170   0.00000  Uiso   1.00
N226   N     0.58074   0.16486   0.70796   0.00000  Uiso   1.00
N227   N     0.27815   0.57001   0.36321   0.00000  Uiso   1.00
N228   N     0.18056   0.55048   0.65884   0.00000  Uiso   1.00
N229   N     0.63825   0.31181   0.76510   0.00000  Uiso   1.00
N230   N     0.33566   0.71695   0.42035   0.00000  Uiso   1.00
C231   C     0.82221   0.86656   0.55258   0.00000  Uiso   1.00
C232   C     0.78137   0.91267   0.58007   0.00000  Uiso   1.00
C233   C     0.71500   0.86958   0.57137   0.00000  Uiso   1.00
C234   C     0.68663   0.92373   0.60049   0.00000  Uiso   1.00
C235   C     0.61765   0.98102   0.63766   0.00000  Uiso   1.00
C236   C     0.90751   0.84689   0.60936   0.00000  Uiso   1.00
C237   C     0.94720   0.74848   0.62528   0.00000  Uiso   1.00
C238   C     0.02502   0.74726   0.67906   0.00000  Uiso   1.00
C239   C     0.15189   0.70243   0.76168   0.00000  Uiso   1.00
C240   C     0.82410   0.95855   0.51435   0.00000  Uiso   1.00
C241   C     0.79368   0.95402   0.45038   0.00000  Uiso   1.00
C242   C     0.80130   0.04681   0.42416   0.00000  Uiso   1.00
C243   C     0.79867   0.17535   0.35926   0.00000  Uiso   1.00
C244   C     0.88984   0.03937   0.61977   0.00000  Uiso   1.00
C245   C     0.81811   0.00653   0.61657   0.00000  Uiso   1.00
C246   C     0.78983   0.06077   0.64571   0.00000  Uiso   1.00
C247   C     0.72343   0.01776   0.63705   0.00000  Uiso   1.00
C248   C     0.94425   0.94074   0.64586   0.00000  Uiso   1.00
C249   C     0.02203   0.93967   0.69963   0.00000  Uiso   1.00
C250   C     0.06182   0.84129   0.71563   0.00000  Uiso   1.00
C251   C     0.86084   0.05241   0.55085   0.00000  Uiso   1.00
C252   C     0.86851   0.14522   0.52473   0.00000  Uiso   1.00
C253   C     0.83810   0.14084   0.46073   0.00000  Uiso   1.00
H254   H     0.79361   0.79349   0.52416   0.00000  Uiso   1.00
H255   H     0.68659   0.79693   0.54312   0.00000  Uiso   1.00
H256   H     0.91876   0.67587   0.59702   0.00000  Uiso   1.00
H257   H     0.76526   0.88138   0.42215   0.00000  Uiso   1.00
H258   H     0.58416   0.84213   0.58025   0.00000  Uiso   1.00
H259   H     0.07370   0.58685   0.69390   0.00000  Uiso   1.00
H260   H     0.75002   0.02021   0.32514   0.00000  Uiso   1.00
H261   H     0.91845   0.11245   0.64819   0.00000  Uiso   1.00
H262   H     0.81827   0.13340   0.67396   0.00000  Uiso   1.00
H263   H     0.05044   0.01232   0.72786   0.00000  Uiso   1.00
H264   H     0.89694   0.21784   0.55299   0.00000  Uiso   1.00
H265   H     0.69103   0.11521   0.68645   0.00000  Uiso   1.00
H266   H     0.18058   0.85993   0.80009   0.00000  Uiso   1.00
H267   H     0.85690   0.29330   0.43134   0.00000  Uiso   1.00
O268   O     0.56946   0.98668   0.64808   0.00000  Uiso   1.00
O269   O     0.21172   0.65177   0.79717   0.00000  Uiso   1.00
O270   O     0.78707   0.22033   0.31337   0.00000  Uiso   1.00
N271   N     0.62305   0.90353   0.60170   0.00000  Uiso   1.00
N272   N     0.08074   0.66486   0.70796   0.00000  Uiso   1.00
N273   N     0.77815   0.07001   0.36321   0.00000  Uiso   1.00
N274   N     0.68056   0.05048   0.65884   0.00000  Uiso   1.00
N275   N     0.13825   0.81181   0.76510   0.00000  Uiso   1.00
N276   N     0.83566   0.21695   0.42035   0.00000  Uiso   1.00
C277   C     0.67779   0.36656   0.94742   0.00000  Uiso   1.00
C278   C     0.71863   0.41267   0.91993   0.00000  Uiso   1.00
C279   C     0.78500   0.36958   0.92863   0.00000  Uiso   1.00
C280   C     0.81337   0.42373   0.89951   0.00000  Uiso   1.00
C281   C     0.88235   0.48102   0.86234   0.00000  Uiso   1.00
C282   C     0.59249   0.34689   0.89064   0.00000  Uiso   1.00
C283   C     0.55280   0.24848   0.87472   0.00000  Uiso   1.00
C284   C     0.47498   0.24726   0.82094   0.00000  Uiso   1.00
C285   C     0.34811   0.20243   0.73832   0.00000  Uiso   1.00
C286   C     0.67590   0.45855   0.98565   0.00000  Uiso   1.00
C287   C     0.70632   0.45402   0.04962   0.00000  Uiso   1.00
C288   C     0.69870   0.54681   0.07584   0.00000  Uiso   1.00
C289   C     0.70133   0.67535   0.14074   0.00000  Uiso   1.00
C290   C     0.61016   0.53937   0.88023   0.00000  Uiso   1.00
C291   C     0.68189   0.50653   0.88343   0.00000  Uiso   1.00
C292   C     0.71017   0.56077   0.85429   0.00000  Uiso   1.00
C293   C     0.77657   0.51776   0.86295   0.00000  Uiso   1.00
C294   C     0.55575   0.44074   0.85414   0.00000  Uiso   1.00
C295   C     0.47797   0.43967   0.80037   0.00000  Uiso   1.00
C296   C     0.43818   0.34129   0.78437   0.00000  Uiso   1.00
C297   C     0.63916   0.55241   0.94915   0.00000  Uiso   1.00
C298   C     0.63149   0.64522   0.97527   0.00000  Uiso   1.00
C299   C     0.66190   0.64084   0.03927   0.00000  Uiso   1.00
H300   H     0.70639   0.29349   0.97584   0.00000  Uiso   1.00
H301   H     0.81341   0.29693   0.95688   0.00000  Uiso   1.00
H302   H     0.58124   0.17587   0.90298   0.00000  Uiso   1.00
H303   H     0.73474   0.38138   0.07785   0.00000  Uiso   1.00
H304   H     0.91584   0.34213   0.91975   0.00000  Uiso   1.00
H305   H     0.42630   0.08685   0.80610   0.00000  Uiso   1.00
H306   H     0.74998   0.52021   0.17486   0.00000  Uiso   1.00
H307   H     0.58155   0.61245   0.85181   0.00000  Uiso   1.00
H308   H     0.68173   0.63340   0.82604   0.00000  Uiso   1.00
H309   H     0.44956   0.51232   0.77214   0.00000  Uiso   1.00
H310   H     0.60306   0.71784   0.94701   0.00000  Uiso   1.00
H311   H     0.80897   0.61521   0.81355   0.00000  Uiso   1.00
H312   H     0.31942   0.35993   0.69991   0.00000  Uiso   1.00
H313   H     0.64310   0.79330   0.06866   0.00000  Uiso   1.00
O314   O     0.93054   0.48668   0.85192   0.00000  Uiso   1.00
O315   O     0.28828   0.15177   0.70283   0.00000  Uiso   1.00
O316   O     0.71293   0.72033   0.18663   0.00000  Uiso   1.00
N317   N     0.87695   0.40353   0.89830   0.00000  Uiso   1.00
N318   N     0.41926   0.16486   0.79204   0.00000  Uiso   1.00
N319   N     0.72185   0.57001   0.13679   0.00000  Uiso   1.00
N320   N     0.81944   0.55048   0.84116   0.00000  Uiso   1.00
N321   N     0.36175   0.31181   0.73490   0.00000  Uiso   1.00
N322   N     0.66434   0.71695   0.07965   0.00000  Uiso   1.00
C323   C     0.17779   0.86656   0.94742   0.00000  Uiso   1.00
C324   C     0.21863   0.91267   0.91993   0.00000  Uiso   1.00
C325   C     0.28500   0.86958   0.92863   0.00000  Uiso   1.00
C326   C     0.31337   0.92373   0.89951   0.00000  Uiso   1.00
C327   C     0.38235   0.98102   0.86234   0.00000  Uiso   1.00
C328   C     0.09249   0.84689   0.89064   0.00000  Uiso   1.00
C329   C     0.05280   0.74848   0.87472   0.00000  Uiso   1.00
C330   C     0.97498   0.74726   0.82094   0.00000  Uiso   1.00
C331   C     0.84811   0.70243   0.73832   0.00000  Uiso   1.00
C332   C     0.17590   0.95855   0.98565   0.00000  Uiso   1.00
C333   C     0.20632   0.95402   0.04962   0.00000  Uiso   1.00
C334   C     0.19870   0.04681   0.07584   0.00000  Uiso   1.00
C335   C     0.20133   0.17535   0.14074   0.00000  Uiso   1.00
C336   C     0.11016   0.03937   0.88023   0.00000  Uiso   1.00
C337   C     0.18189   0.00653   0.88343   0.00000  Uiso   1.00
C338   C     0.21017   0.06077   0.85429   0.00000  Uiso   1.00
C339   C     0.27657   0.01776   0.86295   0.00000  Uiso   1.00
C340   C     0.05575   0.94074   0.85414   0.00000  Uiso   1.00
C341   C     0.97797   0.93967   0.80037   0.00000  Uiso   1.00
C342   C     0.93818   0.84129   0.78437   0.00000  Uiso   1.00
C343   C     0.13916   0.05241   0.94915   0.00000  Uiso   1.00
C344   C     0.13149   0.14522   0.97527   0.00000  Uiso   1.00
C345   C     0.16190   0.14084   0.03927   0.00000  Uiso   1.00
H346   H     0.20639   0.79349   0.97584   0.00000  Uiso   1.00
H347   H     0.31341   0.79693   0.95688   0.00000  Uiso   1.00
H348   H     0.08124   0.67587   0.90298   0.00000  Uiso   1.00
H349   H     0.23474   0.88138   0.07785   0.00000  Uiso   1.00
H350   H     0.41584   0.84213   0.91975   0.00000  Uiso   1.00
H351   H     0.92630   0.58685   0.80610   0.00000  Uiso   1.00
H352   H     0.24998   0.02021   0.17486   0.00000  Uiso   1.00
H353   H     0.08155   0.11245   0.85181   0.00000  Uiso   1.00
H354   H     0.18173   0.13340   0.82604   0.00000  Uiso   1.00
H355   H     0.94956   0.01232   0.77214   0.00000  Uiso   1.00
H356   H     0.10306   0.21784   0.94701   0.00000  Uiso   1.00
H357   H     0.30897   0.11521   0.81355   0.00000  Uiso   1.00
H358   H     0.81942   0.85993   0.69991   0.00000  Uiso   1.00
H359   H     0.14310   0.29330   0.06866   0.00000  Uiso   1.00
O360   O     0.43054   0.98668   0.85192   0.00000  Uiso   1.00
O361   O     0.78828   0.65177   0.70283   0.00000  Uiso   1.00
O362   O     0.21293   0.22033   0.18663   0.00000  Uiso   1.00
N363   N     0.37695   0.90353   0.89830   0.00000  Uiso   1.00
N364   N     0.91926   0.66486   0.79204   0.00000  Uiso   1.00
N365   N     0.22185   0.07001   0.13679   0.00000  Uiso   1.00
N366   N     0.31944   0.05048   0.84116   0.00000  Uiso   1.00
N367   N     0.86175   0.81181   0.73490   0.00000  Uiso   1.00
N368   N     0.16434   0.21695   0.07965   0.00000  Uiso   1.00
