data_job_04816
_audit_creation_date              2018-12-19
_audit_creation_method            'Materials Studio'
_symmetry_space_group_name_H-M    'P1'
_symmetry_Int_Tables_number       1
_symmetry_cell_setting            triclinic
loop_
_symmetry_equiv_pos_as_xyz
  x,y,z
_cell_length_a                    7.1176
_cell_length_b                    27.0079
_cell_length_c                    12.9958
_cell_angle_alpha                 90.0000
_cell_angle_beta                  112.3417
_cell_angle_gamma                 90.0000
loop_
_atom_site_label
_atom_site_type_symbol
_atom_site_fract_x
_atom_site_fract_y
_atom_site_fract_z
_atom_site_U_iso_or_equiv
_atom_site_adp_type
_atom_site_occupancy
C1     C     0.70814   0.87986   0.32098   0.00000  Uiso   1.00
C2     C     0.55637   0.86152   0.20934   0.00000  Uiso   1.00
C3     C     0.60462   0.83731   0.12843   0.00000  Uiso   1.00
C4     C     0.44388   0.82353   0.03201   0.00000  Uiso   1.00
C5     C     0.23890   0.79355   0.86090   0.00000  Uiso   1.00
C6     C     0.66707   0.93508   0.32530   0.00000  Uiso   1.00
C7     C     0.80841   0.97270   0.34190   0.00000  Uiso   1.00
C8     C     0.74085   0.02085   0.34311   0.00000  Uiso   1.00
C9     C     0.70777   0.10506   0.35211   0.00000  Uiso   1.00
C10    C     0.64656   0.85572   0.40953   0.00000  Uiso   1.00
C11    C     0.77067   0.82663   0.49699   0.00000  Uiso   1.00
C12    C     0.68586   0.80796   0.56913   0.00000  Uiso   1.00
C13    C     0.62095   0.76895   0.70893   0.00000  Uiso   1.00
C14    C     0.33687   0.89845   0.29362   0.00000  Uiso   1.00
C15    C     0.35471   0.87163   0.19448   0.00000  Uiso   1.00
C16    C     0.19385   0.85788   0.09816   0.00000  Uiso   1.00
C17    C     0.24186   0.83365   0.01712   0.00000  Uiso   1.00
C18    C     0.46541   0.94518   0.31044   0.00000  Uiso   1.00
C19    C     0.39764   0.99328   0.31163   0.00000  Uiso   1.00
C20    C     0.53883   0.03097   0.32822   0.00000  Uiso   1.00
C21    C     0.44490   0.86582   0.39468   0.00000  Uiso   1.00
C22    C     0.35989   0.84720   0.46671   0.00000  Uiso   1.00
C23    C     0.48384   0.81808   0.55425   0.00000  Uiso   1.00
H24    H     0.86514   0.87200   0.33255   0.00000  Uiso   1.00
H25    H     0.76071   0.82950   0.13996   0.00000  Uiso   1.00
H26    H     0.96446   0.96487   0.35341   0.00000  Uiso   1.00
H27    H     0.92672   0.81882   0.50846   0.00000  Uiso   1.00
H28    H     0.55599   0.78686   0.91987   0.00000  Uiso   1.00
H29    H     0.98562   0.07230   0.36998   0.00000  Uiso   1.00
H30    H     0.90606   0.76431   0.69694   0.00000  Uiso   1.00
H31    H     0.17986   0.90632   0.28205   0.00000  Uiso   1.00
H32    H     0.03781   0.86571   0.08668   0.00000  Uiso   1.00
H33    H     0.24157   0.00108   0.30014   0.00000  Uiso   1.00
H34    H     0.20383   0.85502   0.45519   0.00000  Uiso   1.00
H35    H     0.96926   0.81625   0.87662   0.00000  Uiso   1.00
H36    H     0.39891   0.10169   0.32674   0.00000  Uiso   1.00
H37    H     0.31933   0.79370   0.65370   0.00000  Uiso   1.00
O38    O     0.18154   0.77423   0.77062   0.00000  Uiso   1.00
O39    O     0.74523   0.14872   0.36117   0.00000  Uiso   1.00
O40    O     0.64083   0.74464   0.79013   0.00000  Uiso   1.00
N41    N     0.43739   0.79934   0.93651   0.00000  Uiso   1.00
N42    N     0.83907   0.06621   0.35732   0.00000  Uiso   1.00
N43    N     0.76470   0.77828   0.66302   0.00000  Uiso   1.00
N44    N     0.12168   0.81515   0.91324   0.00000  Uiso   1.00
N45    N     0.52336   0.08202   0.33405   0.00000  Uiso   1.00
N46    N     0.44899   0.79409   0.63975   0.00000  Uiso   1.00
C47    C     0.79623   0.61638   0.69105   0.00000  Uiso   1.00
C48    C     0.87486   0.63924   0.80705   0.00000  Uiso   1.00
C49    C     0.06378   0.66108   0.85992   0.00000  Uiso   1.00
C50    C     0.10697   0.67983   0.96596   0.00000  Uiso   1.00
C51    C     0.25053   0.71576   0.13830   0.00000  Uiso   1.00
C52    C     0.73869   0.56316   0.70530   0.00000  Uiso   1.00
C53    C     0.81311   0.52104   0.67260   0.00000  Uiso   1.00
C54    C     0.74165   0.47574   0.69297   0.00000  Uiso   1.00
C55    C     0.67369   0.39356   0.70726   0.00000  Uiso   1.00
C56    C     0.59748   0.64292   0.62544   0.00000  Uiso   1.00
C57    C     0.55313   0.66786   0.52557   0.00000  Uiso   1.00
C58    C     0.36275   0.68971   0.47868   0.00000  Uiso   1.00
C59    C     0.07554   0.73138   0.36898   0.00000  Uiso   1.00
C60    C     0.53698   0.61082   0.78534   0.00000  Uiso   1.00
C61    C     0.73404   0.63622   0.85826   0.00000  Uiso   1.00
C62    C     0.77696   0.65494   0.96424   0.00000  Uiso   1.00
C63    C     0.96591   0.67681   0.01726   0.00000  Uiso   1.00
C64    C     0.59789   0.56014   0.75651   0.00000  Uiso   1.00
C65    C     0.52629   0.51489   0.77692   0.00000  Uiso   1.00
C66    C     0.60058   0.47272   0.74427   0.00000  Uiso   1.00
C67    C     0.45666   0.63991   0.67665   0.00000  Uiso   1.00
C68    C     0.26631   0.66172   0.62990   0.00000  Uiso   1.00
C69    C     0.22169   0.68668   0.52999   0.00000  Uiso   1.00
H70    H     0.90585   0.61872   0.65118   0.00000  Uiso   1.00
H71    H     0.17272   0.66341   0.82027   0.00000  Uiso   1.00
H72    H     0.92206   0.52339   0.63296   0.00000  Uiso   1.00
H73    H     0.66213   0.67019   0.48597   0.00000  Uiso   1.00
H74    H     0.40651   0.71160   0.03033   0.00000  Uiso   1.00
H75    H     0.87794   0.41636   0.63536   0.00000  Uiso   1.00
H76    H     0.32983   0.72592   0.32538   0.00000  Uiso   1.00
H77    H     0.42735   0.60847   0.82521   0.00000  Uiso   1.00
H78    H     0.66796   0.65260   0.00385   0.00000  Uiso   1.00
H79    H     0.41731   0.51257   0.81655   0.00000  Uiso   1.00
H80    H     0.15738   0.65937   0.66955   0.00000  Uiso   1.00
H81    H     0.99684   0.70282   0.17933   0.00000  Uiso   1.00
H82    H     0.46827   0.40758   0.78436   0.00000  Uiso   1.00
H83    H     0.92016   0.71714   0.47438   0.00000  Uiso   1.00
O84    O     0.36862   0.73641   0.21922   0.00000  Uiso   1.00
O85    O     0.67513   0.34907   0.70101   0.00000  Uiso   1.00
O86    O     0.95603   0.75520   0.29433   0.00000  Uiso   1.00
N87    N     0.27706   0.70349   0.04087   0.00000  Uiso   1.00
N88    N     0.78291   0.42746   0.67161   0.00000  Uiso   1.00
N89    N     0.27045   0.71685   0.38179   0.00000  Uiso   1.00
N90    N     0.05662   0.69877   0.12105   0.00000  Uiso   1.00
N91    N     0.56246   0.42274   0.75179   0.00000  Uiso   1.00
N92    N     0.05000   0.71213   0.46197   0.00000  Uiso   1.00
C93    C     0.70814   0.12014   0.82098   0.00000  Uiso   1.00
C94    C     0.55637   0.13848   0.70934   0.00000  Uiso   1.00
C95    C     0.60462   0.16269   0.62843   0.00000  Uiso   1.00
C96    C     0.44388   0.17647   0.53201   0.00000  Uiso   1.00
C97    C     0.23890   0.20645   0.36090   0.00000  Uiso   1.00
C98    C     0.66707   0.06492   0.82530   0.00000  Uiso   1.00
C99    C     0.80841   0.02730   0.84190   0.00000  Uiso   1.00
C100   C     0.74085   0.97915   0.84311   0.00000  Uiso   1.00
C101   C     0.70777   0.89494   0.85211   0.00000  Uiso   1.00
C102   C     0.64656   0.14428   0.90953   0.00000  Uiso   1.00
C103   C     0.77067   0.17337   0.99699   0.00000  Uiso   1.00
C104   C     0.68586   0.19204   0.06913   0.00000  Uiso   1.00
C105   C     0.62095   0.23105   0.20893   0.00000  Uiso   1.00
C106   C     0.33687   0.10155   0.79362   0.00000  Uiso   1.00
C107   C     0.35471   0.12837   0.69448   0.00000  Uiso   1.00
C108   C     0.19385   0.14212   0.59816   0.00000  Uiso   1.00
C109   C     0.24186   0.16635   0.51712   0.00000  Uiso   1.00
C110   C     0.46541   0.05482   0.81044   0.00000  Uiso   1.00
C111   C     0.39764   0.00672   0.81163   0.00000  Uiso   1.00
C112   C     0.53883   0.96903   0.82822   0.00000  Uiso   1.00
C113   C     0.44490   0.13418   0.89468   0.00000  Uiso   1.00
C114   C     0.35989   0.15280   0.96671   0.00000  Uiso   1.00
C115   C     0.48384   0.18192   0.05425   0.00000  Uiso   1.00
H116   H     0.86514   0.12800   0.83255   0.00000  Uiso   1.00
H117   H     0.76071   0.17050   0.63996   0.00000  Uiso   1.00
H118   H     0.96446   0.03513   0.85341   0.00000  Uiso   1.00
H119   H     0.92672   0.18118   0.00846   0.00000  Uiso   1.00
H120   H     0.55599   0.21314   0.41987   0.00000  Uiso   1.00
H121   H     0.98562   0.92770   0.86998   0.00000  Uiso   1.00
H122   H     0.90606   0.23569   0.19694   0.00000  Uiso   1.00
H123   H     0.17986   0.09368   0.78205   0.00000  Uiso   1.00
H124   H     0.03781   0.13429   0.58668   0.00000  Uiso   1.00
H125   H     0.24157   0.99892   0.80014   0.00000  Uiso   1.00
H126   H     0.20383   0.14498   0.95519   0.00000  Uiso   1.00
H127   H     0.96926   0.18375   0.37662   0.00000  Uiso   1.00
H128   H     0.39891   0.89831   0.82674   0.00000  Uiso   1.00
H129   H     0.31933   0.20630   0.15370   0.00000  Uiso   1.00
O130   O     0.18154   0.22577   0.27062   0.00000  Uiso   1.00
O131   O     0.74523   0.85128   0.86117   0.00000  Uiso   1.00
O132   O     0.64083   0.25536   0.29013   0.00000  Uiso   1.00
N133   N     0.43739   0.20066   0.43651   0.00000  Uiso   1.00
N134   N     0.83907   0.93379   0.85732   0.00000  Uiso   1.00
N135   N     0.76470   0.22172   0.16302   0.00000  Uiso   1.00
N136   N     0.12168   0.18485   0.41324   0.00000  Uiso   1.00
N137   N     0.52336   0.91798   0.83405   0.00000  Uiso   1.00
N138   N     0.44899   0.20591   0.13975   0.00000  Uiso   1.00
C139   C     0.79623   0.38362   0.19105   0.00000  Uiso   1.00
C140   C     0.87486   0.36076   0.30705   0.00000  Uiso   1.00
C141   C     0.06378   0.33892   0.35992   0.00000  Uiso   1.00
C142   C     0.10697   0.32017   0.46596   0.00000  Uiso   1.00
C143   C     0.25053   0.28424   0.63830   0.00000  Uiso   1.00
C144   C     0.73869   0.43684   0.20530   0.00000  Uiso   1.00
C145   C     0.81311   0.47896   0.17260   0.00000  Uiso   1.00
C146   C     0.74165   0.52426   0.19297   0.00000  Uiso   1.00
C147   C     0.67369   0.60644   0.20726   0.00000  Uiso   1.00
C148   C     0.59748   0.35708   0.12544   0.00000  Uiso   1.00
C149   C     0.55313   0.33214   0.02557   0.00000  Uiso   1.00
C150   C     0.36275   0.31029   0.97868   0.00000  Uiso   1.00
C151   C     0.07554   0.26862   0.86898   0.00000  Uiso   1.00
C152   C     0.53698   0.38918   0.28534   0.00000  Uiso   1.00
C153   C     0.73404   0.36378   0.35826   0.00000  Uiso   1.00
C154   C     0.77696   0.34506   0.46424   0.00000  Uiso   1.00
C155   C     0.96591   0.32319   0.51726   0.00000  Uiso   1.00
C156   C     0.59789   0.43986   0.25651   0.00000  Uiso   1.00
C157   C     0.52629   0.48511   0.27692   0.00000  Uiso   1.00
C158   C     0.60058   0.52728   0.24427   0.00000  Uiso   1.00
C159   C     0.45666   0.36009   0.17665   0.00000  Uiso   1.00
C160   C     0.26631   0.33828   0.12990   0.00000  Uiso   1.00
C161   C     0.22169   0.31332   0.02999   0.00000  Uiso   1.00
H162   H     0.90585   0.38128   0.15118   0.00000  Uiso   1.00
H163   H     0.17272   0.33659   0.32027   0.00000  Uiso   1.00
H164   H     0.92206   0.47661   0.13296   0.00000  Uiso   1.00
H165   H     0.66213   0.32981   0.98597   0.00000  Uiso   1.00
H166   H     0.40651   0.28840   0.53033   0.00000  Uiso   1.00
H167   H     0.87794   0.58364   0.13536   0.00000  Uiso   1.00
H168   H     0.32983   0.27408   0.82538   0.00000  Uiso   1.00
H169   H     0.42735   0.39153   0.32521   0.00000  Uiso   1.00
H170   H     0.66796   0.34740   0.50385   0.00000  Uiso   1.00
H171   H     0.41731   0.48743   0.31655   0.00000  Uiso   1.00
H172   H     0.15738   0.34063   0.16955   0.00000  Uiso   1.00
H173   H     0.99684   0.29718   0.67933   0.00000  Uiso   1.00
H174   H     0.46827   0.59242   0.28436   0.00000  Uiso   1.00
H175   H     0.92016   0.28286   0.97438   0.00000  Uiso   1.00
O176   O     0.36862   0.26359   0.71922   0.00000  Uiso   1.00
O177   O     0.67513   0.65093   0.20101   0.00000  Uiso   1.00
O178   O     0.95603   0.24480   0.79433   0.00000  Uiso   1.00
N179   N     0.27706   0.29651   0.54087   0.00000  Uiso   1.00
N180   N     0.78291   0.57254   0.17161   0.00000  Uiso   1.00
N181   N     0.27045   0.28315   0.88179   0.00000  Uiso   1.00
N182   N     0.05662   0.30123   0.62105   0.00000  Uiso   1.00
N183   N     0.56246   0.57726   0.25179   0.00000  Uiso   1.00
N184   N     0.05000   0.28787   0.96197   0.00000  Uiso   1.00
