data_job_01536
_audit_creation_date              2018-12-19
_audit_creation_method            'Materials Studio'
_symmetry_space_group_name_H-M    'P1'
_symmetry_Int_Tables_number       1
_symmetry_cell_setting            triclinic
loop_
_symmetry_equiv_pos_as_xyz
  x,y,z
_cell_length_a                    19.2330
_cell_length_b                    19.2330
_cell_length_c                    12.4723
_cell_angle_alpha                 90.0000
_cell_angle_beta                  90.0000
_cell_angle_gamma                 120.0000
loop_
_atom_site_label
_atom_site_type_symbol
_atom_site_fract_x
_atom_site_fract_y
_atom_site_fract_z
_atom_site_U_iso_or_equiv
_atom_site_adp_type
_atom_site_occupancy
C1     C     0.88292   0.36756   0.44930   0.00000  Uiso   1.00
C2     C     0.90627   0.34913   0.55802   0.00000  Uiso   1.00
C3     C     0.96778   0.40387   0.62333   0.00000  Uiso   1.00
C4     C     0.97960   0.37518   0.71975   0.00000  Uiso   1.00
C5     C     0.02319   0.35880   0.88399   0.00000  Uiso   1.00
C6     C     0.88769   0.30980   0.36989   0.00000  Uiso   1.00
C7     C     0.93356   0.33148   0.27701   0.00000  Uiso   1.00
C8     C     0.92973   0.26968   0.21505   0.00000  Uiso   1.00
C9     C     0.94442   0.19224   0.08717   0.00000  Uiso   1.00
C10    C     0.79424   0.34213   0.45773   0.00000  Uiso   1.00
C11    C     0.76153   0.39099   0.43869   0.00000  Uiso   1.00
C12    C     0.67901   0.35640   0.45066   0.00000  Uiso   1.00
C13    C     0.54861   0.32916   0.45917   0.00000  Uiso   1.00
C14    C     0.79454   0.21927   0.50438   0.00000  Uiso   1.00
C15    C     0.85827   0.26858   0.58794   0.00000  Uiso   1.00
C16    C     0.86999   0.23980   0.68428   0.00000  Uiso   1.00
C17    C     0.93150   0.29449   0.74973   0.00000  Uiso   1.00
C18    C     0.83969   0.22926   0.39980   0.00000  Uiso   1.00
C19    C     0.83578   0.16741   0.33796   0.00000  Uiso   1.00
C20    C     0.88163   0.18899   0.24502   0.00000  Uiso   1.00
C21    C     0.74623   0.26159   0.48765   0.00000  Uiso   1.00
C22    C     0.66375   0.22692   0.49964   0.00000  Uiso   1.00
C23    C     0.63092   0.27571   0.48063   0.00000  Uiso   1.00
H24    H     0.92029   0.43027   0.42600   0.00000  Uiso   1.00
H25    H     0.00492   0.46620   0.60015   0.00000  Uiso   1.00
H26    H     0.97070   0.39381   0.25388   0.00000  Uiso   1.00
H27    H     0.79870   0.45331   0.41553   0.00000  Uiso   1.00
H28    H     0.07759   0.47050   0.80640   0.00000  Uiso   1.00
H29    H     0.00541   0.31787   0.07625   0.00000  Uiso   1.00
H30    H     0.64271   0.44334   0.41713   0.00000  Uiso   1.00
H31    H     0.75716   0.15656   0.52768   0.00000  Uiso   1.00
H32    H     0.83283   0.17747   0.70741   0.00000  Uiso   1.00
H33    H     0.79862   0.10509   0.36114   0.00000  Uiso   1.00
H34    H     0.62661   0.16459   0.52280   0.00000  Uiso   1.00
H35    H     0.93792   0.23616   0.89346   0.00000  Uiso   1.00
H36    H     0.86574   0.08353   0.16330   0.00000  Uiso   1.00
H37    H     0.50304   0.20900   0.50419   0.00000  Uiso   1.00
O38    O     0.06050   0.37202   0.96631   0.00000  Uiso   1.00
O39    O     0.96579   0.17178   0.00838   0.00000  Uiso   1.00
O40    O     0.48994   0.33639   0.45561   0.00000  Uiso   1.00
N41    N     0.03432   0.41248   0.80223   0.00000  Uiso   1.00
N42    N     0.96685   0.26979   0.11960   0.00000  Uiso   1.00
N43    N     0.62775   0.38708   0.43826   0.00000  Uiso   1.00
N44    N     0.95917   0.28639   0.84908   0.00000  Uiso   1.00
N45    N     0.89170   0.14369   0.16644   0.00000  Uiso   1.00
N46    N     0.55260   0.26099   0.48511   0.00000  Uiso   1.00
C47    C     0.63244   0.51536   0.78263   0.00000  Uiso   1.00
C48    C     0.65087   0.55714   0.89136   0.00000  Uiso   1.00
C49    C     0.59613   0.56391   0.95667   0.00000  Uiso   1.00
C50    C     0.62482   0.60442   0.05308   0.00000  Uiso   1.00
C51    C     0.64120   0.66438   0.21733   0.00000  Uiso   1.00
C52    C     0.69020   0.57789   0.70322   0.00000  Uiso   1.00
C53    C     0.66852   0.60208   0.61035   0.00000  Uiso   1.00
C54    C     0.73032   0.66005   0.54839   0.00000  Uiso   1.00
C55    C     0.80776   0.75218   0.42051   0.00000  Uiso   1.00
C56    C     0.65787   0.45210   0.79106   0.00000  Uiso   1.00
C57    C     0.60901   0.37054   0.77202   0.00000  Uiso   1.00
C58    C     0.64360   0.32261   0.78399   0.00000  Uiso   1.00
C59    C     0.67084   0.21944   0.79250   0.00000  Uiso   1.00
C60    C     0.78073   0.57526   0.83772   0.00000  Uiso   1.00
C61    C     0.73142   0.58968   0.92127   0.00000  Uiso   1.00
C62    C     0.76020   0.63019   0.01762   0.00000  Uiso   1.00
C63    C     0.70551   0.63701   0.08306   0.00000  Uiso   1.00
C64    C     0.77074   0.61043   0.73314   0.00000  Uiso   1.00
C65    C     0.83259   0.66836   0.67129   0.00000  Uiso   1.00
C66    C     0.81101   0.69265   0.57836   0.00000  Uiso   1.00
C67    C     0.73841   0.48464   0.82099   0.00000  Uiso   1.00
C68    C     0.77308   0.43683   0.83298   0.00000  Uiso   1.00
C69    C     0.72429   0.35521   0.81396   0.00000  Uiso   1.00
H70    H     0.56973   0.49003   0.75933   0.00000  Uiso   1.00
H71    H     0.53380   0.53872   0.93348   0.00000  Uiso   1.00
H72    H     0.60619   0.57689   0.58721   0.00000  Uiso   1.00
H73    H     0.54669   0.34538   0.74887   0.00000  Uiso   1.00
H74    H     0.52950   0.60709   0.13973   0.00000  Uiso   1.00
H75    H     0.68213   0.68754   0.40959   0.00000  Uiso   1.00
H76    H     0.55666   0.19937   0.75047   0.00000  Uiso   1.00
H77    H     0.84344   0.60060   0.86101   0.00000  Uiso   1.00
H78    H     0.82253   0.65536   0.04075   0.00000  Uiso   1.00
H79    H     0.89491   0.69353   0.69447   0.00000  Uiso   1.00
H80    H     0.83541   0.46203   0.85613   0.00000  Uiso   1.00
H81    H     0.76384   0.70176   0.22679   0.00000  Uiso   1.00
H82    H     0.91647   0.78221   0.49664   0.00000  Uiso   1.00
H83    H     0.79100   0.29404   0.83753   0.00000  Uiso   1.00
O84    O     0.62798   0.68848   0.29965   0.00000  Uiso   1.00
O85    O     0.82822   0.79401   0.34171   0.00000  Uiso   1.00
O86    O     0.66361   0.15355   0.78894   0.00000  Uiso   1.00
N87    N     0.58752   0.62184   0.13557   0.00000  Uiso   1.00
N88    N     0.73021   0.69707   0.45293   0.00000  Uiso   1.00
N89    N     0.61292   0.24067   0.77160   0.00000  Uiso   1.00
N90    N     0.71361   0.67278   0.18241   0.00000  Uiso   1.00
N91    N     0.85631   0.74801   0.49978   0.00000  Uiso   1.00
N92    N     0.73901   0.29161   0.81844   0.00000  Uiso   1.00
C93    C     0.48464   0.11708   0.11597   0.00000  Uiso   1.00
C94    C     0.44286   0.09373   0.22469   0.00000  Uiso   1.00
C95    C     0.43609   0.03222   0.29000   0.00000  Uiso   1.00
C96    C     0.39558   0.02040   0.38642   0.00000  Uiso   1.00
C97    C     0.33562   0.97681   0.55066   0.00000  Uiso   1.00
C98    C     0.42211   0.11231   0.03655   0.00000  Uiso   1.00
C99    C     0.39792   0.06644   0.94368   0.00000  Uiso   1.00
C100   C     0.33995   0.07027   0.88172   0.00000  Uiso   1.00
C101   C     0.24782   0.05558   0.75384   0.00000  Uiso   1.00
C102   C     0.54790   0.20576   0.12440   0.00000  Uiso   1.00
C103   C     0.62946   0.23847   0.10535   0.00000  Uiso   1.00
C104   C     0.67739   0.32099   0.11732   0.00000  Uiso   1.00
C105   C     0.78056   0.45139   0.12583   0.00000  Uiso   1.00
C106   C     0.42474   0.20546   0.17105   0.00000  Uiso   1.00
C107   C     0.41032   0.14173   0.25460   0.00000  Uiso   1.00
C108   C     0.36981   0.13001   0.35095   0.00000  Uiso   1.00
C109   C     0.36299   0.06850   0.41639   0.00000  Uiso   1.00
C110   C     0.38957   0.16031   0.06647   0.00000  Uiso   1.00
C111   C     0.33164   0.16422   0.00463   0.00000  Uiso   1.00
C112   C     0.30735   0.11837   0.91169   0.00000  Uiso   1.00
C113   C     0.51536   0.25377   0.15432   0.00000  Uiso   1.00
C114   C     0.56317   0.33625   0.16631   0.00000  Uiso   1.00
C115   C     0.64479   0.36908   0.14730   0.00000  Uiso   1.00
H116   H     0.50997   0.07971   0.09266   0.00000  Uiso   1.00
H117   H     0.46128   0.99508   0.26681   0.00000  Uiso   1.00
H118   H     0.42311   0.02930   0.92054   0.00000  Uiso   1.00
H119   H     0.65462   0.20130   0.08220   0.00000  Uiso   1.00
H120   H     0.39291   0.92241   0.47307   0.00000  Uiso   1.00
H121   H     0.31246   0.99459   0.74292   0.00000  Uiso   1.00
H122   H     0.80063   0.35729   0.08380   0.00000  Uiso   1.00
H123   H     0.39940   0.24284   0.19434   0.00000  Uiso   1.00
H124   H     0.34464   0.16717   0.37408   0.00000  Uiso   1.00
H125   H     0.30647   0.20138   0.02781   0.00000  Uiso   1.00
H126   H     0.53797   0.37339   0.18946   0.00000  Uiso   1.00
H127   H     0.29824   0.06208   0.56013   0.00000  Uiso   1.00
H128   H     0.21779   0.13426   0.82997   0.00000  Uiso   1.00
H129   H     0.70596   0.49696   0.17086   0.00000  Uiso   1.00
O130   O     0.31152   0.93950   0.63298   0.00000  Uiso   1.00
O131   O     0.20599   0.03421   0.67504   0.00000  Uiso   1.00
O132   O     0.84645   0.51006   0.12228   0.00000  Uiso   1.00
N133   N     0.37816   0.96568   0.46890   0.00000  Uiso   1.00
N134   N     0.30293   0.03315   0.78626   0.00000  Uiso   1.00
N135   N     0.75933   0.37225   0.10493   0.00000  Uiso   1.00
N136   N     0.32722   0.04083   0.51575   0.00000  Uiso   1.00
N137   N     0.25199   0.10830   0.83311   0.00000  Uiso   1.00
N138   N     0.70839   0.44740   0.15178   0.00000  Uiso   1.00
C139   C     0.11708   0.63244   0.94930   0.00000  Uiso   1.00
C140   C     0.09373   0.65087   0.05802   0.00000  Uiso   1.00
C141   C     0.03222   0.59613   0.12333   0.00000  Uiso   1.00
C142   C     0.02040   0.62482   0.21975   0.00000  Uiso   1.00
C143   C     0.97681   0.64120   0.38399   0.00000  Uiso   1.00
C144   C     0.11231   0.69020   0.86989   0.00000  Uiso   1.00
C145   C     0.06644   0.66852   0.77701   0.00000  Uiso   1.00
C146   C     0.07027   0.73032   0.71505   0.00000  Uiso   1.00
C147   C     0.05558   0.80776   0.58717   0.00000  Uiso   1.00
C148   C     0.20576   0.65787   0.95773   0.00000  Uiso   1.00
C149   C     0.23847   0.60901   0.93869   0.00000  Uiso   1.00
C150   C     0.32099   0.64360   0.95066   0.00000  Uiso   1.00
C151   C     0.45139   0.67084   0.95917   0.00000  Uiso   1.00
C152   C     0.20546   0.78073   0.00438   0.00000  Uiso   1.00
C153   C     0.14173   0.73142   0.08794   0.00000  Uiso   1.00
C154   C     0.13001   0.76020   0.18428   0.00000  Uiso   1.00
C155   C     0.06850   0.70551   0.24973   0.00000  Uiso   1.00
C156   C     0.16031   0.77074   0.89980   0.00000  Uiso   1.00
C157   C     0.16422   0.83259   0.83796   0.00000  Uiso   1.00
C158   C     0.11837   0.81101   0.74502   0.00000  Uiso   1.00
C159   C     0.25377   0.73841   0.98765   0.00000  Uiso   1.00
C160   C     0.33625   0.77308   0.99964   0.00000  Uiso   1.00
C161   C     0.36908   0.72429   0.98063   0.00000  Uiso   1.00
H162   H     0.07971   0.56973   0.92600   0.00000  Uiso   1.00
H163   H     0.99508   0.53380   0.10015   0.00000  Uiso   1.00
H164   H     0.02930   0.60619   0.75388   0.00000  Uiso   1.00
H165   H     0.20130   0.54669   0.91553   0.00000  Uiso   1.00
H166   H     0.92241   0.52950   0.30640   0.00000  Uiso   1.00
H167   H     0.99459   0.68213   0.57625   0.00000  Uiso   1.00
H168   H     0.35729   0.55666   0.91713   0.00000  Uiso   1.00
H169   H     0.24284   0.84344   0.02768   0.00000  Uiso   1.00
H170   H     0.16717   0.82253   0.20741   0.00000  Uiso   1.00
H171   H     0.20138   0.89491   0.86114   0.00000  Uiso   1.00
H172   H     0.37339   0.83541   0.02280   0.00000  Uiso   1.00
H173   H     0.06208   0.76384   0.39346   0.00000  Uiso   1.00
H174   H     0.13426   0.91647   0.66330   0.00000  Uiso   1.00
H175   H     0.49696   0.79100   0.00419   0.00000  Uiso   1.00
O176   O     0.93950   0.62798   0.46631   0.00000  Uiso   1.00
O177   O     0.03421   0.82822   0.50838   0.00000  Uiso   1.00
O178   O     0.51006   0.66361   0.95561   0.00000  Uiso   1.00
N179   N     0.96568   0.58752   0.30223   0.00000  Uiso   1.00
N180   N     0.03315   0.73021   0.61960   0.00000  Uiso   1.00
N181   N     0.37225   0.61292   0.93826   0.00000  Uiso   1.00
N182   N     0.04083   0.71361   0.34908   0.00000  Uiso   1.00
N183   N     0.10830   0.85631   0.66644   0.00000  Uiso   1.00
N184   N     0.44740   0.73901   0.98511   0.00000  Uiso   1.00
C185   C     0.36756   0.48464   0.28263   0.00000  Uiso   1.00
C186   C     0.34913   0.44286   0.39136   0.00000  Uiso   1.00
C187   C     0.40387   0.43609   0.45667   0.00000  Uiso   1.00
C188   C     0.37518   0.39558   0.55308   0.00000  Uiso   1.00
C189   C     0.35880   0.33562   0.71733   0.00000  Uiso   1.00
C190   C     0.30980   0.42211   0.20322   0.00000  Uiso   1.00
C191   C     0.33148   0.39792   0.11035   0.00000  Uiso   1.00
C192   C     0.26968   0.33995   0.04839   0.00000  Uiso   1.00
C193   C     0.19224   0.24782   0.92051   0.00000  Uiso   1.00
C194   C     0.34213   0.54790   0.29106   0.00000  Uiso   1.00
C195   C     0.39099   0.62946   0.27202   0.00000  Uiso   1.00
C196   C     0.35640   0.67739   0.28399   0.00000  Uiso   1.00
C197   C     0.32916   0.78056   0.29250   0.00000  Uiso   1.00
C198   C     0.21927   0.42474   0.33772   0.00000  Uiso   1.00
C199   C     0.26858   0.41032   0.42127   0.00000  Uiso   1.00
C200   C     0.23980   0.36981   0.51762   0.00000  Uiso   1.00
C201   C     0.29449   0.36299   0.58306   0.00000  Uiso   1.00
C202   C     0.22926   0.38957   0.23314   0.00000  Uiso   1.00
C203   C     0.16741   0.33164   0.17129   0.00000  Uiso   1.00
C204   C     0.18899   0.30735   0.07836   0.00000  Uiso   1.00
C205   C     0.26159   0.51536   0.32099   0.00000  Uiso   1.00
C206   C     0.22692   0.56317   0.33298   0.00000  Uiso   1.00
C207   C     0.27571   0.64479   0.31396   0.00000  Uiso   1.00
H208   H     0.43027   0.50997   0.25933   0.00000  Uiso   1.00
H209   H     0.46620   0.46128   0.43348   0.00000  Uiso   1.00
H210   H     0.39381   0.42311   0.08721   0.00000  Uiso   1.00
H211   H     0.45331   0.65462   0.24887   0.00000  Uiso   1.00
H212   H     0.47050   0.39291   0.63973   0.00000  Uiso   1.00
H213   H     0.31787   0.31246   0.90959   0.00000  Uiso   1.00
H214   H     0.44334   0.80063   0.25047   0.00000  Uiso   1.00
H215   H     0.15656   0.39940   0.36101   0.00000  Uiso   1.00
H216   H     0.17747   0.34464   0.54075   0.00000  Uiso   1.00
H217   H     0.10509   0.30647   0.19447   0.00000  Uiso   1.00
H218   H     0.16459   0.53797   0.35613   0.00000  Uiso   1.00
H219   H     0.23616   0.29824   0.72679   0.00000  Uiso   1.00
H220   H     0.08353   0.21779   0.99664   0.00000  Uiso   1.00
H221   H     0.20900   0.70596   0.33753   0.00000  Uiso   1.00
O222   O     0.37202   0.31152   0.79965   0.00000  Uiso   1.00
O223   O     0.17178   0.20599   0.84171   0.00000  Uiso   1.00
O224   O     0.33639   0.84645   0.28894   0.00000  Uiso   1.00
N225   N     0.41248   0.37816   0.63557   0.00000  Uiso   1.00
N226   N     0.26979   0.30293   0.95293   0.00000  Uiso   1.00
N227   N     0.38708   0.75933   0.27160   0.00000  Uiso   1.00
N228   N     0.28639   0.32722   0.68241   0.00000  Uiso   1.00
N229   N     0.14369   0.25199   0.99978   0.00000  Uiso   1.00
N230   N     0.26099   0.70839   0.31844   0.00000  Uiso   1.00
C231   C     0.51536   0.88292   0.61597   0.00000  Uiso   1.00
C232   C     0.55714   0.90627   0.72469   0.00000  Uiso   1.00
C233   C     0.56391   0.96778   0.79000   0.00000  Uiso   1.00
C234   C     0.60442   0.97960   0.88642   0.00000  Uiso   1.00
C235   C     0.66438   0.02319   0.05066   0.00000  Uiso   1.00
C236   C     0.57789   0.88769   0.53655   0.00000  Uiso   1.00
C237   C     0.60208   0.93356   0.44368   0.00000  Uiso   1.00
C238   C     0.66005   0.92973   0.38172   0.00000  Uiso   1.00
C239   C     0.75218   0.94442   0.25384   0.00000  Uiso   1.00
C240   C     0.45210   0.79424   0.62440   0.00000  Uiso   1.00
C241   C     0.37054   0.76153   0.60535   0.00000  Uiso   1.00
C242   C     0.32261   0.67901   0.61732   0.00000  Uiso   1.00
C243   C     0.21944   0.54861   0.62583   0.00000  Uiso   1.00
C244   C     0.57526   0.79454   0.67105   0.00000  Uiso   1.00
C245   C     0.58968   0.85827   0.75460   0.00000  Uiso   1.00
C246   C     0.63019   0.86999   0.85095   0.00000  Uiso   1.00
C247   C     0.63701   0.93150   0.91639   0.00000  Uiso   1.00
C248   C     0.61043   0.83969   0.56647   0.00000  Uiso   1.00
C249   C     0.66836   0.83578   0.50463   0.00000  Uiso   1.00
C250   C     0.69265   0.88163   0.41169   0.00000  Uiso   1.00
C251   C     0.48464   0.74623   0.65432   0.00000  Uiso   1.00
C252   C     0.43683   0.66375   0.66631   0.00000  Uiso   1.00
C253   C     0.35521   0.63092   0.64730   0.00000  Uiso   1.00
H254   H     0.49003   0.92029   0.59266   0.00000  Uiso   1.00
H255   H     0.53872   0.00492   0.76681   0.00000  Uiso   1.00
H256   H     0.57689   0.97070   0.42054   0.00000  Uiso   1.00
H257   H     0.34538   0.79870   0.58220   0.00000  Uiso   1.00
H258   H     0.60709   0.07759   0.97307   0.00000  Uiso   1.00
H259   H     0.68754   0.00541   0.24292   0.00000  Uiso   1.00
H260   H     0.19937   0.64271   0.58380   0.00000  Uiso   1.00
H261   H     0.60060   0.75716   0.69434   0.00000  Uiso   1.00
H262   H     0.65536   0.83283   0.87408   0.00000  Uiso   1.00
H263   H     0.69353   0.79862   0.52781   0.00000  Uiso   1.00
H264   H     0.46203   0.62661   0.68946   0.00000  Uiso   1.00
H265   H     0.70176   0.93792   0.06013   0.00000  Uiso   1.00
H266   H     0.78221   0.86574   0.32997   0.00000  Uiso   1.00
H267   H     0.29404   0.50304   0.67086   0.00000  Uiso   1.00
O268   O     0.68848   0.06050   0.13298   0.00000  Uiso   1.00
O269   O     0.79401   0.96579   0.17504   0.00000  Uiso   1.00
O270   O     0.15355   0.48994   0.62228   0.00000  Uiso   1.00
N271   N     0.62184   0.03432   0.96890   0.00000  Uiso   1.00
N272   N     0.69707   0.96685   0.28626   0.00000  Uiso   1.00
N273   N     0.24067   0.62775   0.60493   0.00000  Uiso   1.00
N274   N     0.67278   0.95917   0.01575   0.00000  Uiso   1.00
N275   N     0.74801   0.89170   0.33311   0.00000  Uiso   1.00
N276   N     0.29161   0.55260   0.65178   0.00000  Uiso   1.00
