data_job_00119
_audit_creation_date              2018-12-19
_audit_creation_method            'Materials Studio'
_symmetry_space_group_name_H-M    'P1'
_symmetry_Int_Tables_number       1
_symmetry_cell_setting            triclinic
loop_
_symmetry_equiv_pos_as_xyz
  x,y,z
_cell_length_a                    21.4636
_cell_length_b                    11.5104
_cell_length_c                    37.5071
_cell_angle_alpha                 90.0000
_cell_angle_beta                  142.3868
_cell_angle_gamma                 90.0000
loop_
_atom_site_label
_atom_site_type_symbol
_atom_site_fract_x
_atom_site_fract_y
_atom_site_fract_z
_atom_site_U_iso_or_equiv
_atom_site_adp_type
_atom_site_occupancy
C1     C     0.20225   0.80273   0.25156   0.00000  Uiso   1.00
C2     C     0.22186   0.70765   0.28793   0.00000  Uiso   1.00
C3     C     0.31392   0.68674   0.34681   0.00000  Uiso   1.00
C4     C     0.31627   0.59561   0.37211   0.00000  Uiso   1.00
C5     C     0.35991   0.45824   0.43350   0.00000  Uiso   1.00
C6     C     0.16249   0.74119   0.20032   0.00000  Uiso   1.00
C7     C     0.20462   0.74851   0.18555   0.00000  Uiso   1.00
C8     C     0.15698   0.68562   0.13710   0.00000  Uiso   1.00
C9     C     0.10841   0.60039   0.06246   0.00000  Uiso   1.00
C10    C     0.11308   0.87392   0.22549   0.00000  Uiso   1.00
C11    C     0.11365   0.99283   0.23185   0.00000  Uiso   1.00
C12    C     0.02440   0.04170   0.20457   0.00000  Uiso   1.00
C13    C     0.89911   0.16254   0.16900   0.00000  Uiso   1.00
C14    C     0.04272   0.67807   0.19179   0.00000  Uiso   1.00
C15    C     0.13521   0.63994   0.25546   0.00000  Uiso   1.00
C16    C     0.13742   0.54881   0.28068   0.00000  Uiso   1.00
C17    C     0.22946   0.52778   0.33959   0.00000  Uiso   1.00
C18    C     0.07585   0.67348   0.16786   0.00000  Uiso   1.00
C19    C     0.02813   0.61058   0.11942   0.00000  Uiso   1.00
C20    C     0.07018   0.61779   0.10457   0.00000  Uiso   1.00
C21    C     0.02643   0.80620   0.19302   0.00000  Uiso   1.00
C22    C     0.93716   0.85490   0.16572   0.00000  Uiso   1.00
C23    C     0.93759   0.97386   0.17205   0.00000  Uiso   1.00
H24    H     0.26971   0.85545   0.27684   0.00000  Uiso   1.00
H25    H     0.38096   0.73916   0.37191   0.00000  Uiso   1.00
H26    H     0.27167   0.80092   0.21067   0.00000  Uiso   1.00
H27    H     0.18072   0.04520   0.25697   0.00000  Uiso   1.00
H28    H     0.46610   0.58034   0.46300   0.00000  Uiso   1.00
H29    H     0.23564   0.71060   0.12301   0.00000  Uiso   1.00
H30    H     0.04385   0.22573   0.22064   0.00000  Uiso   1.00
H31    H     0.97526   0.62535   0.16652   0.00000  Uiso   1.00
H32    H     0.07035   0.49643   0.25554   0.00000  Uiso   1.00
H33    H     0.96107   0.55819   0.09430   0.00000  Uiso   1.00
H34    H     0.87012   0.80247   0.14061   0.00000  Uiso   1.00
H35    H     0.21400   0.38333   0.36855   0.00000  Uiso   1.00
H36    H     0.98355   0.51359   0.02855   0.00000  Uiso   1.00
H37    H     0.79175   0.02871   0.12619   0.00000  Uiso   1.00
O38    O     0.40792   0.40116   0.47632   0.00000  Uiso   1.00
O39    O     0.10557   0.57207   0.03026   0.00000  Uiso   1.00
O40    O     0.85394   0.24790   0.15836   0.00000  Uiso   1.00
N41    N     0.39371   0.55168   0.42856   0.00000  Uiso   1.00
N42    N     0.17826   0.67345   0.11069   0.00000  Uiso   1.00
N43    N     0.99894   0.15506   0.20195   0.00000  Uiso   1.00
N44    N     0.25806   0.44567   0.37773   0.00000  Uiso   1.00
N45    N     0.04261   0.56744   0.05987   0.00000  Uiso   1.00
N46    N     0.86329   0.04905   0.15113   0.00000  Uiso   1.00
C47    C     0.70225   0.30273   0.25156   0.00000  Uiso   1.00
C48    C     0.72186   0.20765   0.28793   0.00000  Uiso   1.00
C49    C     0.81392   0.18674   0.34681   0.00000  Uiso   1.00
C50    C     0.81627   0.09561   0.37211   0.00000  Uiso   1.00
C51    C     0.85991   0.95824   0.43350   0.00000  Uiso   1.00
C52    C     0.66249   0.24119   0.20032   0.00000  Uiso   1.00
C53    C     0.70462   0.24851   0.18555   0.00000  Uiso   1.00
C54    C     0.65698   0.18562   0.13710   0.00000  Uiso   1.00
C55    C     0.60841   0.10039   0.06246   0.00000  Uiso   1.00
C56    C     0.61308   0.37392   0.22549   0.00000  Uiso   1.00
C57    C     0.61365   0.49283   0.23185   0.00000  Uiso   1.00
C58    C     0.52440   0.54170   0.20457   0.00000  Uiso   1.00
C59    C     0.39911   0.66254   0.16900   0.00000  Uiso   1.00
C60    C     0.54272   0.17807   0.19179   0.00000  Uiso   1.00
C61    C     0.63521   0.13994   0.25546   0.00000  Uiso   1.00
C62    C     0.63742   0.04881   0.28068   0.00000  Uiso   1.00
C63    C     0.72946   0.02778   0.33959   0.00000  Uiso   1.00
C64    C     0.57585   0.17348   0.16786   0.00000  Uiso   1.00
C65    C     0.52813   0.11058   0.11942   0.00000  Uiso   1.00
C66    C     0.57018   0.11779   0.10457   0.00000  Uiso   1.00
C67    C     0.52643   0.30620   0.19302   0.00000  Uiso   1.00
C68    C     0.43716   0.35490   0.16572   0.00000  Uiso   1.00
C69    C     0.43759   0.47386   0.17205   0.00000  Uiso   1.00
H70    H     0.76971   0.35545   0.27684   0.00000  Uiso   1.00
H71    H     0.88096   0.23916   0.37191   0.00000  Uiso   1.00
H72    H     0.77167   0.30092   0.21067   0.00000  Uiso   1.00
H73    H     0.68072   0.54520   0.25697   0.00000  Uiso   1.00
H74    H     0.96610   0.08034   0.46300   0.00000  Uiso   1.00
H75    H     0.73564   0.21060   0.12301   0.00000  Uiso   1.00
H76    H     0.54385   0.72573   0.22064   0.00000  Uiso   1.00
H77    H     0.47526   0.12535   0.16652   0.00000  Uiso   1.00
H78    H     0.57035   0.99643   0.25554   0.00000  Uiso   1.00
H79    H     0.46107   0.05819   0.09430   0.00000  Uiso   1.00
H80    H     0.37012   0.30247   0.14061   0.00000  Uiso   1.00
H81    H     0.71400   0.88333   0.36855   0.00000  Uiso   1.00
H82    H     0.48355   0.01359   0.02855   0.00000  Uiso   1.00
H83    H     0.29175   0.52871   0.12619   0.00000  Uiso   1.00
O84    O     0.90792   0.90116   0.47632   0.00000  Uiso   1.00
O85    O     0.60557   0.07207   0.03026   0.00000  Uiso   1.00
O86    O     0.35394   0.74790   0.15836   0.00000  Uiso   1.00
N87    N     0.89371   0.05168   0.42856   0.00000  Uiso   1.00
N88    N     0.67826   0.17345   0.11069   0.00000  Uiso   1.00
N89    N     0.49894   0.65506   0.20195   0.00000  Uiso   1.00
N90    N     0.75806   0.94567   0.37773   0.00000  Uiso   1.00
N91    N     0.54261   0.06744   0.05987   0.00000  Uiso   1.00
N92    N     0.36329   0.54905   0.15113   0.00000  Uiso   1.00
C93    C     0.79775   0.80273   0.24844   0.00000  Uiso   1.00
C94    C     0.77814   0.70765   0.21207   0.00000  Uiso   1.00
C95    C     0.68608   0.68674   0.15319   0.00000  Uiso   1.00
C96    C     0.68373   0.59561   0.12789   0.00000  Uiso   1.00
C97    C     0.64009   0.45824   0.06650   0.00000  Uiso   1.00
C98    C     0.83751   0.74119   0.29968   0.00000  Uiso   1.00
C99    C     0.79538   0.74851   0.31445   0.00000  Uiso   1.00
C100   C     0.84302   0.68562   0.36290   0.00000  Uiso   1.00
C101   C     0.89159   0.60039   0.43754   0.00000  Uiso   1.00
C102   C     0.88692   0.87392   0.27451   0.00000  Uiso   1.00
C103   C     0.88635   0.99283   0.26815   0.00000  Uiso   1.00
C104   C     0.97560   0.04170   0.29543   0.00000  Uiso   1.00
C105   C     0.10089   0.16254   0.33100   0.00000  Uiso   1.00
C106   C     0.95728   0.67807   0.30821   0.00000  Uiso   1.00
C107   C     0.86479   0.63994   0.24454   0.00000  Uiso   1.00
C108   C     0.86258   0.54881   0.21932   0.00000  Uiso   1.00
C109   C     0.77054   0.52778   0.16041   0.00000  Uiso   1.00
C110   C     0.92415   0.67348   0.33214   0.00000  Uiso   1.00
C111   C     0.97187   0.61058   0.38058   0.00000  Uiso   1.00
C112   C     0.92982   0.61779   0.39543   0.00000  Uiso   1.00
C113   C     0.97357   0.80620   0.30698   0.00000  Uiso   1.00
C114   C     0.06284   0.85490   0.33428   0.00000  Uiso   1.00
C115   C     0.06241   0.97386   0.32795   0.00000  Uiso   1.00
H116   H     0.73029   0.85545   0.22316   0.00000  Uiso   1.00
H117   H     0.61904   0.73916   0.12809   0.00000  Uiso   1.00
H118   H     0.72833   0.80092   0.28933   0.00000  Uiso   1.00
H119   H     0.81928   0.04520   0.24303   0.00000  Uiso   1.00
H120   H     0.53390   0.58034   0.03700   0.00000  Uiso   1.00
H121   H     0.76436   0.71060   0.37699   0.00000  Uiso   1.00
H122   H     0.95615   0.22573   0.27936   0.00000  Uiso   1.00
H123   H     0.02474   0.62535   0.33348   0.00000  Uiso   1.00
H124   H     0.92965   0.49643   0.24446   0.00000  Uiso   1.00
H125   H     0.03893   0.55819   0.40570   0.00000  Uiso   1.00
H126   H     0.12988   0.80247   0.35939   0.00000  Uiso   1.00
H127   H     0.78600   0.38333   0.13145   0.00000  Uiso   1.00
H128   H     0.01645   0.51359   0.47145   0.00000  Uiso   1.00
H129   H     0.20825   0.02871   0.37381   0.00000  Uiso   1.00
O130   O     0.59208   0.40116   0.02368   0.00000  Uiso   1.00
O131   O     0.89443   0.57207   0.46974   0.00000  Uiso   1.00
O132   O     0.14606   0.24790   0.34164   0.00000  Uiso   1.00
N133   N     0.60629   0.55168   0.07144   0.00000  Uiso   1.00
N134   N     0.82174   0.67345   0.38931   0.00000  Uiso   1.00
N135   N     0.00106   0.15506   0.29805   0.00000  Uiso   1.00
N136   N     0.74194   0.44567   0.12227   0.00000  Uiso   1.00
N137   N     0.95739   0.56744   0.44013   0.00000  Uiso   1.00
N138   N     0.13671   0.04905   0.34887   0.00000  Uiso   1.00
C139   C     0.29775   0.30273   0.24844   0.00000  Uiso   1.00
C140   C     0.27814   0.20765   0.21207   0.00000  Uiso   1.00
C141   C     0.18608   0.18674   0.15319   0.00000  Uiso   1.00
C142   C     0.18373   0.09561   0.12789   0.00000  Uiso   1.00
C143   C     0.14009   0.95824   0.06650   0.00000  Uiso   1.00
C144   C     0.33751   0.24119   0.29968   0.00000  Uiso   1.00
C145   C     0.29538   0.24851   0.31445   0.00000  Uiso   1.00
C146   C     0.34302   0.18562   0.36290   0.00000  Uiso   1.00
C147   C     0.39159   0.10039   0.43754   0.00000  Uiso   1.00
C148   C     0.38692   0.37392   0.27451   0.00000  Uiso   1.00
C149   C     0.38635   0.49283   0.26815   0.00000  Uiso   1.00
C150   C     0.47560   0.54170   0.29543   0.00000  Uiso   1.00
C151   C     0.60089   0.66254   0.33100   0.00000  Uiso   1.00
C152   C     0.45728   0.17807   0.30821   0.00000  Uiso   1.00
C153   C     0.36479   0.13994   0.24454   0.00000  Uiso   1.00
C154   C     0.36258   0.04881   0.21932   0.00000  Uiso   1.00
C155   C     0.27054   0.02778   0.16041   0.00000  Uiso   1.00
C156   C     0.42415   0.17348   0.33214   0.00000  Uiso   1.00
C157   C     0.47187   0.11058   0.38058   0.00000  Uiso   1.00
C158   C     0.42982   0.11779   0.39543   0.00000  Uiso   1.00
C159   C     0.47357   0.30620   0.30698   0.00000  Uiso   1.00
C160   C     0.56284   0.35490   0.33428   0.00000  Uiso   1.00
C161   C     0.56241   0.47386   0.32795   0.00000  Uiso   1.00
H162   H     0.23029   0.35545   0.22316   0.00000  Uiso   1.00
H163   H     0.11904   0.23916   0.12809   0.00000  Uiso   1.00
H164   H     0.22833   0.30092   0.28933   0.00000  Uiso   1.00
H165   H     0.31928   0.54520   0.24303   0.00000  Uiso   1.00
H166   H     0.03390   0.08034   0.03700   0.00000  Uiso   1.00
H167   H     0.26436   0.21060   0.37699   0.00000  Uiso   1.00
H168   H     0.45615   0.72573   0.27936   0.00000  Uiso   1.00
H169   H     0.52474   0.12535   0.33348   0.00000  Uiso   1.00
H170   H     0.42965   0.99643   0.24446   0.00000  Uiso   1.00
H171   H     0.53893   0.05819   0.40570   0.00000  Uiso   1.00
H172   H     0.62988   0.30247   0.35939   0.00000  Uiso   1.00
H173   H     0.28600   0.88333   0.13145   0.00000  Uiso   1.00
H174   H     0.51645   0.01359   0.47145   0.00000  Uiso   1.00
H175   H     0.70825   0.52871   0.37381   0.00000  Uiso   1.00
O176   O     0.09208   0.90116   0.02368   0.00000  Uiso   1.00
O177   O     0.39443   0.07207   0.46974   0.00000  Uiso   1.00
O178   O     0.64606   0.74790   0.34164   0.00000  Uiso   1.00
N179   N     0.10629   0.05168   0.07144   0.00000  Uiso   1.00
N180   N     0.32174   0.17345   0.38931   0.00000  Uiso   1.00
N181   N     0.50106   0.65506   0.29805   0.00000  Uiso   1.00
N182   N     0.24194   0.94567   0.12227   0.00000  Uiso   1.00
N183   N     0.45739   0.06744   0.44013   0.00000  Uiso   1.00
N184   N     0.63671   0.54905   0.34887   0.00000  Uiso   1.00
C185   C     0.79775   0.19727   0.74844   0.00000  Uiso   1.00
C186   C     0.77814   0.29235   0.71207   0.00000  Uiso   1.00
C187   C     0.68608   0.31326   0.65319   0.00000  Uiso   1.00
C188   C     0.68373   0.40439   0.62789   0.00000  Uiso   1.00
C189   C     0.64009   0.54176   0.56650   0.00000  Uiso   1.00
C190   C     0.83751   0.25881   0.79968   0.00000  Uiso   1.00
C191   C     0.79538   0.25149   0.81445   0.00000  Uiso   1.00
C192   C     0.84302   0.31438   0.86290   0.00000  Uiso   1.00
C193   C     0.89159   0.39961   0.93754   0.00000  Uiso   1.00
C194   C     0.88692   0.12608   0.77451   0.00000  Uiso   1.00
C195   C     0.88635   0.00717   0.76815   0.00000  Uiso   1.00
C196   C     0.97560   0.95830   0.79543   0.00000  Uiso   1.00
C197   C     0.10089   0.83746   0.83100   0.00000  Uiso   1.00
C198   C     0.95728   0.32193   0.80821   0.00000  Uiso   1.00
C199   C     0.86479   0.36006   0.74454   0.00000  Uiso   1.00
C200   C     0.86258   0.45119   0.71932   0.00000  Uiso   1.00
C201   C     0.77054   0.47222   0.66041   0.00000  Uiso   1.00
C202   C     0.92415   0.32652   0.83214   0.00000  Uiso   1.00
C203   C     0.97187   0.38942   0.88058   0.00000  Uiso   1.00
C204   C     0.92982   0.38221   0.89543   0.00000  Uiso   1.00
C205   C     0.97357   0.19380   0.80698   0.00000  Uiso   1.00
C206   C     0.06284   0.14510   0.83428   0.00000  Uiso   1.00
C207   C     0.06241   0.02614   0.82795   0.00000  Uiso   1.00
H208   H     0.73029   0.14455   0.72316   0.00000  Uiso   1.00
H209   H     0.61904   0.26084   0.62809   0.00000  Uiso   1.00
H210   H     0.72833   0.19908   0.78933   0.00000  Uiso   1.00
H211   H     0.81928   0.95480   0.74303   0.00000  Uiso   1.00
H212   H     0.53390   0.41966   0.53700   0.00000  Uiso   1.00
H213   H     0.76436   0.28940   0.87699   0.00000  Uiso   1.00
H214   H     0.95615   0.77427   0.77936   0.00000  Uiso   1.00
H215   H     0.02474   0.37465   0.83348   0.00000  Uiso   1.00
H216   H     0.92965   0.50357   0.74446   0.00000  Uiso   1.00
H217   H     0.03893   0.44181   0.90570   0.00000  Uiso   1.00
H218   H     0.12988   0.19753   0.85939   0.00000  Uiso   1.00
H219   H     0.78600   0.61667   0.63145   0.00000  Uiso   1.00
H220   H     0.01645   0.48641   0.97145   0.00000  Uiso   1.00
H221   H     0.20825   0.97129   0.87381   0.00000  Uiso   1.00
O222   O     0.59208   0.59884   0.52368   0.00000  Uiso   1.00
O223   O     0.89443   0.42793   0.96974   0.00000  Uiso   1.00
O224   O     0.14606   0.75210   0.84164   0.00000  Uiso   1.00
N225   N     0.60629   0.44832   0.57144   0.00000  Uiso   1.00
N226   N     0.82174   0.32655   0.88931   0.00000  Uiso   1.00
N227   N     0.00106   0.84494   0.79805   0.00000  Uiso   1.00
N228   N     0.74194   0.55433   0.62227   0.00000  Uiso   1.00
N229   N     0.95739   0.43256   0.94013   0.00000  Uiso   1.00
N230   N     0.13671   0.95095   0.84887   0.00000  Uiso   1.00
C231   C     0.29775   0.69727   0.74844   0.00000  Uiso   1.00
C232   C     0.27814   0.79235   0.71207   0.00000  Uiso   1.00
C233   C     0.18608   0.81326   0.65319   0.00000  Uiso   1.00
C234   C     0.18373   0.90439   0.62789   0.00000  Uiso   1.00
C235   C     0.14009   0.04176   0.56650   0.00000  Uiso   1.00
C236   C     0.33751   0.75881   0.79968   0.00000  Uiso   1.00
C237   C     0.29538   0.75149   0.81445   0.00000  Uiso   1.00
C238   C     0.34302   0.81438   0.86290   0.00000  Uiso   1.00
C239   C     0.39159   0.89961   0.93754   0.00000  Uiso   1.00
C240   C     0.38692   0.62608   0.77451   0.00000  Uiso   1.00
C241   C     0.38635   0.50717   0.76815   0.00000  Uiso   1.00
C242   C     0.47560   0.45830   0.79543   0.00000  Uiso   1.00
C243   C     0.60089   0.33746   0.83100   0.00000  Uiso   1.00
C244   C     0.45728   0.82193   0.80821   0.00000  Uiso   1.00
C245   C     0.36479   0.86006   0.74454   0.00000  Uiso   1.00
C246   C     0.36258   0.95119   0.71932   0.00000  Uiso   1.00
C247   C     0.27054   0.97222   0.66041   0.00000  Uiso   1.00
C248   C     0.42415   0.82652   0.83214   0.00000  Uiso   1.00
C249   C     0.47187   0.88942   0.88058   0.00000  Uiso   1.00
C250   C     0.42982   0.88221   0.89543   0.00000  Uiso   1.00
C251   C     0.47357   0.69380   0.80698   0.00000  Uiso   1.00
C252   C     0.56284   0.64510   0.83428   0.00000  Uiso   1.00
C253   C     0.56241   0.52614   0.82795   0.00000  Uiso   1.00
H254   H     0.23029   0.64455   0.72316   0.00000  Uiso   1.00
H255   H     0.11904   0.76084   0.62809   0.00000  Uiso   1.00
H256   H     0.22833   0.69908   0.78933   0.00000  Uiso   1.00
H257   H     0.31928   0.45480   0.74303   0.00000  Uiso   1.00
H258   H     0.03390   0.91966   0.53700   0.00000  Uiso   1.00
H259   H     0.26436   0.78940   0.87699   0.00000  Uiso   1.00
H260   H     0.45615   0.27427   0.77936   0.00000  Uiso   1.00
H261   H     0.52474   0.87465   0.83348   0.00000  Uiso   1.00
H262   H     0.42965   0.00357   0.74446   0.00000  Uiso   1.00
H263   H     0.53893   0.94181   0.90570   0.00000  Uiso   1.00
H264   H     0.62988   0.69753   0.85939   0.00000  Uiso   1.00
H265   H     0.28600   0.11667   0.63145   0.00000  Uiso   1.00
H266   H     0.51645   0.98641   0.97145   0.00000  Uiso   1.00
H267   H     0.70825   0.47129   0.87381   0.00000  Uiso   1.00
O268   O     0.09208   0.09884   0.52368   0.00000  Uiso   1.00
O269   O     0.39443   0.92793   0.96974   0.00000  Uiso   1.00
O270   O     0.64606   0.25210   0.84164   0.00000  Uiso   1.00
N271   N     0.10629   0.94832   0.57144   0.00000  Uiso   1.00
N272   N     0.32174   0.82655   0.88931   0.00000  Uiso   1.00
N273   N     0.50106   0.34494   0.79805   0.00000  Uiso   1.00
N274   N     0.24194   0.05433   0.62227   0.00000  Uiso   1.00
N275   N     0.45739   0.93256   0.94013   0.00000  Uiso   1.00
N276   N     0.63671   0.45095   0.84887   0.00000  Uiso   1.00
C277   C     0.20225   0.19727   0.75156   0.00000  Uiso   1.00
C278   C     0.22186   0.29235   0.78793   0.00000  Uiso   1.00
C279   C     0.31392   0.31326   0.84681   0.00000  Uiso   1.00
C280   C     0.31627   0.40439   0.87211   0.00000  Uiso   1.00
C281   C     0.35991   0.54176   0.93350   0.00000  Uiso   1.00
C282   C     0.16249   0.25881   0.70032   0.00000  Uiso   1.00
C283   C     0.20462   0.25149   0.68555   0.00000  Uiso   1.00
C284   C     0.15698   0.31438   0.63710   0.00000  Uiso   1.00
C285   C     0.10841   0.39961   0.56246   0.00000  Uiso   1.00
C286   C     0.11308   0.12608   0.72549   0.00000  Uiso   1.00
C287   C     0.11365   0.00717   0.73185   0.00000  Uiso   1.00
C288   C     0.02440   0.95830   0.70457   0.00000  Uiso   1.00
C289   C     0.89911   0.83746   0.66900   0.00000  Uiso   1.00
C290   C     0.04272   0.32193   0.69179   0.00000  Uiso   1.00
C291   C     0.13521   0.36006   0.75546   0.00000  Uiso   1.00
C292   C     0.13742   0.45119   0.78068   0.00000  Uiso   1.00
C293   C     0.22946   0.47222   0.83959   0.00000  Uiso   1.00
C294   C     0.07585   0.32652   0.66786   0.00000  Uiso   1.00
C295   C     0.02813   0.38942   0.61942   0.00000  Uiso   1.00
C296   C     0.07018   0.38221   0.60457   0.00000  Uiso   1.00
C297   C     0.02643   0.19380   0.69302   0.00000  Uiso   1.00
C298   C     0.93716   0.14510   0.66572   0.00000  Uiso   1.00
C299   C     0.93759   0.02614   0.67205   0.00000  Uiso   1.00
H300   H     0.26971   0.14455   0.77684   0.00000  Uiso   1.00
H301   H     0.38096   0.26084   0.87191   0.00000  Uiso   1.00
H302   H     0.27167   0.19908   0.71067   0.00000  Uiso   1.00
H303   H     0.18072   0.95480   0.75697   0.00000  Uiso   1.00
H304   H     0.46610   0.41966   0.96300   0.00000  Uiso   1.00
H305   H     0.23564   0.28940   0.62301   0.00000  Uiso   1.00
H306   H     0.04385   0.77427   0.72064   0.00000  Uiso   1.00
H307   H     0.97526   0.37465   0.66652   0.00000  Uiso   1.00
H308   H     0.07035   0.50357   0.75554   0.00000  Uiso   1.00
H309   H     0.96107   0.44181   0.59430   0.00000  Uiso   1.00
H310   H     0.87012   0.19753   0.64061   0.00000  Uiso   1.00
H311   H     0.21400   0.61667   0.86855   0.00000  Uiso   1.00
H312   H     0.98355   0.48641   0.52855   0.00000  Uiso   1.00
H313   H     0.79175   0.97129   0.62619   0.00000  Uiso   1.00
O314   O     0.40792   0.59884   0.97632   0.00000  Uiso   1.00
O315   O     0.10557   0.42793   0.53026   0.00000  Uiso   1.00
O316   O     0.85394   0.75210   0.65836   0.00000  Uiso   1.00
N317   N     0.39371   0.44832   0.92856   0.00000  Uiso   1.00
N318   N     0.17826   0.32655   0.61069   0.00000  Uiso   1.00
N319   N     0.99894   0.84494   0.70195   0.00000  Uiso   1.00
N320   N     0.25806   0.55433   0.87773   0.00000  Uiso   1.00
N321   N     0.04261   0.43256   0.55987   0.00000  Uiso   1.00
N322   N     0.86329   0.95095   0.65113   0.00000  Uiso   1.00
C323   C     0.70225   0.69727   0.75156   0.00000  Uiso   1.00
C324   C     0.72186   0.79235   0.78793   0.00000  Uiso   1.00
C325   C     0.81392   0.81326   0.84681   0.00000  Uiso   1.00
C326   C     0.81627   0.90439   0.87211   0.00000  Uiso   1.00
C327   C     0.85991   0.04176   0.93350   0.00000  Uiso   1.00
C328   C     0.66249   0.75881   0.70032   0.00000  Uiso   1.00
C329   C     0.70462   0.75149   0.68555   0.00000  Uiso   1.00
C330   C     0.65698   0.81438   0.63710   0.00000  Uiso   1.00
C331   C     0.60841   0.89961   0.56246   0.00000  Uiso   1.00
C332   C     0.61308   0.62608   0.72549   0.00000  Uiso   1.00
C333   C     0.61365   0.50717   0.73185   0.00000  Uiso   1.00
C334   C     0.52440   0.45830   0.70457   0.00000  Uiso   1.00
C335   C     0.39911   0.33746   0.66900   0.00000  Uiso   1.00
C336   C     0.54272   0.82193   0.69179   0.00000  Uiso   1.00
C337   C     0.63521   0.86006   0.75546   0.00000  Uiso   1.00
C338   C     0.63742   0.95119   0.78068   0.00000  Uiso   1.00
C339   C     0.72946   0.97222   0.83959   0.00000  Uiso   1.00
C340   C     0.57585   0.82652   0.66786   0.00000  Uiso   1.00
C341   C     0.52813   0.88942   0.61942   0.00000  Uiso   1.00
C342   C     0.57018   0.88221   0.60457   0.00000  Uiso   1.00
C343   C     0.52643   0.69380   0.69302   0.00000  Uiso   1.00
C344   C     0.43716   0.64510   0.66572   0.00000  Uiso   1.00
C345   C     0.43759   0.52614   0.67205   0.00000  Uiso   1.00
H346   H     0.76971   0.64455   0.77684   0.00000  Uiso   1.00
H347   H     0.88096   0.76084   0.87191   0.00000  Uiso   1.00
H348   H     0.77167   0.69908   0.71067   0.00000  Uiso   1.00
H349   H     0.68072   0.45480   0.75697   0.00000  Uiso   1.00
H350   H     0.96610   0.91966   0.96300   0.00000  Uiso   1.00
H351   H     0.73564   0.78940   0.62301   0.00000  Uiso   1.00
H352   H     0.54385   0.27427   0.72064   0.00000  Uiso   1.00
H353   H     0.47526   0.87465   0.66652   0.00000  Uiso   1.00
H354   H     0.57035   0.00357   0.75554   0.00000  Uiso   1.00
H355   H     0.46107   0.94181   0.59430   0.00000  Uiso   1.00
H356   H     0.37012   0.69753   0.64061   0.00000  Uiso   1.00
H357   H     0.71400   0.11667   0.86855   0.00000  Uiso   1.00
H358   H     0.48355   0.98641   0.52855   0.00000  Uiso   1.00
H359   H     0.29175   0.47129   0.62619   0.00000  Uiso   1.00
O360   O     0.90792   0.09884   0.97632   0.00000  Uiso   1.00
O361   O     0.60557   0.92793   0.53026   0.00000  Uiso   1.00
O362   O     0.35394   0.25210   0.65836   0.00000  Uiso   1.00
N363   N     0.89371   0.94832   0.92856   0.00000  Uiso   1.00
N364   N     0.67826   0.82655   0.61069   0.00000  Uiso   1.00
N365   N     0.49894   0.34494   0.70195   0.00000  Uiso   1.00
N366   N     0.75806   0.05433   0.87773   0.00000  Uiso   1.00
N367   N     0.54261   0.93256   0.55987   0.00000  Uiso   1.00
N368   N     0.36329   0.45095   0.65113   0.00000  Uiso   1.00
