data_job_05288
_audit_creation_date              2018-12-19
_audit_creation_method            'Materials Studio'
_symmetry_space_group_name_H-M    'P1'
_symmetry_Int_Tables_number       1
_symmetry_cell_setting            triclinic
loop_
_symmetry_equiv_pos_as_xyz
  x,y,z
_cell_length_a                    9.8668
_cell_length_b                    48.3974
_cell_length_c                    18.7843
_cell_angle_alpha                 90.0000
_cell_angle_beta                  141.5973
_cell_angle_gamma                 90.0000
loop_
_atom_site_label
_atom_site_type_symbol
_atom_site_fract_x
_atom_site_fract_y
_atom_site_fract_z
_atom_site_U_iso_or_equiv
_atom_site_adp_type
_atom_site_occupancy
C1     C     0.45498   0.20139   0.31003   0.00000  Uiso   1.00
C2     C     0.36333   0.19771   0.19743   0.00000  Uiso   1.00
C3     C     0.19975   0.21357   0.09946   0.00000  Uiso   1.00
C4     C     0.13878   0.20692   0.00527   0.00000  Uiso   1.00
C5     C     0.98130   0.20451   0.82983   0.00000  Uiso   1.00
C6     C     0.42654   0.17359   0.33540   0.00000  Uiso   1.00
C7     C     0.31615   0.16918   0.35346   0.00000  Uiso   1.00
C8     C     0.30842   0.14222   0.37543   0.00000  Uiso   1.00
C9     C     0.24923   0.10236   0.41429   0.00000  Uiso   1.00
C10    C     0.70018   0.20543   0.40201   0.00000  Uiso   1.00
C11    C     0.81989   0.22778   0.47610   0.00000  Uiso   1.00
C12    C     0.04257   0.22763   0.55418   0.00000  Uiso   1.00
C13    C     0.40824   0.23721   0.69646   0.00000  Uiso   1.00
C14    C     0.63758   0.16136   0.31697   0.00000  Uiso   1.00
C15    C     0.46251   0.17597   0.20120   0.00000  Uiso   1.00
C16    C     0.40178   0.16929   0.10714   0.00000  Uiso   1.00
C17    C     0.23814   0.18514   0.00905   0.00000  Uiso   1.00
C18    C     0.52572   0.15185   0.33917   0.00000  Uiso   1.00
C19    C     0.51817   0.12489   0.36114   0.00000  Uiso   1.00
C20    C     0.40778   0.12044   0.37921   0.00000  Uiso   1.00
C21    C     0.79937   0.18369   0.40578   0.00000  Uiso   1.00
C22    C     0.02191   0.18350   0.48377   0.00000  Uiso   1.00
C23    C     0.14193   0.20585   0.55796   0.00000  Uiso   1.00
H24    H     0.37776   0.21831   0.30710   0.00000  Uiso   1.00
H25    H     0.12302   0.23040   0.09657   0.00000  Uiso   1.00
H26    H     0.23943   0.18600   0.35054   0.00000  Uiso   1.00
H27    H     0.74308   0.24460   0.47316   0.00000  Uiso   1.00
H28    H     0.88429   0.23420   0.86481   0.00000  Uiso   1.00
H29    H     0.12979   0.14060   0.40037   0.00000  Uiso   1.00
H30    H     0.19185   0.26417   0.65893   0.00000  Uiso   1.00
H31    H     0.71480   0.14443   0.31991   0.00000  Uiso   1.00
H32    H     0.47855   0.15246   0.11008   0.00000  Uiso   1.00
H33    H     0.59495   0.10807   0.36406   0.00000  Uiso   1.00
H34    H     0.09860   0.16667   0.48667   0.00000  Uiso   1.00
H35    H     0.17284   0.17094   0.87578   0.00000  Uiso   1.00
H36    H     0.41834   0.07734   0.41134   0.00000  Uiso   1.00
H37    H     0.48040   0.20091   0.66989   0.00000  Uiso   1.00
O38    O     0.86702   0.20918   0.73202   0.00000  Uiso   1.00
O39    O     0.18915   0.08639   0.43467   0.00000  Uiso   1.00
O40    O     0.58254   0.24850   0.77388   0.00000  Uiso   1.00
N41    N     0.98465   0.21821   0.89620   0.00000  Uiso   1.00
N42    N     0.21415   0.13070   0.39689   0.00000  Uiso   1.00
N43    N     0.20710   0.24622   0.63864   0.00000  Uiso   1.00
N44    N     0.13992   0.18418   0.90210   0.00000  Uiso   1.00
N45    N     0.36941   0.09667   0.40279   0.00000  Uiso   1.00
N46    N     0.36237   0.21219   0.64454   0.00000  Uiso   1.00
C47    C     0.46207   0.54807   0.60546   0.00000  Uiso   1.00
C48    C     0.70618   0.55156   0.71882   0.00000  Uiso   1.00
C49    C     0.83231   0.53574   0.81661   0.00000  Uiso   1.00
C50    C     0.05264   0.54220   0.91159   0.00000  Uiso   1.00
C51    C     0.41785   0.54435   0.08806   0.00000  Uiso   1.00
C52    C     0.35900   0.57603   0.57941   0.00000  Uiso   1.00
C53    C     0.19321   0.58080   0.55997   0.00000  Uiso   1.00
C54    C     0.12127   0.60786   0.53758   0.00000  Uiso   1.00
C55    C     0.94737   0.64801   0.49752   0.00000  Uiso   1.00
C56    C     0.43547   0.54374   0.51457   0.00000  Uiso   1.00
C57    C     0.33393   0.52136   0.44059   0.00000  Uiso   1.00
C58    C     0.32632   0.52124   0.36358   0.00000  Uiso   1.00
C59    C     0.27115   0.51126   0.22286   0.00000  Uiso   1.00
C60    C     0.62905   0.58765   0.60023   0.00000  Uiso   1.00
C61    C     0.79686   0.57306   0.71597   0.00000  Uiso   1.00
C62    C     0.01706   0.57954   0.81082   0.00000  Uiso   1.00
C63    C     0.14350   0.56374   0.90874   0.00000  Uiso   1.00
C64    C     0.44969   0.59753   0.57656   0.00000  Uiso   1.00
C65    C     0.37796   0.62459   0.55418   0.00000  Uiso   1.00
C66    C     0.21212   0.62939   0.53473   0.00000  Uiso   1.00
C67    C     0.52617   0.56524   0.51173   0.00000  Uiso   1.00
C68    C     0.51869   0.56516   0.43481   0.00000  Uiso   1.00
C69    C     0.41718   0.54278   0.36073   0.00000  Uiso   1.00
H70    H     0.39145   0.53133   0.60767   0.00000  Uiso   1.00
H71    H     0.76206   0.51911   0.81878   0.00000  Uiso   1.00
H72    H     0.12305   0.56416   0.56217   0.00000  Uiso   1.00
H73    H     0.26376   0.50473   0.44281   0.00000  Uiso   1.00
H74    H     0.21293   0.51505   0.05160   0.00000  Uiso   1.00
H75    H     0.86549   0.61003   0.51047   0.00000  Uiso   1.00
H76    H     0.16220   0.48472   0.25879   0.00000  Uiso   1.00
H77    H     0.69966   0.60439   0.59801   0.00000  Uiso   1.00
H78    H     0.08720   0.59618   0.80860   0.00000  Uiso   1.00
H79    H     0.44818   0.64122   0.55198   0.00000  Uiso   1.00
H80    H     0.58889   0.58180   0.43263   0.00000  Uiso   1.00
H81    H     0.47682   0.57760   0.04334   0.00000  Uiso   1.00
H82    H     0.12936   0.67258   0.50221   0.00000  Uiso   1.00
H83    H     0.42609   0.54727   0.25053   0.00000  Uiso   1.00
O84    O     0.59423   0.53961   0.18619   0.00000  Uiso   1.00
O85    O     0.82641   0.66421   0.47623   0.00000  Uiso   1.00
O86    O     0.21570   0.49981   0.14603   0.00000  Uiso   1.00
N87    N     0.22186   0.53089   0.02075   0.00000  Uiso   1.00
N88    N     0.96210   0.61969   0.51485   0.00000  Uiso   1.00
N89    N     0.23945   0.50254   0.27952   0.00000  Uiso   1.00
N90    N     0.36386   0.56455   0.01630   0.00000  Uiso   1.00
N91    N     0.10410   0.65335   0.51040   0.00000  Uiso   1.00
N92    N     0.38145   0.53620   0.27508   0.00000  Uiso   1.00
C93    C     0.78480   0.29845   0.65157   0.00000  Uiso   1.00
C94    C     0.69152   0.30197   0.53846   0.00000  Uiso   1.00
C95    C     0.52703   0.28607   0.44076   0.00000  Uiso   1.00
C96    C     0.46461   0.29257   0.34602   0.00000  Uiso   1.00
C97    C     0.30469   0.29475   0.16992   0.00000  Uiso   1.00
C98    C     0.75761   0.32634   0.67708   0.00000  Uiso   1.00
C99    C     0.64871   0.33094   0.69594   0.00000  Uiso   1.00
C100   C     0.64195   0.35796   0.71789   0.00000  Uiso   1.00
C101   C     0.58478   0.39798   0.75708   0.00000  Uiso   1.00
C102   C     0.02973   0.29432   0.74292   0.00000  Uiso   1.00
C103   C     0.14966   0.27200   0.81718   0.00000  Uiso   1.00
C104   C     0.37203   0.27207   0.89460   0.00000  Uiso   1.00
C105   C     0.73736   0.26238   0.03602   0.00000  Uiso   1.00
C106   C     0.96646   0.33826   0.65705   0.00000  Uiso   1.00
C107   C     0.79019   0.32359   0.54144   0.00000  Uiso   1.00
C108   C     0.72802   0.33012   0.44682   0.00000  Uiso   1.00
C109   C     0.56346   0.31423   0.34900   0.00000  Uiso   1.00
C110   C     0.85628   0.34797   0.68005   0.00000  Uiso   1.00
C111   C     0.84970   0.37499   0.70199   0.00000  Uiso   1.00
C112   C     0.74080   0.37962   0.72087   0.00000  Uiso   1.00
C113   C     0.12841   0.31595   0.74590   0.00000  Uiso   1.00
C114   C     0.35064   0.31605   0.82323   0.00000  Uiso   1.00
C115   C     0.47088   0.29373   0.89758   0.00000  Uiso   1.00
H116   H     0.70798   0.28161   0.64926   0.00000  Uiso   1.00
H117   H     0.45069   0.26933   0.43849   0.00000  Uiso   1.00
H118   H     0.57239   0.31420   0.69364   0.00000  Uiso   1.00
H119   H     0.07325   0.25527   0.81485   0.00000  Uiso   1.00
H120   H     0.20891   0.26526   0.20612   0.00000  Uiso   1.00
H121   H     0.46556   0.35986   0.74414   0.00000  Uiso   1.00
H122   H     0.52173   0.23560   0.99975   0.00000  Uiso   1.00
H123   H     0.04328   0.35510   0.65937   0.00000  Uiso   1.00
H124   H     0.80440   0.34686   0.44915   0.00000  Uiso   1.00
H125   H     0.92608   0.39172   0.70430   0.00000  Uiso   1.00
H126   H     0.42694   0.33279   0.82551   0.00000  Uiso   1.00
H127   H     0.49598   0.32818   0.21477   0.00000  Uiso   1.00
H128   H     0.75264   0.42278   0.75280   0.00000  Uiso   1.00
H129   H     0.80880   0.29852   0.00840   0.00000  Uiso   1.00
O130   O     0.18920   0.28998   0.07196   0.00000  Uiso   1.00
O131   O     0.52596   0.41408   0.77785   0.00000  Uiso   1.00
O132   O     0.91161   0.25106   0.11319   0.00000  Uiso   1.00
N133   N     0.30929   0.28120   0.23701   0.00000  Uiso   1.00
N134   N     0.54921   0.36964   0.74001   0.00000  Uiso   1.00
N135   N     0.53665   0.25347   0.97900   0.00000  Uiso   1.00
N136   N     0.46376   0.31506   0.24166   0.00000  Uiso   1.00
N137   N     0.70368   0.40350   0.74467   0.00000  Uiso   1.00
N138   N     0.69112   0.28733   0.98366   0.00000  Uiso   1.00
C139   C     0.13268   0.95205   0.26426   0.00000  Uiso   1.00
C140   C     0.37668   0.94858   0.37782   0.00000  Uiso   1.00
C141   C     0.50218   0.96436   0.47562   0.00000  Uiso   1.00
C142   C     0.72253   0.95794   0.57080   0.00000  Uiso   1.00
C143   C     0.08749   0.95581   0.74755   0.00000  Uiso   1.00
C144   C     0.02973   0.92404   0.23791   0.00000  Uiso   1.00
C145   C     0.86350   0.91919   0.21806   0.00000  Uiso   1.00
C146   C     0.79176   0.89211   0.19545   0.00000  Uiso   1.00
C147   C     0.61796   0.85189   0.15490   0.00000  Uiso   1.00
C148   C     0.10686   0.95647   0.17370   0.00000  Uiso   1.00
C149   C     0.00541   0.97888   0.09984   0.00000  Uiso   1.00
C150   C     0.99856   0.97909   0.02314   0.00000  Uiso   1.00
C151   C     0.94451   0.98922   0.88290   0.00000  Uiso   1.00
C152   C     0.30084   0.91259   0.25936   0.00000  Uiso   1.00
C153   C     0.46801   0.92715   0.37516   0.00000  Uiso   1.00
C154   C     0.68823   0.92070   0.47020   0.00000  Uiso   1.00
C155   C     0.81404   0.93647   0.56813   0.00000  Uiso   1.00
C156   C     0.12106   0.90261   0.23525   0.00000  Uiso   1.00
C157   C     0.04955   0.87553   0.21264   0.00000  Uiso   1.00
C158   C     0.88326   0.87064   0.19278   0.00000  Uiso   1.00
C159   C     0.19820   0.93504   0.17104   0.00000  Uiso   1.00
C160   C     0.19148   0.93522   0.09443   0.00000  Uiso   1.00
C161   C     0.09006   0.95762   0.02048   0.00000  Uiso   1.00
H162   H     0.06156   0.96873   0.26633   0.00000  Uiso   1.00
H163   H     0.43143   0.98094   0.47765   0.00000  Uiso   1.00
H164   H     0.79283   0.93578   0.22012   0.00000  Uiso   1.00
H165   H     0.93475   0.99546   0.10193   0.00000  Uiso   1.00
H166   H     0.88177   0.98502   0.71078   0.00000  Uiso   1.00
H167   H     0.53520   0.88980   0.16772   0.00000  Uiso   1.00
H168   H     0.83444   0.01564   0.91848   0.00000  Uiso   1.00
H169   H     0.37195   0.89590   0.25729   0.00000  Uiso   1.00
H170   H     0.75887   0.90412   0.46812   0.00000  Uiso   1.00
H171   H     0.12026   0.85895   0.21059   0.00000  Uiso   1.00
H172   H     0.26218   0.91863   0.09239   0.00000  Uiso   1.00
H173   H     0.14752   0.92266   0.70305   0.00000  Uiso   1.00
H174   H     0.80094   0.82744   0.15998   0.00000  Uiso   1.00
H175   H     0.10020   0.95328   0.91075   0.00000  Uiso   1.00
O176   O     0.26356   0.96055   0.84578   0.00000  Uiso   1.00
O177   O     0.49688   0.83563   0.13328   0.00000  Uiso   1.00
O178   O     0.88949   0.00073   0.80630   0.00000  Uiso   1.00
N179   N     0.89122   0.96922   0.68002   0.00000  Uiso   1.00
N180   N     0.63228   0.88019   0.17231   0.00000  Uiso   1.00
N181   N     0.91200   0.99784   0.93927   0.00000  Uiso   1.00
N182   N     0.03423   0.93567   0.67586   0.00000  Uiso   1.00
N183   N     0.77528   0.84664   0.16815   0.00000  Uiso   1.00
N184   N     0.05500   0.96429   0.93511   0.00000  Uiso   1.00
C185   C     0.45498   0.79861   0.81003   0.00000  Uiso   1.00
C186   C     0.36333   0.80229   0.69743   0.00000  Uiso   1.00
C187   C     0.19975   0.78643   0.59946   0.00000  Uiso   1.00
C188   C     0.13878   0.79308   0.50527   0.00000  Uiso   1.00
C189   C     0.98130   0.79549   0.32983   0.00000  Uiso   1.00
C190   C     0.42654   0.82641   0.83540   0.00000  Uiso   1.00
C191   C     0.31615   0.83082   0.85346   0.00000  Uiso   1.00
C192   C     0.30842   0.85778   0.87543   0.00000  Uiso   1.00
C193   C     0.24923   0.89764   0.91429   0.00000  Uiso   1.00
C194   C     0.70018   0.79457   0.90201   0.00000  Uiso   1.00
C195   C     0.81989   0.77222   0.97610   0.00000  Uiso   1.00
C196   C     0.04257   0.77237   0.05418   0.00000  Uiso   1.00
C197   C     0.40824   0.76279   0.19646   0.00000  Uiso   1.00
C198   C     0.63758   0.83864   0.81697   0.00000  Uiso   1.00
C199   C     0.46251   0.82403   0.70120   0.00000  Uiso   1.00
C200   C     0.40178   0.83071   0.60714   0.00000  Uiso   1.00
C201   C     0.23814   0.81486   0.50905   0.00000  Uiso   1.00
C202   C     0.52572   0.84815   0.83917   0.00000  Uiso   1.00
C203   C     0.51817   0.87511   0.86114   0.00000  Uiso   1.00
C204   C     0.40778   0.87956   0.87921   0.00000  Uiso   1.00
C205   C     0.79937   0.81631   0.90578   0.00000  Uiso   1.00
C206   C     0.02191   0.81650   0.98377   0.00000  Uiso   1.00
C207   C     0.14193   0.79415   0.05796   0.00000  Uiso   1.00
H208   H     0.37776   0.78169   0.80710   0.00000  Uiso   1.00
H209   H     0.12302   0.76960   0.59657   0.00000  Uiso   1.00
H210   H     0.23943   0.81400   0.85054   0.00000  Uiso   1.00
H211   H     0.74308   0.75540   0.97316   0.00000  Uiso   1.00
H212   H     0.88429   0.76580   0.36481   0.00000  Uiso   1.00
H213   H     0.12979   0.85940   0.90037   0.00000  Uiso   1.00
H214   H     0.19185   0.73583   0.15893   0.00000  Uiso   1.00
H215   H     0.71480   0.85557   0.81991   0.00000  Uiso   1.00
H216   H     0.47855   0.84754   0.61008   0.00000  Uiso   1.00
H217   H     0.59495   0.89193   0.86406   0.00000  Uiso   1.00
H218   H     0.09860   0.83333   0.98667   0.00000  Uiso   1.00
H219   H     0.17284   0.82906   0.37578   0.00000  Uiso   1.00
H220   H     0.41834   0.92266   0.91134   0.00000  Uiso   1.00
H221   H     0.48040   0.79909   0.16989   0.00000  Uiso   1.00
O222   O     0.86702   0.79082   0.23202   0.00000  Uiso   1.00
O223   O     0.18915   0.91361   0.93467   0.00000  Uiso   1.00
O224   O     0.58254   0.75150   0.27388   0.00000  Uiso   1.00
N225   N     0.98465   0.78179   0.39620   0.00000  Uiso   1.00
N226   N     0.21415   0.86930   0.89689   0.00000  Uiso   1.00
N227   N     0.20710   0.75378   0.13864   0.00000  Uiso   1.00
N228   N     0.13992   0.81582   0.40210   0.00000  Uiso   1.00
N229   N     0.36941   0.90333   0.90279   0.00000  Uiso   1.00
N230   N     0.36237   0.78781   0.14454   0.00000  Uiso   1.00
C231   C     0.46207   0.45193   0.10546   0.00000  Uiso   1.00
C232   C     0.70618   0.44844   0.21882   0.00000  Uiso   1.00
C233   C     0.83231   0.46426   0.31661   0.00000  Uiso   1.00
C234   C     0.05264   0.45780   0.41159   0.00000  Uiso   1.00
C235   C     0.41785   0.45565   0.58806   0.00000  Uiso   1.00
C236   C     0.35900   0.42397   0.07941   0.00000  Uiso   1.00
C237   C     0.19321   0.41920   0.05997   0.00000  Uiso   1.00
C238   C     0.12127   0.39214   0.03758   0.00000  Uiso   1.00
C239   C     0.94737   0.35199   0.99752   0.00000  Uiso   1.00
C240   C     0.43547   0.45626   0.01457   0.00000  Uiso   1.00
C241   C     0.33393   0.47864   0.94059   0.00000  Uiso   1.00
C242   C     0.32632   0.47876   0.86358   0.00000  Uiso   1.00
C243   C     0.27115   0.48874   0.72286   0.00000  Uiso   1.00
C244   C     0.62905   0.41235   0.10023   0.00000  Uiso   1.00
C245   C     0.79686   0.42694   0.21597   0.00000  Uiso   1.00
C246   C     0.01706   0.42046   0.31082   0.00000  Uiso   1.00
C247   C     0.14350   0.43626   0.40874   0.00000  Uiso   1.00
C248   C     0.44969   0.40247   0.07656   0.00000  Uiso   1.00
C249   C     0.37796   0.37541   0.05418   0.00000  Uiso   1.00
C250   C     0.21212   0.37061   0.03473   0.00000  Uiso   1.00
C251   C     0.52617   0.43476   0.01173   0.00000  Uiso   1.00
C252   C     0.51869   0.43484   0.93481   0.00000  Uiso   1.00
C253   C     0.41718   0.45722   0.86073   0.00000  Uiso   1.00
H254   H     0.39145   0.46867   0.10767   0.00000  Uiso   1.00
H255   H     0.76206   0.48089   0.31878   0.00000  Uiso   1.00
H256   H     0.12305   0.43584   0.06217   0.00000  Uiso   1.00
H257   H     0.26376   0.49527   0.94281   0.00000  Uiso   1.00
H258   H     0.21293   0.48495   0.55160   0.00000  Uiso   1.00
H259   H     0.86549   0.38997   0.01047   0.00000  Uiso   1.00
H260   H     0.16220   0.51528   0.75879   0.00000  Uiso   1.00
H261   H     0.69966   0.39561   0.09801   0.00000  Uiso   1.00
H262   H     0.08720   0.40382   0.30860   0.00000  Uiso   1.00
H263   H     0.44818   0.35878   0.05198   0.00000  Uiso   1.00
H264   H     0.58889   0.41820   0.93263   0.00000  Uiso   1.00
H265   H     0.47682   0.42240   0.54334   0.00000  Uiso   1.00
H266   H     0.12936   0.32742   0.00221   0.00000  Uiso   1.00
H267   H     0.42609   0.45273   0.75053   0.00000  Uiso   1.00
O268   O     0.59423   0.46039   0.68619   0.00000  Uiso   1.00
O269   O     0.82641   0.33579   0.97623   0.00000  Uiso   1.00
O270   O     0.21570   0.50019   0.64603   0.00000  Uiso   1.00
N271   N     0.22186   0.46911   0.52075   0.00000  Uiso   1.00
N272   N     0.96210   0.38031   0.01485   0.00000  Uiso   1.00
N273   N     0.23945   0.49746   0.77952   0.00000  Uiso   1.00
N274   N     0.36386   0.43545   0.51630   0.00000  Uiso   1.00
N275   N     0.10410   0.34665   0.01040   0.00000  Uiso   1.00
N276   N     0.38145   0.46380   0.77508   0.00000  Uiso   1.00
C277   C     0.78480   0.70155   0.15157   0.00000  Uiso   1.00
C278   C     0.69152   0.69803   0.03846   0.00000  Uiso   1.00
C279   C     0.52703   0.71393   0.94076   0.00000  Uiso   1.00
C280   C     0.46461   0.70743   0.84602   0.00000  Uiso   1.00
C281   C     0.30469   0.70525   0.66992   0.00000  Uiso   1.00
C282   C     0.75761   0.67366   0.17708   0.00000  Uiso   1.00
C283   C     0.64871   0.66906   0.19594   0.00000  Uiso   1.00
C284   C     0.64195   0.64204   0.21789   0.00000  Uiso   1.00
C285   C     0.58478   0.60202   0.25708   0.00000  Uiso   1.00
C286   C     0.02973   0.70568   0.24292   0.00000  Uiso   1.00
C287   C     0.14966   0.72800   0.31718   0.00000  Uiso   1.00
C288   C     0.37203   0.72793   0.39460   0.00000  Uiso   1.00
C289   C     0.73736   0.73762   0.53602   0.00000  Uiso   1.00
C290   C     0.96646   0.66174   0.15705   0.00000  Uiso   1.00
C291   C     0.79019   0.67641   0.04144   0.00000  Uiso   1.00
C292   C     0.72802   0.66988   0.94682   0.00000  Uiso   1.00
C293   C     0.56346   0.68577   0.84900   0.00000  Uiso   1.00
C294   C     0.85628   0.65203   0.18005   0.00000  Uiso   1.00
C295   C     0.84970   0.62501   0.20199   0.00000  Uiso   1.00
C296   C     0.74080   0.62038   0.22087   0.00000  Uiso   1.00
C297   C     0.12841   0.68405   0.24590   0.00000  Uiso   1.00
C298   C     0.35064   0.68395   0.32323   0.00000  Uiso   1.00
C299   C     0.47088   0.70627   0.39758   0.00000  Uiso   1.00
H300   H     0.70798   0.71839   0.14926   0.00000  Uiso   1.00
H301   H     0.45069   0.73067   0.93849   0.00000  Uiso   1.00
H302   H     0.57239   0.68580   0.19364   0.00000  Uiso   1.00
H303   H     0.07325   0.74473   0.31485   0.00000  Uiso   1.00
H304   H     0.20891   0.73474   0.70612   0.00000  Uiso   1.00
H305   H     0.46556   0.64014   0.24414   0.00000  Uiso   1.00
H306   H     0.52173   0.76440   0.49975   0.00000  Uiso   1.00
H307   H     0.04328   0.64490   0.15937   0.00000  Uiso   1.00
H308   H     0.80440   0.65314   0.94915   0.00000  Uiso   1.00
H309   H     0.92608   0.60828   0.20430   0.00000  Uiso   1.00
H310   H     0.42694   0.66721   0.32551   0.00000  Uiso   1.00
H311   H     0.49598   0.67182   0.71477   0.00000  Uiso   1.00
H312   H     0.75264   0.57722   0.25280   0.00000  Uiso   1.00
H313   H     0.80880   0.70148   0.50840   0.00000  Uiso   1.00
O314   O     0.18920   0.71002   0.57196   0.00000  Uiso   1.00
O315   O     0.52596   0.58592   0.27785   0.00000  Uiso   1.00
O316   O     0.91161   0.74894   0.61319   0.00000  Uiso   1.00
N317   N     0.30929   0.71880   0.73701   0.00000  Uiso   1.00
N318   N     0.54921   0.63036   0.24001   0.00000  Uiso   1.00
N319   N     0.53665   0.74653   0.47900   0.00000  Uiso   1.00
N320   N     0.46376   0.68494   0.74166   0.00000  Uiso   1.00
N321   N     0.70368   0.59650   0.24467   0.00000  Uiso   1.00
N322   N     0.69112   0.71267   0.48366   0.00000  Uiso   1.00
C323   C     0.13268   0.04795   0.76426   0.00000  Uiso   1.00
C324   C     0.37668   0.05142   0.87782   0.00000  Uiso   1.00
C325   C     0.50218   0.03564   0.97562   0.00000  Uiso   1.00
C326   C     0.72253   0.04206   0.07080   0.00000  Uiso   1.00
C327   C     0.08749   0.04419   0.24755   0.00000  Uiso   1.00
C328   C     0.02973   0.07596   0.73791   0.00000  Uiso   1.00
C329   C     0.86350   0.08081   0.71806   0.00000  Uiso   1.00
C330   C     0.79176   0.10789   0.69545   0.00000  Uiso   1.00
C331   C     0.61796   0.14811   0.65490   0.00000  Uiso   1.00
C332   C     0.10686   0.04353   0.67370   0.00000  Uiso   1.00
C333   C     0.00541   0.02112   0.59984   0.00000  Uiso   1.00
C334   C     0.99856   0.02091   0.52314   0.00000  Uiso   1.00
C335   C     0.94451   0.01078   0.38290   0.00000  Uiso   1.00
C336   C     0.30084   0.08741   0.75936   0.00000  Uiso   1.00
C337   C     0.46801   0.07285   0.87516   0.00000  Uiso   1.00
C338   C     0.68823   0.07930   0.97020   0.00000  Uiso   1.00
C339   C     0.81404   0.06353   0.06813   0.00000  Uiso   1.00
C340   C     0.12106   0.09739   0.73525   0.00000  Uiso   1.00
C341   C     0.04955   0.12447   0.71264   0.00000  Uiso   1.00
C342   C     0.88326   0.12936   0.69278   0.00000  Uiso   1.00
C343   C     0.19820   0.06496   0.67104   0.00000  Uiso   1.00
C344   C     0.19148   0.06478   0.59443   0.00000  Uiso   1.00
C345   C     0.09006   0.04238   0.52048   0.00000  Uiso   1.00
H346   H     0.06156   0.03127   0.76633   0.00000  Uiso   1.00
H347   H     0.43143   0.01906   0.97765   0.00000  Uiso   1.00
H348   H     0.79283   0.06422   0.72012   0.00000  Uiso   1.00
H349   H     0.93475   0.00454   0.60193   0.00000  Uiso   1.00
H350   H     0.88177   0.01498   0.21078   0.00000  Uiso   1.00
H351   H     0.53520   0.11020   0.66772   0.00000  Uiso   1.00
H352   H     0.83444   0.98436   0.41848   0.00000  Uiso   1.00
H353   H     0.37195   0.10410   0.75729   0.00000  Uiso   1.00
H354   H     0.75887   0.09588   0.96812   0.00000  Uiso   1.00
H355   H     0.12026   0.14105   0.71059   0.00000  Uiso   1.00
H356   H     0.26218   0.08137   0.59239   0.00000  Uiso   1.00
H357   H     0.14752   0.07734   0.20305   0.00000  Uiso   1.00
H358   H     0.80094   0.17256   0.65998   0.00000  Uiso   1.00
H359   H     0.10020   0.04672   0.41075   0.00000  Uiso   1.00
O360   O     0.26356   0.03945   0.34578   0.00000  Uiso   1.00
O361   O     0.49688   0.16437   0.63328   0.00000  Uiso   1.00
O362   O     0.88949   0.99927   0.30630   0.00000  Uiso   1.00
N363   N     0.89122   0.03078   0.18002   0.00000  Uiso   1.00
N364   N     0.63228   0.11981   0.67231   0.00000  Uiso   1.00
N365   N     0.91200   0.00216   0.43927   0.00000  Uiso   1.00
N366   N     0.03423   0.06433   0.17586   0.00000  Uiso   1.00
N367   N     0.77528   0.15336   0.66815   0.00000  Uiso   1.00
N368   N     0.05500   0.03571   0.43511   0.00000  Uiso   1.00
