data_job_01750
_audit_creation_date              2018-12-19
_audit_creation_method            'Materials Studio'
_symmetry_space_group_name_H-M    'P1'
_symmetry_Int_Tables_number       1
_symmetry_cell_setting            triclinic
loop_
_symmetry_equiv_pos_as_xyz
  x,y,z
_cell_length_a                    11.4056
_cell_length_b                    11.7440
_cell_length_c                    13.8464
_cell_angle_alpha                 84.8964
_cell_angle_beta                  108.3658
_cell_angle_gamma                 113.7100
loop_
_atom_site_label
_atom_site_type_symbol
_atom_site_fract_x
_atom_site_fract_y
_atom_site_fract_z
_atom_site_U_iso_or_equiv
_atom_site_adp_type
_atom_site_occupancy
C1     C     0.09282   0.79249   0.71475   0.00000  Uiso   1.00
C2     C     0.15616   0.93204   0.70065   0.00000  Uiso   1.00
C3     C     0.19233   0.98697   0.61572   0.00000  Uiso   1.00
C4     C     0.24887   0.11614   0.61756   0.00000  Uiso   1.00
C5     C     0.34430   0.32193   0.58294   0.00000  Uiso   1.00
C6     C     0.18510   0.76711   0.81300   0.00000  Uiso   1.00
C7     C     0.24559   0.68335   0.82254   0.00000  Uiso   1.00
C8     C     0.32649   0.67368   0.91896   0.00000  Uiso   1.00
C9     C     0.46678   0.62334   0.05878   0.00000  Uiso   1.00
C10    C     0.96195   0.76861   0.73633   0.00000  Uiso   1.00
C11    C     0.83482   0.68609   0.68141   0.00000  Uiso   1.00
C12    C     0.72784   0.67766   0.71329   0.00000  Uiso   1.00
C13    C     0.52165   0.62966   0.73407   0.00000  Uiso   1.00
C14    C     0.12891   0.92422   0.86903   0.00000  Uiso   1.00
C15    C     0.17576   0.00358   0.78445   0.00000  Uiso   1.00
C16    C     0.23226   0.13271   0.78642   0.00000  Uiso   1.00
C17    C     0.26851   0.18782   0.70151   0.00000  Uiso   1.00
C18    C     0.20471   0.83865   0.89680   0.00000  Uiso   1.00
C19    C     0.28553   0.82909   0.99323   0.00000  Uiso   1.00
C20    C     0.34613   0.74535   0.00291   0.00000  Uiso   1.00
C21    C     0.98155   0.84015   0.82013   0.00000  Uiso   1.00
C22    C     0.87476   0.83184   0.85211   0.00000  Uiso   1.00
C23    C     0.74748   0.74933   0.79725   0.00000  Uiso   1.00
H24    H     0.07756   0.73679   0.64951   0.00000  Uiso   1.00
H25    H     0.17715   0.93157   0.55089   0.00000  Uiso   1.00
H26    H     0.23040   0.62799   0.75768   0.00000  Uiso   1.00
H27    H     0.81969   0.63074   0.61657   0.00000  Uiso   1.00
H28    H     0.29625   0.17907   0.47852   0.00000  Uiso   1.00
H29    H     0.40849   0.53893   0.91455   0.00000  Uiso   1.00
H30    H     0.54242   0.54472   0.61699   0.00000  Uiso   1.00
H31    H     0.14418   0.97992   0.93428   0.00000  Uiso   1.00
H32    H     0.24742   0.18805   0.85128   0.00000  Uiso   1.00
H33    H     0.30067   0.88447   0.05807   0.00000  Uiso   1.00
H34    H     0.88996   0.88722   0.91696   0.00000  Uiso   1.00
H35    H     0.35330   0.38724   0.72233   0.00000  Uiso   1.00
H36    H     0.46552   0.74709   0.15836   0.00000  Uiso   1.00
H37    H     0.59947   0.75289   0.86081   0.00000  Uiso   1.00
O38    O     0.39153   0.41568   0.54071   0.00000  Uiso   1.00
O39    O     0.53875   0.57582   0.11275   0.00000  Uiso   1.00
O40    O     0.40250   0.58343   0.72237   0.00000  Uiso   1.00
N41    N     0.29549   0.19950   0.54728   0.00000  Uiso   1.00
N42    N     0.40043   0.60102   0.95494   0.00000  Uiso   1.00
N43    N     0.59074   0.60641   0.67677   0.00000  Uiso   1.00
N44    N     0.32618   0.31151   0.67848   0.00000  Uiso   1.00
N45    N     0.43113   0.71303   0.08613   0.00000  Uiso   1.00
N46    N     0.62143   0.71842   0.80796   0.00000  Uiso   1.00
C47    C     0.90718   0.20751   0.28525   0.00000  Uiso   1.00
C48    C     0.84384   0.06796   0.29935   0.00000  Uiso   1.00
C49    C     0.80767   0.01303   0.38428   0.00000  Uiso   1.00
C50    C     0.75113   0.88386   0.38244   0.00000  Uiso   1.00
C51    C     0.65570   0.67807   0.41706   0.00000  Uiso   1.00
C52    C     0.81490   0.23289   0.18700   0.00000  Uiso   1.00
C53    C     0.75441   0.31665   0.17746   0.00000  Uiso   1.00
C54    C     0.67351   0.32632   0.08104   0.00000  Uiso   1.00
C55    C     0.53322   0.37666   0.94122   0.00000  Uiso   1.00
C56    C     0.03805   0.23139   0.26367   0.00000  Uiso   1.00
C57    C     0.16518   0.31391   0.31859   0.00000  Uiso   1.00
C58    C     0.27216   0.32234   0.28671   0.00000  Uiso   1.00
C59    C     0.47835   0.37034   0.26593   0.00000  Uiso   1.00
C60    C     0.87109   0.07578   0.13097   0.00000  Uiso   1.00
C61    C     0.82424   0.99642   0.21555   0.00000  Uiso   1.00
C62    C     0.76774   0.86729   0.21358   0.00000  Uiso   1.00
C63    C     0.73149   0.81218   0.29849   0.00000  Uiso   1.00
C64    C     0.79529   0.16135   0.10320   0.00000  Uiso   1.00
C65    C     0.71447   0.17091   0.00677   0.00000  Uiso   1.00
C66    C     0.65387   0.25465   0.99709   0.00000  Uiso   1.00
C67    C     0.01845   0.15985   0.17987   0.00000  Uiso   1.00
C68    C     0.12524   0.16816   0.14789   0.00000  Uiso   1.00
C69    C     0.25252   0.25067   0.20275   0.00000  Uiso   1.00
H70    H     0.92244   0.26321   0.35049   0.00000  Uiso   1.00
H71    H     0.82285   0.06843   0.44911   0.00000  Uiso   1.00
H72    H     0.76960   0.37201   0.24232   0.00000  Uiso   1.00
H73    H     0.18031   0.36926   0.38343   0.00000  Uiso   1.00
H74    H     0.70375   0.82093   0.52148   0.00000  Uiso   1.00
H75    H     0.59151   0.46107   0.08545   0.00000  Uiso   1.00
H76    H     0.45758   0.45528   0.38301   0.00000  Uiso   1.00
H77    H     0.85582   0.02008   0.06572   0.00000  Uiso   1.00
H78    H     0.75258   0.81195   0.14872   0.00000  Uiso   1.00
H79    H     0.69933   0.11553   0.94193   0.00000  Uiso   1.00
H80    H     0.11004   0.11278   0.08304   0.00000  Uiso   1.00
H81    H     0.64670   0.61276   0.27767   0.00000  Uiso   1.00
H82    H     0.53448   0.25291   0.84164   0.00000  Uiso   1.00
H83    H     0.40053   0.24711   0.13919   0.00000  Uiso   1.00
O84    O     0.60847   0.58432   0.45929   0.00000  Uiso   1.00
O85    O     0.46125   0.42418   0.88725   0.00000  Uiso   1.00
O86    O     0.59750   0.41657   0.27763   0.00000  Uiso   1.00
N87    N     0.70451   0.80050   0.45272   0.00000  Uiso   1.00
N88    N     0.59957   0.39898   0.04506   0.00000  Uiso   1.00
N89    N     0.40926   0.39359   0.32323   0.00000  Uiso   1.00
N90    N     0.67382   0.68849   0.32152   0.00000  Uiso   1.00
N91    N     0.56887   0.28697   0.91387   0.00000  Uiso   1.00
N92    N     0.37857   0.28158   0.19204   0.00000  Uiso   1.00
