data_job_04595
_audit_creation_date              2018-12-19
_audit_creation_method            'Materials Studio'
_symmetry_space_group_name_H-M    'P1'
_symmetry_Int_Tables_number       1
_symmetry_cell_setting            triclinic
loop_
_symmetry_equiv_pos_as_xyz
  x,y,z
_cell_length_a                    38.1063
_cell_length_b                    9.8628
_cell_length_c                    14.5826
_cell_angle_alpha                 90.0000
_cell_angle_beta                  90.0000
_cell_angle_gamma                 90.0000
loop_
_atom_site_label
_atom_site_type_symbol
_atom_site_fract_x
_atom_site_fract_y
_atom_site_fract_z
_atom_site_U_iso_or_equiv
_atom_site_adp_type
_atom_site_occupancy
C1     C     0.37246   0.45725   0.09518   0.00000  Uiso   1.00
C2     C     0.38592   0.54790   0.17225   0.00000  Uiso   1.00
C3     C     0.42090   0.57028   0.19390   0.00000  Uiso   1.00
C4     C     0.42780   0.65667   0.26688   0.00000  Uiso   1.00
C5     C     0.45282   0.78799   0.37905   0.00000  Uiso   1.00
C6     C     0.34797   0.35478   0.14032   0.00000  Uiso   1.00
C7     C     0.35105   0.21477   0.13513   0.00000  Uiso   1.00
C8     C     0.32600   0.13860   0.18123   0.00000  Uiso   1.00
C9     C     0.29210   0.97008   0.24378   0.00000  Uiso   1.00
C10    C     0.34924   0.54693   0.03540   0.00000  Uiso   1.00
C11    C     0.35338   0.56848   0.94198   0.00000  Uiso   1.00
C12    C     0.32938   0.65406   0.89974   0.00000  Uiso   1.00
C13    C     0.29745   0.78390   0.79938   0.00000  Uiso   1.00
C14    C     0.32248   0.57089   0.18628   0.00000  Uiso   1.00
C15    C     0.35877   0.60962   0.22173   0.00000  Uiso   1.00
C16    C     0.36561   0.69601   0.29469   0.00000  Uiso   1.00
C17    C     0.40060   0.71851   0.31645   0.00000  Uiso   1.00
C18    C     0.32083   0.41650   0.18980   0.00000  Uiso   1.00
C19    C     0.29576   0.34051   0.23592   0.00000  Uiso   1.00
C20    C     0.29881   0.20043   0.23080   0.00000  Uiso   1.00
C21    C     0.32209   0.60867   0.08488   0.00000  Uiso   1.00
C22    C     0.29809   0.69422   0.04277   0.00000  Uiso   1.00
C23    C     0.30219   0.71590   0.94931   0.00000  Uiso   1.00
H24    H     0.39359   0.40918   0.05666   0.00000  Uiso   1.00
H25    H     0.44190   0.52248   0.15560   0.00000  Uiso   1.00
H26    H     0.37206   0.16704   0.09682   0.00000  Uiso   1.00
H27    H     0.37438   0.52069   0.90371   0.00000  Uiso   1.00
H28    H     0.48349   0.67527   0.28713   0.00000  Uiso   1.00
H29    H     0.33622   0.92580   0.16318   0.00000  Uiso   1.00
H30    H     0.34112   0.67155   0.75596   0.00000  Uiso   1.00
H31    H     0.30135   0.61895   0.22480   0.00000  Uiso   1.00
H32    H     0.34460   0.74377   0.33297   0.00000  Uiso   1.00
H33    H     0.27476   0.38832   0.27420   0.00000  Uiso   1.00
H34    H     0.27708   0.74197   0.08109   0.00000  Uiso   1.00
H35    H     0.40452   0.85487   0.43110   0.00000  Uiso   1.00
H36    H     0.25725   0.10539   0.30714   0.00000  Uiso   1.00
H37    H     0.26215   0.85115   0.89993   0.00000  Uiso   1.00
O38    O     0.47413   0.84335   0.42726   0.00000  Uiso   1.00
O39    O     0.28091   0.86008   0.26462   0.00000  Uiso   1.00
O40    O     0.28734   0.83849   0.73036   0.00000  Uiso   1.00
N41    N     0.45897   0.70043   0.30616   0.00000  Uiso   1.00
N42    N     0.32129   0.99972   0.19028   0.00000  Uiso   1.00
N43    N     0.32586   0.69690   0.80956   0.00000  Uiso   1.00
N44    N     0.41648   0.79707   0.38362   0.00000  Uiso   1.00
N45    N     0.27879   0.09636   0.26775   0.00000  Uiso   1.00
N46    N     0.28337   0.79355   0.88703   0.00000  Uiso   1.00
C47    C     0.62542   0.05280   0.61937   0.00000  Uiso   1.00
C48    C     0.61310   0.96344   0.54033   0.00000  Uiso   1.00
C49    C     0.57843   0.93634   0.51771   0.00000  Uiso   1.00
C50    C     0.57262   0.85213   0.44294   0.00000  Uiso   1.00
C51    C     0.54925   0.72181   0.32783   0.00000  Uiso   1.00
C52    C     0.64884   0.16110   0.57666   0.00000  Uiso   1.00
C53    C     0.64422   0.30018   0.58458   0.00000  Uiso   1.00
C54    C     0.66849   0.38236   0.54040   0.00000  Uiso   1.00
C55    C     0.70062   0.55891   0.48175   0.00000  Uiso   1.00
C56    C     0.64949   0.96440   0.67770   0.00000  Uiso   1.00
C57    C     0.64543   0.93813   0.77059   0.00000  Uiso   1.00
C58    C     0.67026   0.85472   0.81148   0.00000  Uiso   1.00
C59    C     0.70341   0.72587   0.90971   0.00000  Uiso   1.00
C60    C     0.67675   0.95143   0.52683   0.00000  Uiso   1.00
C61    C     0.64099   0.90839   0.49006   0.00000  Uiso   1.00
C62    C     0.63523   0.82419   0.41531   0.00000  Uiso   1.00
C63    C     0.60055   0.79696   0.39258   0.00000  Uiso   1.00
C64    C     0.67672   0.10605   0.52639   0.00000  Uiso   1.00
C65    C     0.70101   0.18803   0.48219   0.00000  Uiso   1.00
C66    C     0.69643   0.32721   0.49004   0.00000  Uiso   1.00
C67    C     0.67738   0.90934   0.62743   0.00000  Uiso   1.00
C68    C     0.70223   0.82597   0.66819   0.00000  Uiso   1.00
C69    C     0.69820   0.79957   0.76112   0.00000  Uiso   1.00
H70    H     0.60371   0.09567   0.65850   0.00000  Uiso   1.00
H71    H     0.55686   0.97897   0.55662   0.00000  Uiso   1.00
H72    H     0.62264   0.34276   0.62350   0.00000  Uiso   1.00
H73    H     0.62385   0.98075   0.80946   0.00000  Uiso   1.00
H74    H     0.51721   0.82536   0.42147   0.00000  Uiso   1.00
H75    H     0.65591   0.59242   0.56251   0.00000  Uiso   1.00
H76    H     0.65847   0.82906   0.95467   0.00000  Uiso   1.00
H77    H     0.69846   0.90857   0.48769   0.00000  Uiso   1.00
H78    H     0.65681   0.78160   0.37643   0.00000  Uiso   1.00
H79    H     0.72259   0.14539   0.44330   0.00000  Uiso   1.00
H80    H     0.72380   0.78338   0.62927   0.00000  Uiso   1.00
H81    H     0.59834   0.66517   0.27522   0.00000  Uiso   1.00
H82    H     0.73704   0.43223   0.41626   0.00000  Uiso   1.00
H83    H     0.73960   0.66887   0.80841   0.00000  Uiso   1.00
O84    O     0.52866   0.66515   0.27821   0.00000  Uiso   1.00
O85    O     0.71064   0.67151   0.46327   0.00000  Uiso   1.00
O86    O     0.71399   0.66999   0.97777   0.00000  Uiso   1.00
N87    N     0.54202   0.80506   0.40233   0.00000  Uiso   1.00
N88    N     0.67170   0.52222   0.53418   0.00000  Uiso   1.00
N89    N     0.67409   0.80857   0.90082   0.00000  Uiso   1.00
N90    N     0.58567   0.71886   0.32363   0.00000  Uiso   1.00
N91    N     0.71535   0.43602   0.45548   0.00000  Uiso   1.00
N92    N     0.71774   0.72237   0.82212   0.00000  Uiso   1.00
C93    C     0.62754   0.54275   0.09518   0.00000  Uiso   1.00
C94    C     0.61408   0.45210   0.17225   0.00000  Uiso   1.00
C95    C     0.57910   0.42972   0.19390   0.00000  Uiso   1.00
C96    C     0.57220   0.34333   0.26688   0.00000  Uiso   1.00
C97    C     0.54718   0.21201   0.37905   0.00000  Uiso   1.00
C98    C     0.65203   0.64522   0.14032   0.00000  Uiso   1.00
C99    C     0.64895   0.78523   0.13513   0.00000  Uiso   1.00
C100   C     0.67400   0.86140   0.18123   0.00000  Uiso   1.00
C101   C     0.70790   0.02992   0.24378   0.00000  Uiso   1.00
C102   C     0.65076   0.45307   0.03540   0.00000  Uiso   1.00
C103   C     0.64662   0.43152   0.94198   0.00000  Uiso   1.00
C104   C     0.67062   0.34594   0.89974   0.00000  Uiso   1.00
C105   C     0.70255   0.21610   0.79938   0.00000  Uiso   1.00
C106   C     0.67752   0.42911   0.18628   0.00000  Uiso   1.00
C107   C     0.64123   0.39038   0.22173   0.00000  Uiso   1.00
C108   C     0.63439   0.30399   0.29469   0.00000  Uiso   1.00
C109   C     0.59940   0.28149   0.31645   0.00000  Uiso   1.00
C110   C     0.67917   0.58350   0.18980   0.00000  Uiso   1.00
C111   C     0.70424   0.65949   0.23592   0.00000  Uiso   1.00
C112   C     0.70119   0.79957   0.23080   0.00000  Uiso   1.00
C113   C     0.67791   0.39133   0.08488   0.00000  Uiso   1.00
C114   C     0.70191   0.30578   0.04277   0.00000  Uiso   1.00
C115   C     0.69781   0.28410   0.94931   0.00000  Uiso   1.00
H116   H     0.60641   0.59082   0.05666   0.00000  Uiso   1.00
H117   H     0.55810   0.47752   0.15560   0.00000  Uiso   1.00
H118   H     0.62794   0.83296   0.09682   0.00000  Uiso   1.00
H119   H     0.62562   0.47931   0.90371   0.00000  Uiso   1.00
H120   H     0.51651   0.32473   0.28713   0.00000  Uiso   1.00
H121   H     0.66378   0.07420   0.16318   0.00000  Uiso   1.00
H122   H     0.65888   0.32845   0.75596   0.00000  Uiso   1.00
H123   H     0.69865   0.38105   0.22480   0.00000  Uiso   1.00
H124   H     0.65540   0.25623   0.33297   0.00000  Uiso   1.00
H125   H     0.72524   0.61168   0.27420   0.00000  Uiso   1.00
H126   H     0.72292   0.25803   0.08109   0.00000  Uiso   1.00
H127   H     0.59548   0.14513   0.43110   0.00000  Uiso   1.00
H128   H     0.74275   0.89461   0.30714   0.00000  Uiso   1.00
H129   H     0.73785   0.14885   0.89993   0.00000  Uiso   1.00
O130   O     0.52587   0.15665   0.42726   0.00000  Uiso   1.00
O131   O     0.71909   0.13992   0.26462   0.00000  Uiso   1.00
O132   O     0.71266   0.16151   0.73036   0.00000  Uiso   1.00
N133   N     0.54103   0.29957   0.30616   0.00000  Uiso   1.00
N134   N     0.67871   0.00028   0.19028   0.00000  Uiso   1.00
N135   N     0.67414   0.30310   0.80956   0.00000  Uiso   1.00
N136   N     0.58352   0.20293   0.38362   0.00000  Uiso   1.00
N137   N     0.72121   0.90364   0.26775   0.00000  Uiso   1.00
N138   N     0.71663   0.20645   0.88703   0.00000  Uiso   1.00
C139   C     0.37458   0.94720   0.61937   0.00000  Uiso   1.00
C140   C     0.38690   0.03656   0.54033   0.00000  Uiso   1.00
C141   C     0.42157   0.06366   0.51771   0.00000  Uiso   1.00
C142   C     0.42738   0.14787   0.44294   0.00000  Uiso   1.00
C143   C     0.45075   0.27819   0.32783   0.00000  Uiso   1.00
C144   C     0.35116   0.83890   0.57666   0.00000  Uiso   1.00
C145   C     0.35578   0.69982   0.58458   0.00000  Uiso   1.00
C146   C     0.33151   0.61764   0.54040   0.00000  Uiso   1.00
C147   C     0.29938   0.44109   0.48175   0.00000  Uiso   1.00
C148   C     0.35051   0.03560   0.67770   0.00000  Uiso   1.00
C149   C     0.35457   0.06187   0.77059   0.00000  Uiso   1.00
C150   C     0.32974   0.14528   0.81148   0.00000  Uiso   1.00
C151   C     0.29659   0.27413   0.90971   0.00000  Uiso   1.00
C152   C     0.32325   0.04857   0.52683   0.00000  Uiso   1.00
C153   C     0.35901   0.09161   0.49006   0.00000  Uiso   1.00
C154   C     0.36477   0.17581   0.41531   0.00000  Uiso   1.00
C155   C     0.39945   0.20304   0.39258   0.00000  Uiso   1.00
C156   C     0.32328   0.89395   0.52639   0.00000  Uiso   1.00
C157   C     0.29899   0.81197   0.48219   0.00000  Uiso   1.00
C158   C     0.30357   0.67279   0.49004   0.00000  Uiso   1.00
C159   C     0.32262   0.09066   0.62743   0.00000  Uiso   1.00
C160   C     0.29777   0.17403   0.66819   0.00000  Uiso   1.00
C161   C     0.30180   0.20043   0.76112   0.00000  Uiso   1.00
H162   H     0.39629   0.90433   0.65850   0.00000  Uiso   1.00
H163   H     0.44314   0.02103   0.55662   0.00000  Uiso   1.00
H164   H     0.37736   0.65724   0.62350   0.00000  Uiso   1.00
H165   H     0.37615   0.01925   0.80946   0.00000  Uiso   1.00
H166   H     0.48279   0.17464   0.42147   0.00000  Uiso   1.00
H167   H     0.34409   0.40758   0.56251   0.00000  Uiso   1.00
H168   H     0.34153   0.17094   0.95467   0.00000  Uiso   1.00
H169   H     0.30154   0.09143   0.48769   0.00000  Uiso   1.00
H170   H     0.34319   0.21840   0.37643   0.00000  Uiso   1.00
H171   H     0.27741   0.85461   0.44330   0.00000  Uiso   1.00
H172   H     0.27620   0.21662   0.62927   0.00000  Uiso   1.00
H173   H     0.40166   0.33483   0.27522   0.00000  Uiso   1.00
H174   H     0.26296   0.56777   0.41626   0.00000  Uiso   1.00
H175   H     0.26040   0.33113   0.80841   0.00000  Uiso   1.00
O176   O     0.47134   0.33485   0.27821   0.00000  Uiso   1.00
O177   O     0.28936   0.32849   0.46327   0.00000  Uiso   1.00
O178   O     0.28601   0.33001   0.97777   0.00000  Uiso   1.00
N179   N     0.45798   0.19494   0.40233   0.00000  Uiso   1.00
N180   N     0.32830   0.47778   0.53418   0.00000  Uiso   1.00
N181   N     0.32591   0.19143   0.90082   0.00000  Uiso   1.00
N182   N     0.41433   0.28114   0.32363   0.00000  Uiso   1.00
N183   N     0.28465   0.56398   0.45548   0.00000  Uiso   1.00
N184   N     0.28226   0.27763   0.82212   0.00000  Uiso   1.00
C185   C     0.12754   0.95725   0.90482   0.00000  Uiso   1.00
C186   C     0.11408   0.04790   0.82775   0.00000  Uiso   1.00
C187   C     0.07910   0.07028   0.80610   0.00000  Uiso   1.00
C188   C     0.07220   0.15667   0.73312   0.00000  Uiso   1.00
C189   C     0.04718   0.28799   0.62095   0.00000  Uiso   1.00
C190   C     0.15203   0.85478   0.85968   0.00000  Uiso   1.00
C191   C     0.14895   0.71477   0.86487   0.00000  Uiso   1.00
C192   C     0.17400   0.63860   0.81877   0.00000  Uiso   1.00
C193   C     0.20790   0.47008   0.75622   0.00000  Uiso   1.00
C194   C     0.15076   0.04693   0.96460   0.00000  Uiso   1.00
C195   C     0.14662   0.06848   0.05802   0.00000  Uiso   1.00
C196   C     0.17062   0.15406   0.10026   0.00000  Uiso   1.00
C197   C     0.20255   0.28390   0.20062   0.00000  Uiso   1.00
C198   C     0.17752   0.07089   0.81372   0.00000  Uiso   1.00
C199   C     0.14123   0.10962   0.77827   0.00000  Uiso   1.00
C200   C     0.13439   0.19601   0.70531   0.00000  Uiso   1.00
C201   C     0.09940   0.21851   0.68355   0.00000  Uiso   1.00
C202   C     0.17917   0.91650   0.81020   0.00000  Uiso   1.00
C203   C     0.20424   0.84051   0.76408   0.00000  Uiso   1.00
C204   C     0.20119   0.70043   0.76920   0.00000  Uiso   1.00
C205   C     0.17791   0.10867   0.91512   0.00000  Uiso   1.00
C206   C     0.20191   0.19422   0.95723   0.00000  Uiso   1.00
C207   C     0.19781   0.21590   0.05069   0.00000  Uiso   1.00
H208   H     0.10641   0.90918   0.94334   0.00000  Uiso   1.00
H209   H     0.05810   0.02248   0.84440   0.00000  Uiso   1.00
H210   H     0.12794   0.66704   0.90318   0.00000  Uiso   1.00
H211   H     0.12562   0.02069   0.09629   0.00000  Uiso   1.00
H212   H     0.01651   0.17527   0.71287   0.00000  Uiso   1.00
H213   H     0.16378   0.42580   0.83682   0.00000  Uiso   1.00
H214   H     0.15888   0.17155   0.24404   0.00000  Uiso   1.00
H215   H     0.19865   0.11895   0.77520   0.00000  Uiso   1.00
H216   H     0.15540   0.24377   0.66703   0.00000  Uiso   1.00
H217   H     0.22524   0.88832   0.72580   0.00000  Uiso   1.00
H218   H     0.22292   0.24197   0.91891   0.00000  Uiso   1.00
H219   H     0.09548   0.35487   0.56890   0.00000  Uiso   1.00
H220   H     0.24275   0.60539   0.69286   0.00000  Uiso   1.00
H221   H     0.23785   0.35115   0.10007   0.00000  Uiso   1.00
O222   O     0.02587   0.34335   0.57274   0.00000  Uiso   1.00
O223   O     0.21909   0.36008   0.73538   0.00000  Uiso   1.00
O224   O     0.21266   0.33849   0.26964   0.00000  Uiso   1.00
N225   N     0.04103   0.20043   0.69384   0.00000  Uiso   1.00
N226   N     0.17871   0.49972   0.80972   0.00000  Uiso   1.00
N227   N     0.17414   0.19690   0.19044   0.00000  Uiso   1.00
N228   N     0.08352   0.29707   0.61638   0.00000  Uiso   1.00
N229   N     0.22121   0.59636   0.73225   0.00000  Uiso   1.00
N230   N     0.21663   0.29355   0.11297   0.00000  Uiso   1.00
C231   C     0.87458   0.55280   0.38063   0.00000  Uiso   1.00
C232   C     0.88690   0.46344   0.45967   0.00000  Uiso   1.00
C233   C     0.92157   0.43634   0.48229   0.00000  Uiso   1.00
C234   C     0.92738   0.35213   0.55706   0.00000  Uiso   1.00
C235   C     0.95075   0.22181   0.67217   0.00000  Uiso   1.00
C236   C     0.85116   0.66110   0.42334   0.00000  Uiso   1.00
C237   C     0.85578   0.80018   0.41542   0.00000  Uiso   1.00
C238   C     0.83151   0.88236   0.45960   0.00000  Uiso   1.00
C239   C     0.79938   0.05891   0.51825   0.00000  Uiso   1.00
C240   C     0.85051   0.46440   0.32230   0.00000  Uiso   1.00
C241   C     0.85457   0.43813   0.22941   0.00000  Uiso   1.00
C242   C     0.82974   0.35472   0.18852   0.00000  Uiso   1.00
C243   C     0.79659   0.22587   0.09029   0.00000  Uiso   1.00
C244   C     0.82325   0.45143   0.47317   0.00000  Uiso   1.00
C245   C     0.85901   0.40839   0.50994   0.00000  Uiso   1.00
C246   C     0.86477   0.32419   0.58469   0.00000  Uiso   1.00
C247   C     0.89945   0.29696   0.60742   0.00000  Uiso   1.00
C248   C     0.82328   0.60605   0.47361   0.00000  Uiso   1.00
C249   C     0.79899   0.68803   0.51781   0.00000  Uiso   1.00
C250   C     0.80357   0.82721   0.50996   0.00000  Uiso   1.00
C251   C     0.82262   0.40934   0.37257   0.00000  Uiso   1.00
C252   C     0.79777   0.32597   0.33181   0.00000  Uiso   1.00
C253   C     0.80180   0.29957   0.23888   0.00000  Uiso   1.00
H254   H     0.89629   0.59567   0.34150   0.00000  Uiso   1.00
H255   H     0.94314   0.47897   0.44338   0.00000  Uiso   1.00
H256   H     0.87736   0.84276   0.37650   0.00000  Uiso   1.00
H257   H     0.87615   0.48075   0.19054   0.00000  Uiso   1.00
H258   H     0.98279   0.32536   0.57853   0.00000  Uiso   1.00
H259   H     0.84409   0.09242   0.43749   0.00000  Uiso   1.00
H260   H     0.84153   0.32906   0.04533   0.00000  Uiso   1.00
H261   H     0.80154   0.40857   0.51231   0.00000  Uiso   1.00
H262   H     0.84319   0.28160   0.62357   0.00000  Uiso   1.00
H263   H     0.77741   0.64539   0.55670   0.00000  Uiso   1.00
H264   H     0.77620   0.28338   0.37073   0.00000  Uiso   1.00
H265   H     0.90166   0.16517   0.72478   0.00000  Uiso   1.00
H266   H     0.76296   0.93223   0.58374   0.00000  Uiso   1.00
H267   H     0.76040   0.16887   0.19159   0.00000  Uiso   1.00
O268   O     0.97134   0.16515   0.72179   0.00000  Uiso   1.00
O269   O     0.78936   0.17151   0.53673   0.00000  Uiso   1.00
O270   O     0.78601   0.16999   0.02223   0.00000  Uiso   1.00
N271   N     0.95798   0.30506   0.59767   0.00000  Uiso   1.00
N272   N     0.82830   0.02222   0.46582   0.00000  Uiso   1.00
N273   N     0.82591   0.30857   0.09918   0.00000  Uiso   1.00
N274   N     0.91433   0.21886   0.67637   0.00000  Uiso   1.00
N275   N     0.78465   0.93602   0.54452   0.00000  Uiso   1.00
N276   N     0.78226   0.22237   0.17788   0.00000  Uiso   1.00
C277   C     0.87246   0.04275   0.90482   0.00000  Uiso   1.00
C278   C     0.88592   0.95210   0.82775   0.00000  Uiso   1.00
C279   C     0.92090   0.92972   0.80610   0.00000  Uiso   1.00
C280   C     0.92780   0.84333   0.73312   0.00000  Uiso   1.00
C281   C     0.95282   0.71201   0.62095   0.00000  Uiso   1.00
C282   C     0.84797   0.14522   0.85968   0.00000  Uiso   1.00
C283   C     0.85105   0.28523   0.86487   0.00000  Uiso   1.00
C284   C     0.82600   0.36140   0.81877   0.00000  Uiso   1.00
C285   C     0.79210   0.52992   0.75622   0.00000  Uiso   1.00
C286   C     0.84924   0.95307   0.96460   0.00000  Uiso   1.00
C287   C     0.85338   0.93152   0.05802   0.00000  Uiso   1.00
C288   C     0.82938   0.84594   0.10026   0.00000  Uiso   1.00
C289   C     0.79745   0.71610   0.20062   0.00000  Uiso   1.00
C290   C     0.82248   0.92911   0.81372   0.00000  Uiso   1.00
C291   C     0.85877   0.89038   0.77827   0.00000  Uiso   1.00
C292   C     0.86561   0.80399   0.70531   0.00000  Uiso   1.00
C293   C     0.90060   0.78149   0.68355   0.00000  Uiso   1.00
C294   C     0.82083   0.08350   0.81020   0.00000  Uiso   1.00
C295   C     0.79576   0.15949   0.76408   0.00000  Uiso   1.00
C296   C     0.79881   0.29957   0.76920   0.00000  Uiso   1.00
C297   C     0.82209   0.89133   0.91512   0.00000  Uiso   1.00
C298   C     0.79809   0.80578   0.95723   0.00000  Uiso   1.00
C299   C     0.80219   0.78410   0.05069   0.00000  Uiso   1.00
H300   H     0.89359   0.09082   0.94334   0.00000  Uiso   1.00
H301   H     0.94190   0.97752   0.84440   0.00000  Uiso   1.00
H302   H     0.87206   0.33296   0.90318   0.00000  Uiso   1.00
H303   H     0.87438   0.97931   0.09629   0.00000  Uiso   1.00
H304   H     0.98349   0.82473   0.71287   0.00000  Uiso   1.00
H305   H     0.83622   0.57420   0.83682   0.00000  Uiso   1.00
H306   H     0.84112   0.82845   0.24404   0.00000  Uiso   1.00
H307   H     0.80135   0.88105   0.77520   0.00000  Uiso   1.00
H308   H     0.84460   0.75623   0.66703   0.00000  Uiso   1.00
H309   H     0.77476   0.11168   0.72580   0.00000  Uiso   1.00
H310   H     0.77708   0.75803   0.91891   0.00000  Uiso   1.00
H311   H     0.90452   0.64513   0.56890   0.00000  Uiso   1.00
H312   H     0.75725   0.39461   0.69286   0.00000  Uiso   1.00
H313   H     0.76215   0.64885   0.10007   0.00000  Uiso   1.00
O314   O     0.97413   0.65665   0.57274   0.00000  Uiso   1.00
O315   O     0.78091   0.63992   0.73538   0.00000  Uiso   1.00
O316   O     0.78734   0.66151   0.26964   0.00000  Uiso   1.00
N317   N     0.95897   0.79957   0.69384   0.00000  Uiso   1.00
N318   N     0.82129   0.50028   0.80972   0.00000  Uiso   1.00
N319   N     0.82586   0.80310   0.19044   0.00000  Uiso   1.00
N320   N     0.91648   0.70293   0.61638   0.00000  Uiso   1.00
N321   N     0.77879   0.40364   0.73225   0.00000  Uiso   1.00
N322   N     0.78337   0.70645   0.11297   0.00000  Uiso   1.00
C323   C     0.12542   0.44720   0.38063   0.00000  Uiso   1.00
C324   C     0.11310   0.53656   0.45967   0.00000  Uiso   1.00
C325   C     0.07843   0.56366   0.48229   0.00000  Uiso   1.00
C326   C     0.07262   0.64787   0.55706   0.00000  Uiso   1.00
C327   C     0.04925   0.77819   0.67217   0.00000  Uiso   1.00
C328   C     0.14884   0.33890   0.42334   0.00000  Uiso   1.00
C329   C     0.14422   0.19982   0.41542   0.00000  Uiso   1.00
C330   C     0.16849   0.11764   0.45960   0.00000  Uiso   1.00
C331   C     0.20062   0.94109   0.51825   0.00000  Uiso   1.00
C332   C     0.14949   0.53560   0.32230   0.00000  Uiso   1.00
C333   C     0.14543   0.56187   0.22941   0.00000  Uiso   1.00
C334   C     0.17026   0.64528   0.18852   0.00000  Uiso   1.00
C335   C     0.20341   0.77413   0.09029   0.00000  Uiso   1.00
C336   C     0.17675   0.54857   0.47317   0.00000  Uiso   1.00
C337   C     0.14099   0.59161   0.50994   0.00000  Uiso   1.00
C338   C     0.13523   0.67581   0.58469   0.00000  Uiso   1.00
C339   C     0.10055   0.70304   0.60742   0.00000  Uiso   1.00
C340   C     0.17672   0.39395   0.47361   0.00000  Uiso   1.00
C341   C     0.20101   0.31197   0.51781   0.00000  Uiso   1.00
C342   C     0.19643   0.17279   0.50996   0.00000  Uiso   1.00
C343   C     0.17738   0.59066   0.37257   0.00000  Uiso   1.00
C344   C     0.20223   0.67403   0.33181   0.00000  Uiso   1.00
C345   C     0.19820   0.70043   0.23888   0.00000  Uiso   1.00
H346   H     0.10371   0.40433   0.34150   0.00000  Uiso   1.00
H347   H     0.05686   0.52103   0.44338   0.00000  Uiso   1.00
H348   H     0.12264   0.15724   0.37650   0.00000  Uiso   1.00
H349   H     0.12385   0.51925   0.19054   0.00000  Uiso   1.00
H350   H     0.01721   0.67464   0.57853   0.00000  Uiso   1.00
H351   H     0.15591   0.90758   0.43749   0.00000  Uiso   1.00
H352   H     0.15847   0.67094   0.04533   0.00000  Uiso   1.00
H353   H     0.19846   0.59143   0.51231   0.00000  Uiso   1.00
H354   H     0.15681   0.71840   0.62357   0.00000  Uiso   1.00
H355   H     0.22259   0.35461   0.55670   0.00000  Uiso   1.00
H356   H     0.22380   0.71662   0.37073   0.00000  Uiso   1.00
H357   H     0.09834   0.83483   0.72478   0.00000  Uiso   1.00
H358   H     0.23704   0.06777   0.58374   0.00000  Uiso   1.00
H359   H     0.23960   0.83113   0.19159   0.00000  Uiso   1.00
O360   O     0.02866   0.83485   0.72179   0.00000  Uiso   1.00
O361   O     0.21064   0.82849   0.53673   0.00000  Uiso   1.00
O362   O     0.21399   0.83001   0.02223   0.00000  Uiso   1.00
N363   N     0.04202   0.69494   0.59767   0.00000  Uiso   1.00
N364   N     0.17170   0.97778   0.46582   0.00000  Uiso   1.00
N365   N     0.17409   0.69143   0.09918   0.00000  Uiso   1.00
N366   N     0.08567   0.78114   0.67637   0.00000  Uiso   1.00
N367   N     0.21535   0.06398   0.54452   0.00000  Uiso   1.00
N368   N     0.21774   0.77763   0.17788   0.00000  Uiso   1.00
