data_job_06045
_audit_creation_date              2018-12-19
_audit_creation_method            'Materials Studio'
_symmetry_space_group_name_H-M    'P1'
_symmetry_Int_Tables_number       1
_symmetry_cell_setting            triclinic
loop_
_symmetry_equiv_pos_as_xyz
  x,y,z
_cell_length_a                    15.6964
_cell_length_b                    15.5402
_cell_length_c                    15.3652
_cell_angle_alpha                 91.7425
_cell_angle_beta                  92.3289
_cell_angle_gamma                 92.9038
loop_
_atom_site_label
_atom_site_type_symbol
_atom_site_fract_x
_atom_site_fract_y
_atom_site_fract_z
_atom_site_U_iso_or_equiv
_atom_site_adp_type
_atom_site_occupancy
C1     C     0.20890   0.90693   0.56779   0.00000  Uiso   1.00
C2     C     0.21029   0.00202   0.54583   0.00000  Uiso   1.00
C3     C     0.16498   0.03679   0.47710   0.00000  Uiso   1.00
C4     C     0.17485   0.12531   0.46804   0.00000  Uiso   1.00
C5     C     0.16888   0.26508   0.42520   0.00000  Uiso   1.00
C6     C     0.18209   0.90240   0.66190   0.00000  Uiso   1.00
C7     C     0.11306   0.85340   0.69074   0.00000  Uiso   1.00
C8     C     0.09920   0.85806   0.77940   0.00000  Uiso   1.00
C9     C     0.04948   0.84313   0.91675   0.00000  Uiso   1.00
C10    C     0.30155   0.88175   0.56840   0.00000  Uiso   1.00
C11    C     0.33298   0.81536   0.51865   0.00000  Uiso   1.00
C12    C     0.41970   0.80262   0.52860   0.00000  Uiso   1.00
C13    C     0.55546   0.75561   0.52079   0.00000  Uiso   1.00
C14    C     0.30703   0.00232   0.67394   0.00000  Uiso   1.00
C15    C     0.26359   0.05383   0.60349   0.00000  Uiso   1.00
C16    C     0.27355   0.14232   0.59454   0.00000  Uiso   1.00
C17    C     0.22825   0.17721   0.52580   0.00000  Uiso   1.00
C18    C     0.23538   0.95421   0.71955   0.00000  Uiso   1.00
C19    C     0.22163   0.95894   0.80819   0.00000  Uiso   1.00
C20    C     0.15260   0.90997   0.83716   0.00000  Uiso   1.00
C21    C     0.35486   0.93356   0.62605   0.00000  Uiso   1.00
C22    C     0.44155   0.92090   0.63609   0.00000  Uiso   1.00
C23    C     0.47310   0.85452   0.58636   0.00000  Uiso   1.00
H24    H     0.16740   0.86659   0.52291   0.00000  Uiso   1.00
H25    H     0.12373   0.99667   0.43249   0.00000  Uiso   1.00
H26    H     0.07183   0.81331   0.64611   0.00000  Uiso   1.00
H27    H     0.29171   0.77528   0.47404   0.00000  Uiso   1.00
H28    H     0.09879   0.16373   0.35770   0.00000  Uiso   1.00
H29    H     0.98938   0.77709   0.80812   0.00000  Uiso   1.00
H30    H     0.45304   0.69689   0.44528   0.00000  Uiso   1.00
H31    H     0.34853   0.04266   0.71884   0.00000  Uiso   1.00
H32    H     0.31480   0.18240   0.63917   0.00000  Uiso   1.00
H33    H     0.26290   0.99904   0.85279   0.00000  Uiso   1.00
H34    H     0.48277   0.96101   0.68071   0.00000  Uiso   1.00
H35    H     0.25387   0.31448   0.52544   0.00000  Uiso   1.00
H36    H     0.14446   0.92783   0.97587   0.00000  Uiso   1.00
H37    H     0.60811   0.84764   0.61302   0.00000  Uiso   1.00
O38    O     0.15085   0.32786   0.38565   0.00000  Uiso   1.00
O39    O     0.00731   0.82058   0.97659   0.00000  Uiso   1.00
O40    O     0.61562   0.71537   0.50054   0.00000  Uiso   1.00
N41    N     0.13993   0.18003   0.40810   0.00000  Uiso   1.00
N42    N     0.03763   0.81855   0.82922   0.00000  Uiso   1.00
N43    N     0.47110   0.74356   0.49001   0.00000  Uiso   1.00
N44    N     0.22338   0.26115   0.49836   0.00000  Uiso   1.00
N45    N     0.12107   0.89967   0.91948   0.00000  Uiso   1.00
N46    N     0.55455   0.82468   0.58027   0.00000  Uiso   1.00
C47    C     0.56542   0.21088   0.85688   0.00000  Uiso   1.00
C48    C     0.53897   0.20913   0.95124   0.00000  Uiso   1.00
C49    C     0.47172   0.15906   0.98219   0.00000  Uiso   1.00
C50    C     0.45790   0.16668   0.07070   0.00000  Uiso   1.00
C51    C     0.40901   0.15544   0.20879   0.00000  Uiso   1.00
C52    C     0.65909   0.18908   0.85846   0.00000  Uiso   1.00
C53    C     0.69283   0.12216   0.81138   0.00000  Uiso   1.00
C54    C     0.78013   0.11291   0.82178   0.00000  Uiso   1.00
C55    C     0.91774   0.07058   0.81577   0.00000  Uiso   1.00
C56    C     0.56335   0.30472   0.83096   0.00000  Uiso   1.00
C57    C     0.51660   0.33505   0.76075   0.00000  Uiso   1.00
C58    C     0.52331   0.42316   0.74799   0.00000  Uiso   1.00
C59    C     0.51225   0.56039   0.69928   0.00000  Uiso   1.00
C60    C     0.66049   0.31344   0.95906   0.00000  Uiso   1.00
C61    C     0.59061   0.26483   0.00674   0.00000  Uiso   1.00
C62    C     0.57689   0.27252   0.09523   0.00000  Uiso   1.00
C63    C     0.50963   0.22248   0.12630   0.00000  Uiso   1.00
C64    C     0.71073   0.24477   0.91395   0.00000  Uiso   1.00
C65    C     0.79801   0.23562   0.92443   0.00000  Uiso   1.00
C66    C     0.83187   0.16871   0.87738   0.00000  Uiso   1.00
C67    C     0.61498   0.36043   0.88646   0.00000  Uiso   1.00
C68    C     0.62177   0.44851   0.87380   0.00000  Uiso   1.00
C69    C     0.57504   0.47896   0.80358   0.00000  Uiso   1.00
H70    H     0.52522   0.16752   0.81367   0.00000  Uiso   1.00
H71    H     0.43177   0.11596   0.93922   0.00000  Uiso   1.00
H72    H     0.65286   0.07907   0.76843   0.00000  Uiso   1.00
H73    H     0.47665   0.29192   0.71782   0.00000  Uiso   1.00
H74    H     0.35096   0.08334   0.10289   0.00000  Uiso   1.00
H75    H     0.81712   0.00558   0.74276   0.00000  Uiso   1.00
H76    H     0.44556   0.45441   0.63601   0.00000  Uiso   1.00
H77    H     0.70069   0.35680   0.00226   0.00000  Uiso   1.00
H78    H     0.61686   0.31563   0.13816   0.00000  Uiso   1.00
H79    H     0.83795   0.27874   0.96738   0.00000  Uiso   1.00
H80    H     0.66174   0.49159   0.91676   0.00000  Uiso   1.00
H81    H     0.50119   0.24540   0.26436   0.00000  Uiso   1.00
H82    H     0.96735   0.16764   0.90422   0.00000  Uiso   1.00
H83    H     0.59578   0.61647   0.79749   0.00000  Uiso   1.00
O84    O     0.36778   0.13385   0.26962   0.00000  Uiso   1.00
O85    O     0.97937   0.03184   0.79713   0.00000  Uiso   1.00
O86    O     0.49188   0.62070   0.65709   0.00000  Uiso   1.00
N87    N     0.39781   0.12714   0.12224   0.00000  Uiso   1.00
N88    N     0.83364   0.05443   0.78554   0.00000  Uiso   1.00
N89    N     0.48628   0.47405   0.68574   0.00000  Uiso   1.00
N90    N     0.47864   0.21435   0.20912   0.00000  Uiso   1.00
N91    N     0.91448   0.14163   0.87243   0.00000  Uiso   1.00
N92    N     0.56711   0.56126   0.77262   0.00000  Uiso   1.00
C93    C     0.83640   0.49002   0.17866   0.00000  Uiso   1.00
C94    C     0.93016   0.46853   0.18305   0.00000  Uiso   1.00
C95    C     0.96594   0.40353   0.13502   0.00000  Uiso   1.00
C96    C     0.05295   0.39425   0.14839   0.00000  Uiso   1.00
C97    C     0.19105   0.35273   0.14615   0.00000  Uiso   1.00
C98    C     0.83506   0.58486   0.15620   0.00000  Uiso   1.00
C99    C     0.79086   0.61767   0.08561   0.00000  Uiso   1.00
C100   C     0.79781   0.70632   0.07639   0.00000  Uiso   1.00
C101   C     0.78821   0.84541   0.03251   0.00000  Uiso   1.00
C102   C     0.80628   0.48458   0.27154   0.00000  Uiso   1.00
C103   C     0.73786   0.43308   0.29792   0.00000  Uiso   1.00
C104   C     0.72056   0.43732   0.38581   0.00000  Uiso   1.00
C105   C     0.66627   0.42070   0.52100   0.00000  Uiso   1.00
C106   C     0.92733   0.58912   0.28782   0.00000  Uiso   1.00
C107   C     0.97955   0.52236   0.24234   0.00000  Uiso   1.00
C108   C     0.06654   0.51317   0.25579   0.00000  Uiso   1.00
C109   C     0.10243   0.44817   0.20779   0.00000  Uiso   1.00
C110   C     0.88445   0.63869   0.21549   0.00000  Uiso   1.00
C111   C     0.89146   0.72731   0.20638   0.00000  Uiso   1.00
C112   C     0.84729   0.76025   0.13579   0.00000  Uiso   1.00
C113   C     0.85567   0.53840   0.33083   0.00000  Uiso   1.00
C114   C     0.83847   0.54273   0.41869   0.00000  Uiso   1.00
C115   C     0.77004   0.49125   0.44521   0.00000  Uiso   1.00
H116   H     0.79794   0.44811   0.13250   0.00000  Uiso   1.00
H117   H     0.92769   0.36189   0.08913   0.00000  Uiso   1.00
H118   H     0.75264   0.57600   0.03974   0.00000  Uiso   1.00
H119   H     0.69965   0.39144   0.25202   0.00000  Uiso   1.00
H120   H     0.09333   0.29006   0.06718   0.00000  Uiso   1.00
H121   H     0.72420   0.74151   0.96305   0.00000  Uiso   1.00
H122   H     0.61246   0.35234   0.41068   0.00000  Uiso   1.00
H123   H     0.96578   0.63103   0.33398   0.00000  Uiso   1.00
H124   H     0.10475   0.55484   0.30167   0.00000  Uiso   1.00
H125   H     0.92969   0.76895   0.25227   0.00000  Uiso   1.00
H126   H     0.87670   0.58439   0.46456   0.00000  Uiso   1.00
H127   H     0.23704   0.44667   0.23968   0.00000  Uiso   1.00
H128   H     0.86789   0.89812   0.13555   0.00000  Uiso   1.00
H129   H     0.75616   0.50894   0.58318   0.00000  Uiso   1.00
O130   O     0.25358   0.31496   0.12852   0.00000  Uiso   1.00
O131   O     0.76927   0.90725   0.99191   0.00000  Uiso   1.00
O132   O     0.62268   0.39666   0.57920   0.00000  Uiso   1.00
N133   N     0.10808   0.33736   0.11222   0.00000  Uiso   1.00
N134   N     0.76297   0.75944   0.01486   0.00000  Uiso   1.00
N135   N     0.65849   0.39561   0.43336   0.00000  Uiso   1.00
N136   N     0.18540   0.42163   0.20505   0.00000  Uiso   1.00
N137   N     0.84029   0.84371   0.10768   0.00000  Uiso   1.00
N138   N     0.73582   0.47988   0.52618   0.00000  Uiso   1.00
C139   C     0.79110   0.09307   0.43221   0.00000  Uiso   1.00
C140   C     0.78971   0.99798   0.45417   0.00000  Uiso   1.00
C141   C     0.83502   0.96321   0.52290   0.00000  Uiso   1.00
C142   C     0.82514   0.87469   0.53196   0.00000  Uiso   1.00
C143   C     0.83112   0.73492   0.57480   0.00000  Uiso   1.00
C144   C     0.81791   0.09760   0.33810   0.00000  Uiso   1.00
C145   C     0.88694   0.14660   0.30926   0.00000  Uiso   1.00
C146   C     0.90080   0.14194   0.22060   0.00000  Uiso   1.00
C147   C     0.95052   0.15687   0.08325   0.00000  Uiso   1.00
C148   C     0.69845   0.11825   0.43160   0.00000  Uiso   1.00
C149   C     0.66702   0.18464   0.48135   0.00000  Uiso   1.00
C150   C     0.58030   0.19738   0.47140   0.00000  Uiso   1.00
C151   C     0.44454   0.24439   0.47921   0.00000  Uiso   1.00
C152   C     0.69297   0.99768   0.32606   0.00000  Uiso   1.00
C153   C     0.73641   0.94617   0.39651   0.00000  Uiso   1.00
C154   C     0.72645   0.85768   0.40546   0.00000  Uiso   1.00
C155   C     0.77175   0.82279   0.47420   0.00000  Uiso   1.00
C156   C     0.76462   0.04579   0.28045   0.00000  Uiso   1.00
C157   C     0.77837   0.04106   0.19181   0.00000  Uiso   1.00
C158   C     0.84740   0.09003   0.16284   0.00000  Uiso   1.00
C159   C     0.64514   0.06644   0.37395   0.00000  Uiso   1.00
C160   C     0.55845   0.07910   0.36391   0.00000  Uiso   1.00
C161   C     0.52690   0.14548   0.41364   0.00000  Uiso   1.00
H162   H     0.83260   0.13341   0.47709   0.00000  Uiso   1.00
H163   H     0.87627   0.00333   0.56751   0.00000  Uiso   1.00
H164   H     0.92817   0.18669   0.35389   0.00000  Uiso   1.00
H165   H     0.70829   0.22472   0.52596   0.00000  Uiso   1.00
H166   H     0.90121   0.83627   0.64230   0.00000  Uiso   1.00
H167   H     0.01062   0.22291   0.19188   0.00000  Uiso   1.00
H168   H     0.54696   0.30311   0.55472   0.00000  Uiso   1.00
H169   H     0.65147   0.95734   0.28116   0.00000  Uiso   1.00
H170   H     0.68520   0.81760   0.36083   0.00000  Uiso   1.00
H171   H     0.73710   0.00096   0.14721   0.00000  Uiso   1.00
H172   H     0.51723   0.03899   0.31929   0.00000  Uiso   1.00
H173   H     0.74613   0.68552   0.47456   0.00000  Uiso   1.00
H174   H     0.85554   0.07217   0.02413   0.00000  Uiso   1.00
H175   H     0.39189   0.15236   0.38698   0.00000  Uiso   1.00
O176   O     0.84915   0.67214   0.61435   0.00000  Uiso   1.00
O177   O     0.99268   0.17942   0.02341   0.00000  Uiso   1.00
O178   O     0.38438   0.28463   0.49946   0.00000  Uiso   1.00
N179   N     0.86007   0.81997   0.59190   0.00000  Uiso   1.00
N180   N     0.96237   0.18145   0.17078   0.00000  Uiso   1.00
N181   N     0.52890   0.25644   0.50999   0.00000  Uiso   1.00
N182   N     0.77662   0.73885   0.50164   0.00000  Uiso   1.00
N183   N     0.87893   0.10033   0.08052   0.00000  Uiso   1.00
N184   N     0.44545   0.17532   0.41973   0.00000  Uiso   1.00
C185   C     0.43458   0.78912   0.14312   0.00000  Uiso   1.00
C186   C     0.46103   0.79087   0.04876   0.00000  Uiso   1.00
C187   C     0.52828   0.84094   0.01781   0.00000  Uiso   1.00
C188   C     0.54210   0.83332   0.92930   0.00000  Uiso   1.00
C189   C     0.59099   0.84456   0.79121   0.00000  Uiso   1.00
C190   C     0.34091   0.81092   0.14154   0.00000  Uiso   1.00
C191   C     0.30717   0.87784   0.18862   0.00000  Uiso   1.00
C192   C     0.21987   0.88709   0.17822   0.00000  Uiso   1.00
C193   C     0.08226   0.92942   0.18423   0.00000  Uiso   1.00
C194   C     0.43665   0.69528   0.16904   0.00000  Uiso   1.00
C195   C     0.48340   0.66495   0.23925   0.00000  Uiso   1.00
C196   C     0.47669   0.57684   0.25201   0.00000  Uiso   1.00
C197   C     0.48775   0.43961   0.30072   0.00000  Uiso   1.00
C198   C     0.33951   0.68656   0.04094   0.00000  Uiso   1.00
C199   C     0.40939   0.73517   0.99326   0.00000  Uiso   1.00
C200   C     0.42311   0.72748   0.90477   0.00000  Uiso   1.00
C201   C     0.49037   0.77752   0.87370   0.00000  Uiso   1.00
C202   C     0.28927   0.75523   0.08605   0.00000  Uiso   1.00
C203   C     0.20199   0.76438   0.07558   0.00000  Uiso   1.00
C204   C     0.16813   0.83129   0.12262   0.00000  Uiso   1.00
C205   C     0.38502   0.63957   0.11354   0.00000  Uiso   1.00
C206   C     0.37823   0.55149   0.12620   0.00000  Uiso   1.00
C207   C     0.42496   0.52104   0.19642   0.00000  Uiso   1.00
H208   H     0.47478   0.83248   0.18633   0.00000  Uiso   1.00
H209   H     0.56822   0.88404   0.06078   0.00000  Uiso   1.00
H210   H     0.34714   0.92093   0.23157   0.00000  Uiso   1.00
H211   H     0.52335   0.70808   0.28218   0.00000  Uiso   1.00
H212   H     0.64904   0.91666   0.89711   0.00000  Uiso   1.00
H213   H     0.18288   0.99442   0.25724   0.00000  Uiso   1.00
H214   H     0.55444   0.54559   0.36399   0.00000  Uiso   1.00
H215   H     0.29931   0.64320   0.99774   0.00000  Uiso   1.00
H216   H     0.38314   0.68437   0.86184   0.00000  Uiso   1.00
H217   H     0.16205   0.72126   0.03262   0.00000  Uiso   1.00
H218   H     0.33826   0.50841   0.08324   0.00000  Uiso   1.00
H219   H     0.49881   0.75460   0.73564   0.00000  Uiso   1.00
H220   H     0.03265   0.83236   0.09578   0.00000  Uiso   1.00
H221   H     0.40422   0.38353   0.20251   0.00000  Uiso   1.00
O222   O     0.63222   0.86615   0.73038   0.00000  Uiso   1.00
O223   O     0.02063   0.96816   0.20287   0.00000  Uiso   1.00
O224   O     0.50812   0.37930   0.34291   0.00000  Uiso   1.00
N225   N     0.60219   0.87286   0.87776   0.00000  Uiso   1.00
N226   N     0.16636   0.94557   0.21446   0.00000  Uiso   1.00
N227   N     0.51372   0.52595   0.31426   0.00000  Uiso   1.00
N228   N     0.52136   0.78565   0.79088   0.00000  Uiso   1.00
N229   N     0.08552   0.85837   0.12757   0.00000  Uiso   1.00
N230   N     0.43289   0.43874   0.22738   0.00000  Uiso   1.00
C231   C     0.16360   0.50998   0.82134   0.00000  Uiso   1.00
C232   C     0.06984   0.53147   0.81695   0.00000  Uiso   1.00
C233   C     0.03406   0.59647   0.86498   0.00000  Uiso   1.00
C234   C     0.94705   0.60575   0.85161   0.00000  Uiso   1.00
C235   C     0.80895   0.64727   0.85385   0.00000  Uiso   1.00
C236   C     0.16494   0.41514   0.84380   0.00000  Uiso   1.00
C237   C     0.20914   0.38233   0.91439   0.00000  Uiso   1.00
C238   C     0.20219   0.29368   0.92361   0.00000  Uiso   1.00
C239   C     0.21179   0.15459   0.96749   0.00000  Uiso   1.00
C240   C     0.19372   0.51542   0.72846   0.00000  Uiso   1.00
C241   C     0.26214   0.56692   0.70208   0.00000  Uiso   1.00
C242   C     0.27944   0.56268   0.61419   0.00000  Uiso   1.00
C243   C     0.33373   0.57930   0.47900   0.00000  Uiso   1.00
C244   C     0.07267   0.41088   0.71218   0.00000  Uiso   1.00
C245   C     0.02045   0.47764   0.75766   0.00000  Uiso   1.00
C246   C     0.93346   0.48683   0.74421   0.00000  Uiso   1.00
C247   C     0.89756   0.55183   0.79221   0.00000  Uiso   1.00
C248   C     0.11555   0.36131   0.78451   0.00000  Uiso   1.00
C249   C     0.10854   0.27269   0.79362   0.00000  Uiso   1.00
C250   C     0.15271   0.23975   0.86421   0.00000  Uiso   1.00
C251   C     0.14433   0.46160   0.66917   0.00000  Uiso   1.00
C252   C     0.16153   0.45727   0.58131   0.00000  Uiso   1.00
C253   C     0.22996   0.50875   0.55479   0.00000  Uiso   1.00
H254   H     0.20206   0.55189   0.86750   0.00000  Uiso   1.00
H255   H     0.07231   0.63811   0.91087   0.00000  Uiso   1.00
H256   H     0.24736   0.42400   0.96026   0.00000  Uiso   1.00
H257   H     0.30035   0.60856   0.74798   0.00000  Uiso   1.00
H258   H     0.90667   0.70994   0.93282   0.00000  Uiso   1.00
H259   H     0.27580   0.25849   0.03695   0.00000  Uiso   1.00
H260   H     0.38754   0.64766   0.58932   0.00000  Uiso   1.00
H261   H     0.03422   0.36897   0.66602   0.00000  Uiso   1.00
H262   H     0.89525   0.44516   0.69833   0.00000  Uiso   1.00
H263   H     0.07031   0.23105   0.74773   0.00000  Uiso   1.00
H264   H     0.12330   0.41561   0.53544   0.00000  Uiso   1.00
H265   H     0.76296   0.55333   0.76032   0.00000  Uiso   1.00
H266   H     0.13211   0.10188   0.86445   0.00000  Uiso   1.00
H267   H     0.24384   0.49106   0.41682   0.00000  Uiso   1.00
O268   O     0.74642   0.68504   0.87148   0.00000  Uiso   1.00
O269   O     0.23073   0.09275   0.00809   0.00000  Uiso   1.00
O270   O     0.37732   0.60334   0.42080   0.00000  Uiso   1.00
N271   N     0.89192   0.66264   0.88778   0.00000  Uiso   1.00
N272   N     0.23703   0.24056   0.98514   0.00000  Uiso   1.00
N273   N     0.34151   0.60439   0.56664   0.00000  Uiso   1.00
N274   N     0.81459   0.57837   0.79495   0.00000  Uiso   1.00
N275   N     0.15971   0.15629   0.89232   0.00000  Uiso   1.00
N276   N     0.26418   0.52012   0.47382   0.00000  Uiso   1.00
