data_job_06999
_audit_creation_date              2018-12-19
_audit_creation_method            'Materials Studio'
_symmetry_space_group_name_H-M    'P1'
_symmetry_Int_Tables_number       1
_symmetry_cell_setting            triclinic
loop_
_symmetry_equiv_pos_as_xyz
  x,y,z
_cell_length_a                    20.8441
_cell_length_b                    22.0721
_cell_length_c                    24.0663
_cell_angle_alpha                 64.6433
_cell_angle_beta                  112.7840
_cell_angle_gamma                 85.6292
loop_
_atom_site_label
_atom_site_type_symbol
_atom_site_fract_x
_atom_site_fract_y
_atom_site_fract_z
_atom_site_U_iso_or_equiv
_atom_site_adp_type
_atom_site_occupancy
C1     C     0.04035   0.18058   0.27386   0.00000  Uiso   1.00
C2     C     0.02888   0.19253   0.32766   0.00000  Uiso   1.00
C3     C     0.01017   0.25710   0.32253   0.00000  Uiso   1.00
C4     C     0.00223   0.25693   0.37727   0.00000  Uiso   1.00
C5     C     0.98288   0.28499   0.45204   0.00000  Uiso   1.00
C6     C     0.11682   0.13079   0.31223   0.00000  Uiso   1.00
C7     C     0.17204   0.14344   0.29412   0.00000  Uiso   1.00
C8     C     0.23813   0.09129   0.33586   0.00000  Uiso   1.00
C9     C     0.35529   0.02347   0.38663   0.00000  Uiso   1.00
C10    C     0.98849   0.13955   0.25456   0.00000  Uiso   1.00
C11    C     0.93581   0.15956   0.18797   0.00000  Uiso   1.00
C12    C     0.89386   0.11478   0.18116   0.00000  Uiso   1.00
C13    C     0.81176   0.06057   0.14241   0.00000  Uiso   1.00
C14    C     0.05952   0.06547   0.38018   0.00000  Uiso   1.00
C15    C     0.03930   0.13000   0.38541   0.00000  Uiso   1.00
C16    C     0.03138   0.12974   0.44017   0.00000  Uiso   1.00
C17    C     0.01266   0.19430   0.43513   0.00000  Uiso   1.00
C18    C     0.12724   0.06826   0.36997   0.00000  Uiso   1.00
C19    C     0.19326   0.01608   0.41175   0.00000  Uiso   1.00
C20    C     0.24857   0.02865   0.39371   0.00000  Uiso   1.00
C21    C     0.99890   0.07703   0.31231   0.00000  Uiso   1.00
C22    C     0.95702   0.03220   0.30561   0.00000  Uiso   1.00
C23    C     0.90429   0.05214   0.23902   0.00000  Uiso   1.00
H24    H     0.03224   0.22926   0.22890   0.00000  Uiso   1.00
H25    H     0.00212   0.30547   0.27783   0.00000  Uiso   1.00
H26    H     0.16397   0.19183   0.24942   0.00000  Uiso   1.00
H27    H     0.92777   0.20795   0.14329   0.00000  Uiso   1.00
H28    H     0.97334   0.36240   0.35757   0.00000  Uiso   1.00
H29    H     0.31460   0.12275   0.29764   0.00000  Uiso   1.00
H30    H     0.81653   0.15675   0.07384   0.00000  Uiso   1.00
H31    H     0.06763   0.01679   0.42515   0.00000  Uiso   1.00
H32    H     0.03944   0.08135   0.48485   0.00000  Uiso   1.00
H33    H     0.20129   0.96770   0.45644   0.00000  Uiso   1.00
H34    H     0.96510   0.98382   0.35031   0.00000  Uiso   1.00
H35    H     0.00364   0.18049   0.52560   0.00000  Uiso   1.00
H36    H     0.34489   0.94084   0.46566   0.00000  Uiso   1.00
H37    H     0.84683   0.97484   0.24187   0.00000  Uiso   1.00
O38    O     0.96934   0.31774   0.47733   0.00000  Uiso   1.00
O39    O     0.41704   0.00334   0.39869   0.00000  Uiso   1.00
O40    O     0.76359   0.04794   0.10508   0.00000  Uiso   1.00
N41    N     0.98433   0.31073   0.38891   0.00000  Uiso   1.00
N42    N     0.30338   0.08668   0.33289   0.00000  Uiso   1.00
N43    N     0.83774   0.11845   0.12366   0.00000  Uiso   1.00
N44    N     0.00063   0.21284   0.47933   0.00000  Uiso   1.00
N45    N     0.31968   0.98880   0.42330   0.00000  Uiso   1.00
N46    N     0.85405   0.02057   0.21407   0.00000  Uiso   1.00
C47    C     0.51371   0.21144   0.75182   0.00000  Uiso   1.00
C48    C     0.45940   0.19904   0.78054   0.00000  Uiso   1.00
C49    C     0.39162   0.19133   0.74844   0.00000  Uiso   1.00
C50    C     0.35003   0.18039   0.78316   0.00000  Uiso   1.00
C51    C     0.26183   0.16164   0.81792   0.00000  Uiso   1.00
C52    C     0.52974   0.27873   0.74884   0.00000  Uiso   1.00
C53    C     0.52111   0.33801   0.69009   0.00000  Uiso   1.00
C54    C     0.53874   0.39415   0.69813   0.00000  Uiso   1.00
C55    C     0.55979   0.49910   0.68369   0.00000  Uiso   1.00
C56    C     0.58398   0.15265   0.80745   0.00000  Uiso   1.00
C57    C     0.62098   0.10594   0.79798   0.00000  Uiso   1.00
C58    C     0.68430   0.05594   0.85535   0.00000  Uiso   1.00
C59    C     0.78957   0.96514   0.93191   0.00000  Uiso   1.00
C60    C     0.56039   0.20574   0.87056   0.00000  Uiso   1.00
C61    C     0.48476   0.19594   0.84503   0.00000  Uiso   1.00
C62    C     0.44327   0.18501   0.87981   0.00000  Uiso   1.00
C63    C     0.37543   0.17728   0.84777   0.00000  Uiso   1.00
C64    C     0.55509   0.27563   0.81333   0.00000  Uiso   1.00
C65    C     0.57275   0.33170   0.82146   0.00000  Uiso   1.00
C66    C     0.56415   0.39105   0.76273   0.00000  Uiso   1.00
C67    C     0.60934   0.14955   0.87194   0.00000  Uiso   1.00
C68    C     0.67262   0.09962   0.92934   0.00000  Uiso   1.00
C69    C     0.70970   0.05284   0.91996   0.00000  Uiso   1.00
H70    H     0.49397   0.21386   0.70161   0.00000  Uiso   1.00
H71    H     0.37201   0.19374   0.69853   0.00000  Uiso   1.00
H72    H     0.50149   0.34039   0.64019   0.00000  Uiso   1.00
H73    H     0.60134   0.10835   0.74806   0.00000  Uiso   1.00
H74    H     0.24796   0.17008   0.72354   0.00000  Uiso   1.00
H75    H     0.52100   0.47931   0.60054   0.00000  Uiso   1.00
H76    H     0.73156   0.99001   0.82800   0.00000  Uiso   1.00
H77    H     0.58014   0.20332   0.92077   0.00000  Uiso   1.00
H78    H     0.46290   0.18262   0.92971   0.00000  Uiso   1.00
H79    H     0.59238   0.32928   0.87137   0.00000  Uiso   1.00
H80    H     0.69223   0.09724   0.97924   0.00000  Uiso   1.00
H81    H     0.32173   0.16107   0.91118   0.00000  Uiso   1.00
H82    H     0.59477   0.47029   0.78817   0.00000  Uiso   1.00
H83    H     0.80533   0.98099   0.01564   0.00000  Uiso   1.00
O84    O     0.20616   0.15217   0.81927   0.00000  Uiso   1.00
O85    O     0.56439   0.55785   0.65790   0.00000  Uiso   1.00
O86    O     0.84063   0.91591   0.95633   0.00000  Uiso   1.00
N87    N     0.28142   0.17079   0.76648   0.00000  Uiso   1.00
N88    N     0.53668   0.45990   0.65147   0.00000  Uiso   1.00
N89    N     0.73355   0.00246   0.86413   0.00000  Uiso   1.00
N90    N     0.32112   0.16593   0.86744   0.00000  Uiso   1.00
N91    N     0.57638   0.45505   0.75244   0.00000  Uiso   1.00
N92    N     0.77324   0.99761   0.96510   0.00000  Uiso   1.00
C93    C     0.00652   0.65193   0.35172   0.00000  Uiso   1.00
C94    C     0.94693   0.61546   0.34481   0.00000  Uiso   1.00
C95    C     0.95780   0.54358   0.37755   0.00000  Uiso   1.00
C96    C     0.89620   0.52061   0.36450   0.00000  Uiso   1.00
C97    C     0.81431   0.45679   0.36047   0.00000  Uiso   1.00
C98    C     0.99464   0.69871   0.27802   0.00000  Uiso   1.00
C99    C     0.04563   0.69681   0.25461   0.00000  Uiso   1.00
C100   C     0.02419   0.74392   0.18533   0.00000  Uiso   1.00
C101   C     0.01638   0.80937   0.07762   0.00000  Uiso   1.00
C102   C     0.98978   0.70127   0.37654   0.00000  Uiso   1.00
C103   C     0.03669   0.70154   0.43596   0.00000  Uiso   1.00
C104   C     0.01117   0.75082   0.44962   0.00000  Uiso   1.00
C105   C     0.99583   0.82025   0.49488   0.00000  Uiso   1.00
C106   C     0.87779   0.73897   0.27033   0.00000  Uiso   1.00
C107   C     0.87701   0.66274   0.30060   0.00000  Uiso   1.00
C108   C     0.81538   0.63987   0.28750   0.00000  Uiso   1.00
C109   C     0.82616   0.56797   0.32022   0.00000  Uiso   1.00
C110   C     0.92472   0.74598   0.23381   0.00000  Uiso   1.00
C111   C     0.90320   0.79311   0.16456   0.00000  Uiso   1.00
C112   C     0.95414   0.79128   0.14104   0.00000  Uiso   1.00
C113   C     0.91986   0.74854   0.33234   0.00000  Uiso   1.00
C114   C     0.89427   0.79784   0.34591   0.00000  Uiso   1.00
C115   C     0.94113   0.79818   0.40533   0.00000  Uiso   1.00
H116   H     0.06096   0.61513   0.38613   0.00000  Uiso   1.00
H117   H     0.01192   0.50701   0.41175   0.00000  Uiso   1.00
H118   H     0.09973   0.66022   0.28883   0.00000  Uiso   1.00
H119   H     0.09080   0.66495   0.47015   0.00000  Uiso   1.00
H120   H     0.92672   0.40799   0.42064   0.00000  Uiso   1.00
H121   H     0.11188   0.73107   0.16146   0.00000  Uiso   1.00
H122   H     0.09304   0.74103   0.54381   0.00000  Uiso   1.00
H123   H     0.82336   0.77578   0.23591   0.00000  Uiso   1.00
H124   H     0.76128   0.67647   0.25329   0.00000  Uiso   1.00
H125   H     0.84909   0.82969   0.13037   0.00000  Uiso   1.00
H126   H     0.84016   0.83441   0.31169   0.00000  Uiso   1.00
H127   H     0.72329   0.54553   0.29202   0.00000  Uiso   1.00
H128   H     0.90846   0.86861   0.03284   0.00000  Uiso   1.00
H129   H     0.88961   0.87858   0.41520   0.00000  Uiso   1.00
O130   O     0.78845   0.40853   0.37046   0.00000  Uiso   1.00
O131   O     0.03139   0.83241   0.03043   0.00000  Uiso   1.00
O132   O     0.00667   0.84548   0.53206   0.00000  Uiso   1.00
N133   N     0.88736   0.45399   0.38800   0.00000  Uiso   1.00
N134   N     0.06048   0.75604   0.14567   0.00000  Uiso   1.00
N135   N     0.04287   0.76537   0.50313   0.00000  Uiso   1.00
N136   N     0.77789   0.52800   0.31879   0.00000  Uiso   1.00
N137   N     0.95101   0.83005   0.07647   0.00000  Uiso   1.00
N138   N     0.93341   0.83938   0.43393   0.00000  Uiso   1.00
C139   C     0.54876   0.72962   0.27215   0.00000  Uiso   1.00
C140   C     0.54189   0.75515   0.31986   0.00000  Uiso   1.00
C141   C     0.59894   0.75887   0.37157   0.00000  Uiso   1.00
C142   C     0.58138   0.78370   0.40955   0.00000  Uiso   1.00
C143   C     0.58167   0.82027   0.48563   0.00000  Uiso   1.00
C144   C     0.49974   0.78923   0.19815   0.00000  Uiso   1.00
C145   C     0.52135   0.82161   0.14753   0.00000  Uiso   1.00
C146   C     0.46830   0.87513   0.08306   0.00000  Uiso   1.00
C147   C     0.40314   0.96459   0.97018   0.00000  Uiso   1.00
C148   C     0.51375   0.67016   0.28164   0.00000  Uiso   1.00
C149   C     0.54713   0.60243   0.30120   0.00000  Uiso   1.00
C150   C     0.50586   0.55570   0.30700   0.00000  Uiso   1.00
C151   C     0.46245   0.46029   0.32375   0.00000  Uiso   1.00
C152   C     0.41611   0.76709   0.24765   0.00000  Uiso   1.00
C153   C     0.46984   0.77550   0.30655   0.00000  Uiso   1.00
C154   C     0.45218   0.80033   0.34447   0.00000  Uiso   1.00
C155   C     0.50920   0.80409   0.39622   0.00000  Uiso   1.00
C156   C     0.42769   0.80959   0.18485   0.00000  Uiso   1.00
C157   C     0.37459   0.86307   0.12043   0.00000  Uiso   1.00
C158   C     0.39612   0.89552   0.06973   0.00000  Uiso   1.00
C159   C     0.44170   0.69052   0.26834   0.00000  Uiso   1.00
C160   C     0.40037   0.64389   0.27410   0.00000  Uiso   1.00
C161   C     0.43369   0.57609   0.29367   0.00000  Uiso   1.00
H162   H     0.60485   0.71378   0.28250   0.00000  Uiso   1.00
H163   H     0.65469   0.74312   0.38184   0.00000  Uiso   1.00
H164   H     0.57711   0.80584   0.15784   0.00000  Uiso   1.00
H165   H     0.60288   0.58670   0.31149   0.00000  Uiso   1.00
H166   H     0.67817   0.78465   0.48610   0.00000  Uiso   1.00
H167   H     0.51458   0.91689   0.01378   0.00000  Uiso   1.00
H168   H     0.56893   0.45478   0.33777   0.00000  Uiso   1.00
H169   H     0.36002   0.78294   0.23729   0.00000  Uiso   1.00
H170   H     0.39642   0.81608   0.33416   0.00000  Uiso   1.00
H171   H     0.31884   0.87880   0.11016   0.00000  Uiso   1.00
H172   H     0.34462   0.65966   0.26380   0.00000  Uiso   1.00
H173   H     0.46856   0.84387   0.44739   0.00000  Uiso   1.00
H174   H     0.30497   0.97611   0.97507   0.00000  Uiso   1.00
H175   H     0.35932   0.51400   0.29906   0.00000  Uiso   1.00
O176   O     0.60173   0.83483   0.53126   0.00000  Uiso   1.00
O177   O     0.38711   0.00831   0.91160   0.00000  Uiso   1.00
O178   O     0.45841   0.40204   0.33667   0.00000  Uiso   1.00
N179   N     0.62385   0.79403   0.46370   0.00000  Uiso   1.00
N180   N     0.47090   0.91767   0.02212   0.00000  Uiso   1.00
N181   N     0.52171   0.48564   0.32500   0.00000  Uiso   1.00
N182   N     0.51105   0.82589   0.44288   0.00000  Uiso   1.00
N183   N     0.35811   0.94953   0.00129   0.00000  Uiso   1.00
N184   N     0.40891   0.51750   0.30418   0.00000  Uiso   1.00
C185   C     0.54134   0.14620   0.32280   0.00000  Uiso   1.00
C186   C     0.54652   0.10825   0.39498   0.00000  Uiso   1.00
C187   C     0.55905   0.03666   0.43431   0.00000  Uiso   1.00
C188   C     0.56189   0.01215   0.49908   0.00000  Uiso   1.00
C189   C     0.57139   0.94630   0.60744   0.00000  Uiso   1.00
C190   C     0.59812   0.18598   0.32829   0.00000  Uiso   1.00
C191   C     0.65402   0.17974   0.31154   0.00000  Uiso   1.00
C192   C     0.70029   0.22067   0.32016   0.00000  Uiso   1.00
C193   C     0.78985   0.27553   0.32494   0.00000  Uiso   1.00
C194   C     0.46759   0.20179   0.27604   0.00000  Uiso   1.00
C195   C     0.41374   0.20885   0.21534   0.00000  Uiso   1.00
C196   C     0.35012   0.26311   0.17997   0.00000  Uiso   1.00
C197   C     0.23703   0.34251   0.10362   0.00000  Uiso   1.00
C198   C     0.52411   0.22999   0.36789   0.00000  Uiso   1.00
C199   C     0.53716   0.15377   0.41947   0.00000  Uiso   1.00
C200   C     0.53998   0.12936   0.48420   0.00000  Uiso   1.00
C201   C     0.55251   0.05774   0.52362   0.00000  Uiso   1.00
C202   C     0.58876   0.23149   0.35278   0.00000  Uiso   1.00
C203   C     0.63495   0.27245   0.36143   0.00000  Uiso   1.00
C204   C     0.69091   0.26627   0.34470   0.00000  Uiso   1.00
C205   C     0.45822   0.24730   0.30053   0.00000  Uiso   1.00
C206   C     0.39467   0.30156   0.26524   0.00000  Uiso   1.00
C207   C     0.34074   0.30870   0.20451   0.00000  Uiso   1.00
H208   H     0.54864   0.11077   0.30373   0.00000  Uiso   1.00
H209   H     0.56630   0.00145   0.41533   0.00000  Uiso   1.00
H210   H     0.66125   0.14452   0.29258   0.00000  Uiso   1.00
H211   H     0.42101   0.17362   0.19640   0.00000  Uiso   1.00
H212   H     0.58178   0.90032   0.54988   0.00000  Uiso   1.00
H213   H     0.78197   0.20200   0.29102   0.00000  Uiso   1.00
H214   H     0.27538   0.26338   0.08822   0.00000  Uiso   1.00
H215   H     0.51682   0.26543   0.38697   0.00000  Uiso   1.00
H216   H     0.53273   0.16460   0.50314   0.00000  Uiso   1.00
H217   H     0.62768   0.30766   0.38038   0.00000  Uiso   1.00
H218   H     0.38745   0.33677   0.28421   0.00000  Uiso   1.00
H219   H     0.55454   0.03273   0.62115   0.00000  Uiso   1.00
H220   H     0.75472   0.33442   0.36229   0.00000  Uiso   1.00
H221   H     0.24814   0.39580   0.15949   0.00000  Uiso   1.00
O222   O     0.57923   0.89740   0.66045   0.00000  Uiso   1.00
O223   O     0.84185   0.29321   0.32082   0.00000  Uiso   1.00
O224   O     0.17723   0.37373   0.05475   0.00000  Uiso   1.00
N225   N     0.57317   0.94532   0.55071   0.00000  Uiso   1.00
N226   N     0.76034   0.22737   0.30870   0.00000  Uiso   1.00
N227   N     0.28673   0.28477   0.11908   0.00000  Uiso   1.00
N228   N     0.55851   0.01657   0.58906   0.00000  Uiso   1.00
N229   N     0.74568   0.29862   0.34705   0.00000  Uiso   1.00
N230   N     0.27207   0.35602   0.15743   0.00000  Uiso   1.00
C231   C     0.97329   0.67611   0.84236   0.00000  Uiso   1.00
C232   C     0.93184   0.62156   0.85226   0.00000  Uiso   1.00
C233   C     0.85689   0.63568   0.82522   0.00000  Uiso   1.00
C234   C     0.82951   0.57851   0.84016   0.00000  Uiso   1.00
C235   C     0.75815   0.50426   0.84933   0.00000  Uiso   1.00
C236   C     0.01884   0.66075   0.81077   0.00000  Uiso   1.00
C237   C     0.01705   0.70783   0.74886   0.00000  Uiso   1.00
C238   C     0.06291   0.68365   0.72889   0.00000  Uiso   1.00
C239   C     0.12666   0.67027   0.67367   0.00000  Uiso   1.00
C240   C     0.02720   0.65923   0.91520   0.00000  Uiso   1.00
C241   C     0.03245   0.70504   0.94108   0.00000  Uiso   1.00
C242   C     0.08537   0.67958   0.00903   0.00000  Uiso   1.00
C243   C     0.16210   0.66385   0.11595   0.00000  Uiso   1.00
C244   C     0.05794   0.54945   0.91699   0.00000  Uiso   1.00
C245   C     0.97782   0.55276   0.89279   0.00000  Uiso   1.00
C246   C     0.95055   0.49555   0.90778   0.00000  Uiso   1.00
C247   C     0.87557   0.50959   0.88077   0.00000  Uiso   1.00
C248   C     0.06482   0.59196   0.85130   0.00000  Uiso   1.00
C249   C     0.11071   0.56770   0.83142   0.00000  Uiso   1.00
C250   C     0.10898   0.61473   0.76949   0.00000  Uiso   1.00
C251   C     0.07318   0.59043   0.95573   0.00000  Uiso   1.00
C252   C     0.12611   0.56491   0.02365   0.00000  Uiso   1.00
C253   C     0.13144   0.61067   0.04963   0.00000  Uiso   1.00
H254   H     0.93750   0.72967   0.81081   0.00000  Uiso   1.00
H255   H     0.82132   0.68893   0.79385   0.00000  Uiso   1.00
H256   H     0.98146   0.76106   0.71751   0.00000  Uiso   1.00
H257   H     0.99686   0.75827   0.90970   0.00000  Uiso   1.00
H258   H     0.71280   0.61342   0.79290   0.00000  Uiso   1.00
H259   H     0.05048   0.76553   0.63194   0.00000  Uiso   1.00
H260   H     0.08296   0.75965   0.03722   0.00000  Uiso   1.00
H261   H     0.09374   0.49589   0.94854   0.00000  Uiso   1.00
H262   H     0.98614   0.44232   0.93915   0.00000  Uiso   1.00
H263   H     0.14628   0.51446   0.86280   0.00000  Uiso   1.00
H264   H     0.16168   0.51167   0.05500   0.00000  Uiso   1.00
H265   H     0.84658   0.41326   0.91083   0.00000  Uiso   1.00
H266   H     0.18426   0.56538   0.74987   0.00000  Uiso   1.00
H267   H     0.21673   0.55949   0.15515   0.00000  Uiso   1.00
O268   O     0.70609   0.48232   0.84318   0.00000  Uiso   1.00
O269   O     0.14912   0.68189   0.63201   0.00000  Uiso   1.00
O270   O     0.19172   0.67416   0.16373   0.00000  Uiso   1.00
N271   N     0.75905   0.57366   0.82196   0.00000  Uiso   1.00
N272   N     0.07476   0.71588   0.67146   0.00000  Uiso   1.00
N273   N     0.10513   0.71038   0.05036   0.00000  Uiso   1.00
N274   N     0.83104   0.46596   0.88541   0.00000  Uiso   1.00
N275   N     0.14674   0.60818   0.73492   0.00000  Uiso   1.00
N276   N     0.17711   0.60268   0.11382   0.00000  Uiso   1.00
C277   C     0.85521   0.03034   0.67333   0.00000  Uiso   1.00
C278   C     0.85995   0.03161   0.61119   0.00000  Uiso   1.00
C279   C     0.85017   0.98046   0.59230   0.00000  Uiso   1.00
C280   C     0.85672   0.99134   0.53372   0.00000  Uiso   1.00
C281   C     0.86164   0.98422   0.44304   0.00000  Uiso   1.00
C282   C     0.79801   0.09800   0.64406   0.00000  Uiso   1.00
C283   C     0.73615   0.10266   0.65282   0.00000  Uiso   1.00
C284   C     0.69056   0.16941   0.62193   0.00000  Uiso   1.00
C285   C     0.59934   0.26536   0.58232   0.00000  Uiso   1.00
C286   C     0.92758   0.03697   0.71646   0.00000  Uiso   1.00
C287   C     0.97466   0.99033   0.78610   0.00000  Uiso   1.00
C288   C     0.03815   0.00571   0.81617   0.00000  Uiso   1.00
C289   C     0.14811   0.00690   0.88898   0.00000  Uiso   1.00
C290   C     0.88425   0.14060   0.60291   0.00000  Uiso   1.00
C291   C     0.87572   0.09151   0.57294   0.00000  Uiso   1.00
C292   C     0.88229   0.10246   0.51438   0.00000  Uiso   1.00
C293   C     0.87252   0.05133   0.49541   0.00000  Uiso   1.00
C294   C     0.81377   0.15789   0.60581   0.00000  Uiso   1.00
C295   C     0.76827   0.22465   0.57491   0.00000  Uiso   1.00
C296   C     0.70636   0.22941   0.58361   0.00000  Uiso   1.00
C297   C     0.94335   0.09686   0.67822   0.00000  Uiso   1.00
C298   C     0.00678   0.11232   0.70819   0.00000  Uiso   1.00
C299   C     0.05395   0.06571   0.77786   0.00000  Uiso   1.00
H300   H     0.84293   0.98371   0.70310   0.00000  Uiso   1.00
H301   H     0.83796   0.93413   0.62191   0.00000  Uiso   1.00
H302   H     0.72396   0.05630   0.68242   0.00000  Uiso   1.00
H303   H     0.96243   0.94399   0.81568   0.00000  Uiso   1.00
H304   H     0.83937   0.90557   0.51500   0.00000  Uiso   1.00
H305   H     0.59902   0.16319   0.64263   0.00000  Uiso   1.00
H306   H     0.10188   0.92635   0.92364   0.00000  Uiso   1.00
H307   H     0.89653   0.18723   0.57313   0.00000  Uiso   1.00
H308   H     0.89450   0.14881   0.48480   0.00000  Uiso   1.00
H309   H     0.78050   0.27098   0.54531   0.00000  Uiso   1.00
H310   H     0.01897   0.15867   0.67857   0.00000  Uiso   1.00
H311   H     0.88525   0.07982   0.40371   0.00000  Uiso   1.00
H312   H     0.64490   0.33743   0.53134   0.00000  Uiso   1.00
H313   H     0.14777   0.10060   0.81235   0.00000  Uiso   1.00
O314   O     0.85998   0.96376   0.40358   0.00000  Uiso   1.00
O315   O     0.54466   0.30174   0.57104   0.00000  Uiso   1.00
O316   O     0.20441   0.99101   0.93971   0.00000  Uiso   1.00
N317   N     0.85046   0.95185   0.50094   0.00000  Uiso   1.00
N318   N     0.62574   0.19270   0.62025   0.00000  Uiso   1.00
N319   N     0.09587   0.97129   0.88298   0.00000  Uiso   1.00
N320   N     0.87515   0.04561   0.44106   0.00000  Uiso   1.00
N321   N     0.65043   0.28646   0.56037   0.00000  Uiso   1.00
N322   N     0.12056   0.06505   0.82310   0.00000  Uiso   1.00
C323   C     0.16401   0.15067   0.08876   0.00000  Uiso   1.00
C324   C     0.24144   0.10324   0.12567   0.00000  Uiso   1.00
C325   C     0.29660   0.09106   0.18821   0.00000  Uiso   1.00
C326   C     0.36365   0.04592   0.21339   0.00000  Uiso   1.00
C327   C     0.48213   0.97708   0.27621   0.00000  Uiso   1.00
C328   C     0.11424   0.10495   0.07888   0.00000  Uiso   1.00
C329   C     0.06244   0.09422   0.10208   0.00000  Uiso   1.00
C330   C     0.02240   0.05053   0.08786   0.00000  Uiso   1.00
C331   C     0.94336   0.98438   0.07800   0.00000  Uiso   1.00
C332   C     0.15074   0.20373   0.01614   0.00000  Uiso   1.00
C333   C     0.12960   0.27606   0.98658   0.00000  Uiso   1.00
C334   C     0.12027   0.31554   0.91953   0.00000  Uiso   1.00
C335   C     0.09790   0.40276   0.81226   0.00000  Uiso   1.00
C336   C     0.18499   0.09217   0.02224   0.00000  Uiso   1.00
C337   C     0.25283   0.07146   0.08953   0.00000  Uiso   1.00
C338   C     0.31982   0.02634   0.11462   0.00000  Uiso   1.00
C339   C     0.37507   0.01409   0.17719   0.00000  Uiso   1.00
C340   C     0.12563   0.07317   0.04275   0.00000  Uiso   1.00
C341   C     0.08565   0.02949   0.02849   0.00000  Uiso   1.00
C342   C     0.03382   0.01869   0.05166   0.00000  Uiso   1.00
C343   C     0.16213   0.17196   0.98001   0.00000  Uiso   1.00
C344   C     0.15282   0.21133   0.91299   0.00000  Uiso   1.00
C345   C     0.13169   0.28371   0.88333   0.00000  Uiso   1.00
H346   H     0.15514   0.17540   0.11688   0.00000  Uiso   1.00
H347   H     0.28776   0.11565   0.21616   0.00000  Uiso   1.00
H348   H     0.05363   0.11882   0.13003   0.00000  Uiso   1.00
H349   H     0.12079   0.30063   0.01455   0.00000  Uiso   1.00
H350   H     0.43981   0.03537   0.31031   0.00000  Uiso   1.00
H351   H     0.94613   0.04206   0.12868   0.00000  Uiso   1.00
H352   H     0.08774   0.42545   0.88517   0.00000  Uiso   1.00
H353   H     0.19386   0.06743   0.99411   0.00000  Uiso   1.00
H354   H     0.32862   0.00175   0.08665   0.00000  Uiso   1.00
H355   H     0.09449   0.00492   0.00052   0.00000  Uiso   1.00
H356   H     0.16165   0.18673   0.88504   0.00000  Uiso   1.00
H357   H     0.47297   0.94292   0.20519   0.00000  Uiso   1.00
H358   H     0.97928   0.94962   0.02357   0.00000  Uiso   1.00
H359   H     0.12090   0.33300   0.78005   0.00000  Uiso   1.00
O360   O     0.54433   0.94787   0.32085   0.00000  Uiso   1.00
O361   O     0.89662   0.95667   0.08256   0.00000  Uiso   1.00
O362   O     0.08242   0.45965   0.76308   0.00000  Uiso   1.00
N363   N     0.42913   0.02264   0.27286   0.00000  Uiso   1.00
N364   N     0.96757   0.02889   0.10306   0.00000  Uiso   1.00
N365   N     0.09995   0.38732   0.87539   0.00000  Uiso   1.00
N366   N     0.44697   0.97289   0.21630   0.00000  Uiso   1.00
N367   N     0.98541   0.97914   0.04650   0.00000  Uiso   1.00
N368   N     0.11779   0.33757   0.81883   0.00000  Uiso   1.00
C369   C     0.73013   0.48512   0.66995   0.00000  Uiso   1.00
C370   C     0.76567   0.54392   0.66439   0.00000  Uiso   1.00
C371   C     0.73359   0.60946   0.65085   0.00000  Uiso   1.00
C372   C     0.77513   0.65593   0.64784   0.00000  Uiso   1.00
C373   C     0.81952   0.75003   0.63769   0.00000  Uiso   1.00
C374   C     0.78052   0.42188   0.74126   0.00000  Uiso   1.00
C375   C     0.76092   0.38480   0.79234   0.00000  Uiso   1.00
C376   C     0.81496   0.32854   0.85404   0.00000  Uiso   1.00
C377   C     0.88238   0.23313   0.96320   0.00000  Uiso   1.00
C378   C     0.73385   0.46626   0.61706   0.00000  Uiso   1.00
C379   C     0.67502   0.46649   0.56372   0.00000  Uiso   1.00
C380   C     0.68977   0.44758   0.52086   0.00000  Uiso   1.00
C381   C     0.68474   0.42108   0.43718   0.00000  Uiso   1.00
C382   C     0.86095   0.45112   0.68869   0.00000  Uiso   1.00
C383   C     0.83673   0.52545   0.67457   0.00000  Uiso   1.00
C384   C     0.87833   0.57184   0.67158   0.00000  Uiso   1.00
C385   C     0.84631   0.63743   0.65803   0.00000  Uiso   1.00
C386   C     0.85157   0.40341   0.75144   0.00000  Uiso   1.00
C387   C     0.90565   0.34718   0.81307   0.00000  Uiso   1.00
C388   C     0.88614   0.31003   0.86423   0.00000  Uiso   1.00
C389   C     0.80491   0.44779   0.62723   0.00000  Uiso   1.00
C390   C     0.81975   0.42887   0.58445   0.00000  Uiso   1.00
C391   C     0.76096   0.42907   0.53105   0.00000  Uiso   1.00
H392   H     0.67481   0.49950   0.66203   0.00000  Uiso   1.00
H393   H     0.67861   0.62373   0.64298   0.00000  Uiso   1.00
H394   H     0.70593   0.39911   0.78445   0.00000  Uiso   1.00
H395   H     0.62004   0.48078   0.55586   0.00000  Uiso   1.00
H396   H     0.71415   0.75331   0.62637   0.00000  Uiso   1.00
H397   H     0.77176   0.27966   0.92465   0.00000  Uiso   1.00
H398   H     0.59065   0.45189   0.44263   0.00000  Uiso   1.00
H399   H     0.91627   0.43673   0.69661   0.00000  Uiso   1.00
H400   H     0.93331   0.55753   0.67946   0.00000  Uiso   1.00
H401   H     0.96063   0.33290   0.82092   0.00000  Uiso   1.00
H402   H     0.87475   0.41458   0.59234   0.00000  Uiso   1.00
H403   H     0.92088   0.69957   0.65598   0.00000  Uiso   1.00
H404   H     0.97848   0.22592   0.95426   0.00000  Uiso   1.00
H405   H     0.79738   0.39816   0.47224   0.00000  Uiso   1.00
O406   O     0.82438   0.80703   0.62929   0.00000  Uiso   1.00
O407   O     0.89995   0.18561   0.02061   0.00000  Uiso   1.00
O408   O     0.66234   0.41158   0.38821   0.00000  Uiso   1.00
N409   N     0.76046   0.72409   0.63568   0.00000  Uiso   1.00
N410   N     0.81432   0.28127   0.91456   0.00000  Uiso   1.00
N411   N     0.64500   0.44227   0.46392   0.00000  Uiso   1.00
N412   N     0.87170   0.69518   0.65161   0.00000  Uiso   1.00
N413   N     0.92556   0.25235   0.93049   0.00000  Uiso   1.00
N414   N     0.75624   0.41336   0.47985   0.00000  Uiso   1.00
C415   C     0.21246   0.56497   0.44359   0.00000  Uiso   1.00
C416   C     0.23914   0.52738   0.41276   0.00000  Uiso   1.00
C417   C     0.19776   0.53044   0.34997   0.00000  Uiso   1.00
C418   C     0.23218   0.49229   0.33092   0.00000  Uiso   1.00
C419   C     0.26248   0.43994   0.27663   0.00000  Uiso   1.00
C420   C     0.22728   0.50817   0.51540   0.00000  Uiso   1.00
C421   C     0.17592   0.49510   0.53892   0.00000  Uiso   1.00
C422   C     0.20036   0.44078   0.60628   0.00000  Uiso   1.00
C423   C     0.21224   0.35864   0.71136   0.00000  Uiso   1.00
C424   C     0.26328   0.60919   0.45596   0.00000  Uiso   1.00
C425   C     0.24219   0.68104   0.42952   0.00000  Uiso   1.00
C426   C     0.29694   0.71176   0.44685   0.00000  Uiso   1.00
C427   C     0.36472   0.78646   0.45964   0.00000  Uiso   1.00
C428   C     0.34718   0.49176   0.52142   0.00000  Uiso   1.00
C429   C     0.31232   0.48762   0.45503   0.00000  Uiso   1.00
C430   C     0.34682   0.44945   0.43607   0.00000  Uiso   1.00
C431   C     0.30549   0.45245   0.37327   0.00000  Uiso   1.00
C432   C     0.30045   0.46841   0.55767   0.00000  Uiso   1.00
C433   C     0.32498   0.41410   0.62502   0.00000  Uiso   1.00
C434   C     0.27367   0.40094   0.64863   0.00000  Uiso   1.00
C435   C     0.33646   0.56942   0.49823   0.00000  Uiso   1.00
C436   C     0.39125   0.60004   0.51561   0.00000  Uiso   1.00
C437   C     0.37025   0.67193   0.48920   0.00000  Uiso   1.00
H438   H     0.15549   0.59593   0.41069   0.00000  Uiso   1.00
H439   H     0.14113   0.56122   0.31728   0.00000  Uiso   1.00
H440   H     0.11929   0.52588   0.50620   0.00000  Uiso   1.00
H441   H     0.18556   0.71179   0.39681   0.00000  Uiso   1.00
H442   H     0.15747   0.50518   0.23236   0.00000  Uiso   1.00
H443   H     0.11144   0.43068   0.63072   0.00000  Uiso   1.00
H444   H     0.25117   0.82272   0.40006   0.00000  Uiso   1.00
H445   H     0.40416   0.46080   0.55433   0.00000  Uiso   1.00
H446   H     0.40345   0.41868   0.46879   0.00000  Uiso   1.00
H447   H     0.38161   0.38334   0.65771   0.00000  Uiso   1.00
H448   H     0.44787   0.56925   0.54832   0.00000  Uiso   1.00
H449   H     0.37038   0.38948   0.35534   0.00000  Uiso   1.00
H450   H     0.32435   0.31499   0.75370   0.00000  Uiso   1.00
H451   H     0.46408   0.70702   0.52303   0.00000  Uiso   1.00
O452   O     0.25897   0.42204   0.23500   0.00000  Uiso   1.00
O453   O     0.19857   0.32432   0.75764   0.00000  Uiso   1.00
O454   O     0.38189   0.83865   0.45501   0.00000  Uiso   1.00
N455   N     0.20768   0.48374   0.27304   0.00000  Uiso   1.00
N456   N     0.16464   0.41409   0.64548   0.00000  Uiso   1.00
N457   N     0.29528   0.78060   0.42984   0.00000  Uiso   1.00
N458   N     0.32225   0.42149   0.33921   0.00000  Uiso   1.00
N459   N     0.27920   0.35184   0.71165   0.00000  Uiso   1.00
N460   N     0.40984   0.71835   0.49601   0.00000  Uiso   1.00
C461   C     0.24679   0.08528   0.65776   0.00000  Uiso   1.00
C462   C     0.22020   0.14904   0.58606   0.00000  Uiso   1.00
C463   C     0.19539   0.21823   0.56803   0.00000  Uiso   1.00
C464   C     0.17344   0.26898   0.49974   0.00000  Uiso   1.00
C465   C     0.13168   0.37069   0.39578   0.00000  Uiso   1.00
C466   C     0.20017   0.03737   0.64703   0.00000  Uiso   1.00
C467   C     0.15854   0.01266   0.68026   0.00000  Uiso   1.00
C468   C     0.11975   0.96941   0.66330   0.00000  Uiso   1.00
C469   C     0.04695   0.89771   0.65402   0.00000  Uiso   1.00
C470   C     0.32353   0.04689   0.67906   0.00000  Uiso   1.00
C471   C     0.38561   0.03017   0.73924   0.00000  Uiso   1.00
C472   C     0.45067   0.99491   0.74926   0.00000  Uiso   1.00
C473   C     0.56939   0.93800   0.78973   0.00000  Uiso   1.00
C474   C     0.25194   0.05238   0.56857   0.00000  Uiso   1.00
C475   C     0.22299   0.13117   0.53762   0.00000  Uiso   1.00
C476   C     0.20108   0.18183   0.46934   0.00000  Uiso   1.00
C477   C     0.17624   0.25108   0.45121   0.00000  Uiso   1.00
C478   C     0.20297   0.01950   0.59858   0.00000  Uiso   1.00
C479   C     0.16423   0.97627   0.58158   0.00000  Uiso   1.00
C480   C     0.12255   0.95151   0.61477   0.00000  Uiso   1.00
C481   C     0.32632   0.02902   0.63062   0.00000  Uiso   1.00
C482   C     0.39130   0.99378   0.64055   0.00000  Uiso   1.00
C483   C     0.45347   0.97701   0.70073   0.00000  Uiso   1.00
H484   H     0.24462   0.09919   0.69548   0.00000  Uiso   1.00
H485   H     0.19323   0.23203   0.60553   0.00000  Uiso   1.00
H486   H     0.15640   0.02650   0.71775   0.00000  Uiso   1.00
H487   H     0.38343   0.04400   0.77672   0.00000  Uiso   1.00
H488   H     0.13746   0.37143   0.48444   0.00000  Uiso   1.00
H489   H     0.05982   0.93803   0.72107   0.00000  Uiso   1.00
H490   H     0.53856   0.97494   0.84543   0.00000  Uiso   1.00
H491   H     0.25411   0.03847   0.53085   0.00000  Uiso   1.00
H492   H     0.20324   0.16799   0.43187   0.00000  Uiso   1.00
H493   H     0.16641   0.96245   0.54409   0.00000  Uiso   1.00
H494   H     0.39344   0.97996   0.60305   0.00000  Uiso   1.00
H495   H     0.14559   0.31945   0.34348   0.00000  Uiso   1.00
H496   H     0.06794   0.88604   0.58012   0.00000  Uiso   1.00
H497   H     0.54668   0.92296   0.70447   0.00000  Uiso   1.00
O498   O     0.10787   0.43173   0.35181   0.00000  Uiso   1.00
O499   O     0.00602   0.86311   0.66228   0.00000  Uiso   1.00
O500   O     0.63411   0.91155   0.82542   0.00000  Uiso   1.00
N501   N     0.14637   0.34142   0.46485   0.00000  Uiso   1.00
N502   N     0.07377   0.93623   0.68609   0.00000  Uiso   1.00
N503   N     0.52135   0.97072   0.80235   0.00000  Uiso   1.00
N504   N     0.15074   0.31345   0.38901   0.00000  Uiso   1.00
N505   N     0.07814   0.90826   0.61024   0.00000  Uiso   1.00
N506   N     0.52572   0.94275   0.72651   0.00000  Uiso   1.00
C507   C     0.78085   0.45084   0.16527   0.00000  Uiso   1.00
C508   C     0.83263   0.49450   0.15422   0.00000  Uiso   1.00
C509   C     0.90123   0.48331   0.20472   0.00000  Uiso   1.00
C510   C     0.94012   0.52905   0.18422   0.00000  Uiso   1.00
C511   C     0.02488   0.58850   0.17750   0.00000  Uiso   1.00
C512   C     0.71030   0.50206   0.14220   0.00000  Uiso   1.00
C513   C     0.67605   0.49722   0.18259   0.00000  Uiso   1.00
C514   C     0.61196   0.54933   0.15196   0.00000  Uiso   1.00
C515   C     0.50677   0.62049   0.12656   0.00000  Uiso   1.00
C516   C     0.76334   0.42526   0.11289   0.00000  Uiso   1.00
C517   C     0.77367   0.35586   0.12864   0.00000  Uiso   1.00
C518   C     0.75421   0.34331   0.07333   0.00000  Uiso   1.00
C519   C     0.73138   0.29524   0.00243   0.00000  Uiso   1.00
C520   C     0.72792   0.55196   0.03906   0.00000  Uiso   1.00
C521   C     0.80388   0.54942   0.08567   0.00000  Uiso   1.00
C522   C     0.84267   0.59519   0.06508   0.00000  Uiso   1.00
C523   C     0.91132   0.58407   0.11554   0.00000  Uiso   1.00
C524   C     0.68155   0.55698   0.07365   0.00000  Uiso   1.00
C525   C     0.61749   0.60910   0.04295   0.00000  Uiso   1.00
C526   C     0.58316   0.60435   0.08328   0.00000  Uiso   1.00
C527   C     0.73460   0.48019   0.04434   0.00000  Uiso   1.00
C528   C     0.71511   0.46774   0.98900   0.00000  Uiso   1.00
C529   C     0.72541   0.39833   0.00465   0.00000  Uiso   1.00
H530   H     0.80323   0.40808   0.21864   0.00000  Uiso   1.00
H531   H     0.92346   0.44080   0.25777   0.00000  Uiso   1.00
H532   H     0.69831   0.45471   0.23564   0.00000  Uiso   1.00
H533   H     0.79592   0.31337   0.18169   0.00000  Uiso   1.00
H534   H     0.04407   0.50132   0.27093   0.00000  Uiso   1.00
H535   H     0.56931   0.53063   0.22425   0.00000  Uiso   1.00
H536   H     0.77514   0.23259   0.11050   0.00000  Uiso   1.00
H537   H     0.70554   0.59472   0.98568   0.00000  Uiso   1.00
H538   H     0.82041   0.63769   0.01203   0.00000  Uiso   1.00
H539   H     0.59526   0.65160   0.98990   0.00000  Uiso   1.00
H540   H     0.69287   0.51026   0.93595   0.00000  Uiso   1.00
H541   H     0.96043   0.66112   0.07147   0.00000  Uiso   1.00
H542   H     0.48567   0.69043   0.02479   0.00000  Uiso   1.00
H543   H     0.69150   0.39239   0.91104   0.00000  Uiso   1.00
O544   O     0.07957   0.60613   0.19274   0.00000  Uiso   1.00
O545   O     0.45670   0.64458   0.13150   0.00000  Uiso   1.00
O546   O     0.72674   0.25355   0.98226   0.00000  Uiso   1.00
N547   N     0.00863   0.53302   0.22037   0.00000  Uiso   1.00
N548   N     0.56476   0.56043   0.17673   0.00000  Uiso   1.00
N549   N     0.75717   0.28179   0.07038   0.00000  Uiso   1.00
N550   N     0.96362   0.61901   0.11304   0.00000  Uiso   1.00
N551   N     0.51976   0.64642   0.06940   0.00000  Uiso   1.00
N552   N     0.71217   0.36778   0.96305   0.00000  Uiso   1.00
