data_job_04918
_audit_creation_date              2018-12-19
_audit_creation_method            'Materials Studio'
_symmetry_space_group_name_H-M    'P1'
_symmetry_Int_Tables_number       1
_symmetry_cell_setting            triclinic
loop_
_symmetry_equiv_pos_as_xyz
  x,y,z
_cell_length_a                    13.5896
_cell_length_b                    12.5219
_cell_length_c                    29.8982
_cell_angle_alpha                 90.0000
_cell_angle_beta                  90.0000
_cell_angle_gamma                 90.0000
loop_
_atom_site_label
_atom_site_type_symbol
_atom_site_fract_x
_atom_site_fract_y
_atom_site_fract_z
_atom_site_U_iso_or_equiv
_atom_site_adp_type
_atom_site_occupancy
C1     C     0.43953   0.93894   0.35230   0.00000  Uiso   1.00
C2     C     0.49138   0.04681   0.35451   0.00000  Uiso   1.00
C3     C     0.51479   0.11087   0.31816   0.00000  Uiso   1.00
C4     C     0.56225   0.20667   0.32718   0.00000  Uiso   1.00
C5     C     0.63928   0.36950   0.32395   0.00000  Uiso   1.00
C6     C     0.50759   0.85971   0.37562   0.00000  Uiso   1.00
C7     C     0.54461   0.76646   0.35701   0.00000  Uiso   1.00
C8     C     0.60570   0.70475   0.38380   0.00000  Uiso   1.00
C9     C     0.70783   0.57707   0.41334   0.00000  Uiso   1.00
C10    C     0.34885   0.94881   0.38206   0.00000  Uiso   1.00
C11    C     0.25241   0.93045   0.36887   0.00000  Uiso   1.00
C12    C     0.17985   0.94373   0.40109   0.00000  Uiso   1.00
C13    C     0.03552   0.95439   0.44063   0.00000  Uiso   1.00
C14    C     0.48217   0.99516   0.43297   0.00000  Uiso   1.00
C15    C     0.51455   0.07734   0.39833   0.00000  Uiso   1.00
C16    C     0.56197   0.17307   0.40741   0.00000  Uiso   1.00
C17    C     0.58545   0.23727   0.37107   0.00000  Uiso   1.00
C18    C     0.53075   0.89025   0.41943   0.00000  Uiso   1.00
C19    C     0.59179   0.82866   0.44625   0.00000  Uiso   1.00
C20    C     0.62890   0.73534   0.42769   0.00000  Uiso   1.00
C21    C     0.37201   0.97935   0.42587   0.00000  Uiso   1.00
C22    C     0.29959   0.99265   0.45812   0.00000  Uiso   1.00
C23    C     0.20305   0.97432   0.44498   0.00000  Uiso   1.00
H24    H     0.42150   0.91516   0.31819   0.00000  Uiso   1.00
H25    H     0.49687   0.08721   0.28426   0.00000  Uiso   1.00
H26    H     0.52667   0.74285   0.32310   0.00000  Uiso   1.00
H27    H     0.23451   0.90682   0.33497   0.00000  Uiso   1.00
H28    H     0.59067   0.29141   0.26596   0.00000  Uiso   1.00
H29    H     0.65348   0.56528   0.34787   0.00000  Uiso   1.00
H30    H     0.03741   0.91104   0.37288   0.00000  Uiso   1.00
H31    H     0.50021   0.01893   0.46708   0.00000  Uiso   1.00
H32    H     0.57989   0.19668   0.44131   0.00000  Uiso   1.00
H33    H     0.60969   0.85231   0.48016   0.00000  Uiso   1.00
H34    H     0.31754   0.01628   0.49202   0.00000  Uiso   1.00
H35    H     0.65806   0.38025   0.39343   0.00000  Uiso   1.00
H36    H     0.72087   0.65412   0.47534   0.00000  Uiso   1.00
H37    H     0.10480   0.99989   0.50035   0.00000  Uiso   1.00
O38    O     0.67539   0.45087   0.31006   0.00000  Uiso   1.00
O39    O     0.75778   0.49821   0.41752   0.00000  Uiso   1.00
O40    O     0.94952   0.95185   0.45034   0.00000  Uiso   1.00
N41    N     0.59557   0.28793   0.29949   0.00000  Uiso   1.00
N42    N     0.65431   0.60905   0.37607   0.00000  Uiso   1.00
N43    N     0.07834   0.93229   0.39946   0.00000  Uiso   1.00
N44    N     0.63184   0.33574   0.36809   0.00000  Uiso   1.00
N45    N     0.69057   0.65686   0.44467   0.00000  Uiso   1.00
N46    N     0.11460   0.98009   0.46805   0.00000  Uiso   1.00
C47    C     0.06047   0.56106   0.85230   0.00000  Uiso   1.00
C48    C     0.00862   0.45319   0.85451   0.00000  Uiso   1.00
C49    C     0.98521   0.38913   0.81816   0.00000  Uiso   1.00
C50    C     0.93775   0.29333   0.82718   0.00000  Uiso   1.00
C51    C     0.86072   0.13050   0.82395   0.00000  Uiso   1.00
C52    C     0.99241   0.64029   0.87562   0.00000  Uiso   1.00
C53    C     0.95539   0.73354   0.85701   0.00000  Uiso   1.00
C54    C     0.89430   0.79525   0.88380   0.00000  Uiso   1.00
C55    C     0.79217   0.92293   0.91334   0.00000  Uiso   1.00
C56    C     0.15115   0.55119   0.88206   0.00000  Uiso   1.00
C57    C     0.24759   0.56955   0.86887   0.00000  Uiso   1.00
C58    C     0.32015   0.55627   0.90109   0.00000  Uiso   1.00
C59    C     0.46448   0.54561   0.94063   0.00000  Uiso   1.00
C60    C     0.01783   0.50484   0.93297   0.00000  Uiso   1.00
C61    C     0.98545   0.42266   0.89833   0.00000  Uiso   1.00
C62    C     0.93803   0.32693   0.90741   0.00000  Uiso   1.00
C63    C     0.91455   0.26273   0.87107   0.00000  Uiso   1.00
C64    C     0.96925   0.60975   0.91943   0.00000  Uiso   1.00
C65    C     0.90821   0.67134   0.94625   0.00000  Uiso   1.00
C66    C     0.87110   0.76466   0.92769   0.00000  Uiso   1.00
C67    C     0.12799   0.52065   0.92587   0.00000  Uiso   1.00
C68    C     0.20041   0.50735   0.95812   0.00000  Uiso   1.00
C69    C     0.29695   0.52568   0.94498   0.00000  Uiso   1.00
H70    H     0.07850   0.58484   0.81819   0.00000  Uiso   1.00
H71    H     0.00313   0.41279   0.78426   0.00000  Uiso   1.00
H72    H     0.97333   0.75715   0.82310   0.00000  Uiso   1.00
H73    H     0.26549   0.59318   0.83497   0.00000  Uiso   1.00
H74    H     0.90933   0.20859   0.76596   0.00000  Uiso   1.00
H75    H     0.84652   0.93472   0.84787   0.00000  Uiso   1.00
H76    H     0.46259   0.58896   0.87288   0.00000  Uiso   1.00
H77    H     0.99979   0.48107   0.96708   0.00000  Uiso   1.00
H78    H     0.92011   0.30332   0.94131   0.00000  Uiso   1.00
H79    H     0.89031   0.64769   0.98016   0.00000  Uiso   1.00
H80    H     0.18246   0.48372   0.99202   0.00000  Uiso   1.00
H81    H     0.84194   0.11975   0.89343   0.00000  Uiso   1.00
H82    H     0.77913   0.84588   0.97534   0.00000  Uiso   1.00
H83    H     0.39520   0.50011   0.00035   0.00000  Uiso   1.00
O84    O     0.82461   0.04913   0.81006   0.00000  Uiso   1.00
O85    O     0.74222   0.00179   0.91752   0.00000  Uiso   1.00
O86    O     0.55048   0.54815   0.95034   0.00000  Uiso   1.00
N87    N     0.90443   0.21207   0.79949   0.00000  Uiso   1.00
N88    N     0.84569   0.89095   0.87607   0.00000  Uiso   1.00
N89    N     0.42166   0.56771   0.89946   0.00000  Uiso   1.00
N90    N     0.86816   0.16426   0.86809   0.00000  Uiso   1.00
N91    N     0.80943   0.84314   0.94467   0.00000  Uiso   1.00
N92    N     0.38540   0.51991   0.96805   0.00000  Uiso   1.00
C93    C     0.56047   0.93894   0.14770   0.00000  Uiso   1.00
C94    C     0.50862   0.04681   0.14549   0.00000  Uiso   1.00
C95    C     0.48521   0.11087   0.18184   0.00000  Uiso   1.00
C96    C     0.43775   0.20667   0.17282   0.00000  Uiso   1.00
C97    C     0.36072   0.36950   0.17605   0.00000  Uiso   1.00
C98    C     0.49241   0.85971   0.12438   0.00000  Uiso   1.00
C99    C     0.45539   0.76646   0.14299   0.00000  Uiso   1.00
C100   C     0.39430   0.70475   0.11620   0.00000  Uiso   1.00
C101   C     0.29217   0.57707   0.08666   0.00000  Uiso   1.00
C102   C     0.65115   0.94881   0.11794   0.00000  Uiso   1.00
C103   C     0.74759   0.93045   0.13113   0.00000  Uiso   1.00
C104   C     0.82015   0.94373   0.09891   0.00000  Uiso   1.00
C105   C     0.96448   0.95439   0.05937   0.00000  Uiso   1.00
C106   C     0.51783   0.99516   0.06703   0.00000  Uiso   1.00
C107   C     0.48545   0.07734   0.10167   0.00000  Uiso   1.00
C108   C     0.43803   0.17307   0.09259   0.00000  Uiso   1.00
C109   C     0.41455   0.23727   0.12893   0.00000  Uiso   1.00
C110   C     0.46925   0.89025   0.08057   0.00000  Uiso   1.00
C111   C     0.40821   0.82866   0.05375   0.00000  Uiso   1.00
C112   C     0.37110   0.73534   0.07231   0.00000  Uiso   1.00
C113   C     0.62799   0.97935   0.07413   0.00000  Uiso   1.00
C114   C     0.70041   0.99265   0.04188   0.00000  Uiso   1.00
C115   C     0.79695   0.97432   0.05502   0.00000  Uiso   1.00
H116   H     0.57850   0.91516   0.18181   0.00000  Uiso   1.00
H117   H     0.50313   0.08721   0.21574   0.00000  Uiso   1.00
H118   H     0.47333   0.74285   0.17690   0.00000  Uiso   1.00
H119   H     0.76549   0.90682   0.16503   0.00000  Uiso   1.00
H120   H     0.40933   0.29141   0.23404   0.00000  Uiso   1.00
H121   H     0.34652   0.56528   0.15213   0.00000  Uiso   1.00
H122   H     0.96259   0.91104   0.12712   0.00000  Uiso   1.00
H123   H     0.49979   0.01893   0.03292   0.00000  Uiso   1.00
H124   H     0.42011   0.19668   0.05869   0.00000  Uiso   1.00
H125   H     0.39031   0.85231   0.01984   0.00000  Uiso   1.00
H126   H     0.68246   0.01628   0.00798   0.00000  Uiso   1.00
H127   H     0.34194   0.38025   0.10657   0.00000  Uiso   1.00
H128   H     0.27913   0.65412   0.02466   0.00000  Uiso   1.00
H129   H     0.89520   0.99989   0.99965   0.00000  Uiso   1.00
O130   O     0.32461   0.45087   0.18994   0.00000  Uiso   1.00
O131   O     0.24222   0.49821   0.08248   0.00000  Uiso   1.00
O132   O     0.05048   0.95185   0.04966   0.00000  Uiso   1.00
N133   N     0.40443   0.28793   0.20051   0.00000  Uiso   1.00
N134   N     0.34569   0.60905   0.12393   0.00000  Uiso   1.00
N135   N     0.92166   0.93229   0.10054   0.00000  Uiso   1.00
N136   N     0.36816   0.33574   0.13191   0.00000  Uiso   1.00
N137   N     0.30943   0.65686   0.05533   0.00000  Uiso   1.00
N138   N     0.88540   0.98009   0.03195   0.00000  Uiso   1.00
C139   C     0.93953   0.56106   0.64770   0.00000  Uiso   1.00
C140   C     0.99138   0.45319   0.64549   0.00000  Uiso   1.00
C141   C     0.01479   0.38913   0.68184   0.00000  Uiso   1.00
C142   C     0.06225   0.29333   0.67282   0.00000  Uiso   1.00
C143   C     0.13928   0.13050   0.67605   0.00000  Uiso   1.00
C144   C     0.00759   0.64029   0.62438   0.00000  Uiso   1.00
C145   C     0.04461   0.73354   0.64299   0.00000  Uiso   1.00
C146   C     0.10570   0.79525   0.61620   0.00000  Uiso   1.00
C147   C     0.20783   0.92293   0.58666   0.00000  Uiso   1.00
C148   C     0.84885   0.55119   0.61794   0.00000  Uiso   1.00
C149   C     0.75241   0.56955   0.63113   0.00000  Uiso   1.00
C150   C     0.67985   0.55627   0.59891   0.00000  Uiso   1.00
C151   C     0.53552   0.54561   0.55937   0.00000  Uiso   1.00
C152   C     0.98217   0.50484   0.56703   0.00000  Uiso   1.00
C153   C     0.01455   0.42266   0.60167   0.00000  Uiso   1.00
C154   C     0.06197   0.32693   0.59259   0.00000  Uiso   1.00
C155   C     0.08545   0.26273   0.62893   0.00000  Uiso   1.00
C156   C     0.03075   0.60975   0.58057   0.00000  Uiso   1.00
C157   C     0.09179   0.67134   0.55375   0.00000  Uiso   1.00
C158   C     0.12890   0.76466   0.57231   0.00000  Uiso   1.00
C159   C     0.87201   0.52065   0.57413   0.00000  Uiso   1.00
C160   C     0.79959   0.50735   0.54188   0.00000  Uiso   1.00
C161   C     0.70305   0.52568   0.55502   0.00000  Uiso   1.00
H162   H     0.92150   0.58484   0.68181   0.00000  Uiso   1.00
H163   H     0.99687   0.41279   0.71574   0.00000  Uiso   1.00
H164   H     0.02667   0.75715   0.67690   0.00000  Uiso   1.00
H165   H     0.73451   0.59318   0.66503   0.00000  Uiso   1.00
H166   H     0.09067   0.20859   0.73404   0.00000  Uiso   1.00
H167   H     0.15348   0.93472   0.65213   0.00000  Uiso   1.00
H168   H     0.53741   0.58896   0.62712   0.00000  Uiso   1.00
H169   H     0.00021   0.48107   0.53292   0.00000  Uiso   1.00
H170   H     0.07989   0.30332   0.55869   0.00000  Uiso   1.00
H171   H     0.10969   0.64769   0.51984   0.00000  Uiso   1.00
H172   H     0.81754   0.48372   0.50798   0.00000  Uiso   1.00
H173   H     0.15806   0.11975   0.60657   0.00000  Uiso   1.00
H174   H     0.22087   0.84588   0.52466   0.00000  Uiso   1.00
H175   H     0.60480   0.50011   0.49965   0.00000  Uiso   1.00
O176   O     0.17539   0.04913   0.68994   0.00000  Uiso   1.00
O177   O     0.25778   0.00179   0.58248   0.00000  Uiso   1.00
O178   O     0.44952   0.54815   0.54966   0.00000  Uiso   1.00
N179   N     0.09557   0.21207   0.70051   0.00000  Uiso   1.00
N180   N     0.15431   0.89095   0.62393   0.00000  Uiso   1.00
N181   N     0.57834   0.56771   0.60054   0.00000  Uiso   1.00
N182   N     0.13184   0.16426   0.63191   0.00000  Uiso   1.00
N183   N     0.19057   0.84314   0.55533   0.00000  Uiso   1.00
N184   N     0.61460   0.51991   0.53195   0.00000  Uiso   1.00
C185   C     0.56047   0.06106   0.64770   0.00000  Uiso   1.00
C186   C     0.50862   0.95319   0.64549   0.00000  Uiso   1.00
C187   C     0.48521   0.88913   0.68184   0.00000  Uiso   1.00
C188   C     0.43775   0.79333   0.67282   0.00000  Uiso   1.00
C189   C     0.36072   0.63050   0.67605   0.00000  Uiso   1.00
C190   C     0.49241   0.14029   0.62438   0.00000  Uiso   1.00
C191   C     0.45539   0.23354   0.64299   0.00000  Uiso   1.00
C192   C     0.39430   0.29525   0.61620   0.00000  Uiso   1.00
C193   C     0.29217   0.42293   0.58666   0.00000  Uiso   1.00
C194   C     0.65115   0.05119   0.61794   0.00000  Uiso   1.00
C195   C     0.74759   0.06955   0.63113   0.00000  Uiso   1.00
C196   C     0.82015   0.05627   0.59891   0.00000  Uiso   1.00
C197   C     0.96448   0.04561   0.55937   0.00000  Uiso   1.00
C198   C     0.51783   0.00484   0.56703   0.00000  Uiso   1.00
C199   C     0.48545   0.92266   0.60167   0.00000  Uiso   1.00
C200   C     0.43803   0.82693   0.59259   0.00000  Uiso   1.00
C201   C     0.41455   0.76273   0.62893   0.00000  Uiso   1.00
C202   C     0.46925   0.10975   0.58057   0.00000  Uiso   1.00
C203   C     0.40821   0.17134   0.55375   0.00000  Uiso   1.00
C204   C     0.37110   0.26466   0.57231   0.00000  Uiso   1.00
C205   C     0.62799   0.02065   0.57413   0.00000  Uiso   1.00
C206   C     0.70041   0.00735   0.54188   0.00000  Uiso   1.00
C207   C     0.79695   0.02568   0.55502   0.00000  Uiso   1.00
H208   H     0.57850   0.08484   0.68181   0.00000  Uiso   1.00
H209   H     0.50313   0.91279   0.71574   0.00000  Uiso   1.00
H210   H     0.47333   0.25715   0.67690   0.00000  Uiso   1.00
H211   H     0.76549   0.09318   0.66503   0.00000  Uiso   1.00
H212   H     0.40933   0.70859   0.73404   0.00000  Uiso   1.00
H213   H     0.34652   0.43472   0.65213   0.00000  Uiso   1.00
H214   H     0.96259   0.08896   0.62712   0.00000  Uiso   1.00
H215   H     0.49979   0.98107   0.53292   0.00000  Uiso   1.00
H216   H     0.42011   0.80332   0.55869   0.00000  Uiso   1.00
H217   H     0.39031   0.14769   0.51984   0.00000  Uiso   1.00
H218   H     0.68246   0.98372   0.50798   0.00000  Uiso   1.00
H219   H     0.34194   0.61975   0.60657   0.00000  Uiso   1.00
H220   H     0.27913   0.34588   0.52466   0.00000  Uiso   1.00
H221   H     0.89520   0.00011   0.49965   0.00000  Uiso   1.00
O222   O     0.32461   0.54913   0.68994   0.00000  Uiso   1.00
O223   O     0.24222   0.50179   0.58248   0.00000  Uiso   1.00
O224   O     0.05048   0.04815   0.54966   0.00000  Uiso   1.00
N225   N     0.40443   0.71207   0.70051   0.00000  Uiso   1.00
N226   N     0.34569   0.39095   0.62393   0.00000  Uiso   1.00
N227   N     0.92166   0.06771   0.60054   0.00000  Uiso   1.00
N228   N     0.36816   0.66426   0.63191   0.00000  Uiso   1.00
N229   N     0.30943   0.34314   0.55533   0.00000  Uiso   1.00
N230   N     0.88540   0.01991   0.53195   0.00000  Uiso   1.00
C231   C     0.93953   0.43894   0.14770   0.00000  Uiso   1.00
C232   C     0.99138   0.54681   0.14549   0.00000  Uiso   1.00
C233   C     0.01479   0.61087   0.18184   0.00000  Uiso   1.00
C234   C     0.06225   0.70667   0.17282   0.00000  Uiso   1.00
C235   C     0.13928   0.86950   0.17605   0.00000  Uiso   1.00
C236   C     0.00759   0.35971   0.12438   0.00000  Uiso   1.00
C237   C     0.04461   0.26646   0.14299   0.00000  Uiso   1.00
C238   C     0.10570   0.20475   0.11620   0.00000  Uiso   1.00
C239   C     0.20783   0.07707   0.08666   0.00000  Uiso   1.00
C240   C     0.84885   0.44881   0.11794   0.00000  Uiso   1.00
C241   C     0.75241   0.43045   0.13113   0.00000  Uiso   1.00
C242   C     0.67985   0.44373   0.09891   0.00000  Uiso   1.00
C243   C     0.53552   0.45439   0.05937   0.00000  Uiso   1.00
C244   C     0.98217   0.49516   0.06703   0.00000  Uiso   1.00
C245   C     0.01455   0.57734   0.10167   0.00000  Uiso   1.00
C246   C     0.06197   0.67307   0.09259   0.00000  Uiso   1.00
C247   C     0.08545   0.73727   0.12893   0.00000  Uiso   1.00
C248   C     0.03075   0.39025   0.08057   0.00000  Uiso   1.00
C249   C     0.09179   0.32866   0.05375   0.00000  Uiso   1.00
C250   C     0.12890   0.23534   0.07231   0.00000  Uiso   1.00
C251   C     0.87201   0.47935   0.07413   0.00000  Uiso   1.00
C252   C     0.79959   0.49265   0.04188   0.00000  Uiso   1.00
C253   C     0.70305   0.47432   0.05502   0.00000  Uiso   1.00
H254   H     0.92150   0.41516   0.18181   0.00000  Uiso   1.00
H255   H     0.99687   0.58721   0.21574   0.00000  Uiso   1.00
H256   H     0.02667   0.24285   0.17690   0.00000  Uiso   1.00
H257   H     0.73451   0.40682   0.16503   0.00000  Uiso   1.00
H258   H     0.09067   0.79141   0.23404   0.00000  Uiso   1.00
H259   H     0.15348   0.06528   0.15213   0.00000  Uiso   1.00
H260   H     0.53741   0.41104   0.12712   0.00000  Uiso   1.00
H261   H     0.00021   0.51893   0.03292   0.00000  Uiso   1.00
H262   H     0.07989   0.69668   0.05869   0.00000  Uiso   1.00
H263   H     0.10969   0.35231   0.01984   0.00000  Uiso   1.00
H264   H     0.81754   0.51628   0.00798   0.00000  Uiso   1.00
H265   H     0.15806   0.88025   0.10657   0.00000  Uiso   1.00
H266   H     0.22087   0.15412   0.02466   0.00000  Uiso   1.00
H267   H     0.60480   0.49989   0.99965   0.00000  Uiso   1.00
O268   O     0.17539   0.95087   0.18994   0.00000  Uiso   1.00
O269   O     0.25778   0.99821   0.08248   0.00000  Uiso   1.00
O270   O     0.44952   0.45185   0.04966   0.00000  Uiso   1.00
N271   N     0.09557   0.78793   0.20051   0.00000  Uiso   1.00
N272   N     0.15431   0.10905   0.12393   0.00000  Uiso   1.00
N273   N     0.57834   0.43229   0.10054   0.00000  Uiso   1.00
N274   N     0.13184   0.83574   0.13191   0.00000  Uiso   1.00
N275   N     0.19057   0.15686   0.05533   0.00000  Uiso   1.00
N276   N     0.61460   0.48009   0.03195   0.00000  Uiso   1.00
C277   C     0.43953   0.06106   0.85230   0.00000  Uiso   1.00
C278   C     0.49138   0.95319   0.85451   0.00000  Uiso   1.00
C279   C     0.51479   0.88913   0.81816   0.00000  Uiso   1.00
C280   C     0.56225   0.79333   0.82718   0.00000  Uiso   1.00
C281   C     0.63928   0.63050   0.82395   0.00000  Uiso   1.00
C282   C     0.50759   0.14029   0.87562   0.00000  Uiso   1.00
C283   C     0.54461   0.23354   0.85701   0.00000  Uiso   1.00
C284   C     0.60570   0.29525   0.88380   0.00000  Uiso   1.00
C285   C     0.70783   0.42293   0.91334   0.00000  Uiso   1.00
C286   C     0.34885   0.05119   0.88206   0.00000  Uiso   1.00
C287   C     0.25241   0.06955   0.86887   0.00000  Uiso   1.00
C288   C     0.17985   0.05627   0.90109   0.00000  Uiso   1.00
C289   C     0.03552   0.04561   0.94063   0.00000  Uiso   1.00
C290   C     0.48217   0.00484   0.93297   0.00000  Uiso   1.00
C291   C     0.51455   0.92266   0.89833   0.00000  Uiso   1.00
C292   C     0.56197   0.82693   0.90741   0.00000  Uiso   1.00
C293   C     0.58545   0.76273   0.87107   0.00000  Uiso   1.00
C294   C     0.53075   0.10975   0.91943   0.00000  Uiso   1.00
C295   C     0.59179   0.17134   0.94625   0.00000  Uiso   1.00
C296   C     0.62890   0.26466   0.92769   0.00000  Uiso   1.00
C297   C     0.37201   0.02065   0.92587   0.00000  Uiso   1.00
C298   C     0.29959   0.00735   0.95812   0.00000  Uiso   1.00
C299   C     0.20305   0.02568   0.94498   0.00000  Uiso   1.00
H300   H     0.42150   0.08484   0.81819   0.00000  Uiso   1.00
H301   H     0.49687   0.91279   0.78426   0.00000  Uiso   1.00
H302   H     0.52667   0.25715   0.82310   0.00000  Uiso   1.00
H303   H     0.23451   0.09318   0.83497   0.00000  Uiso   1.00
H304   H     0.59067   0.70859   0.76596   0.00000  Uiso   1.00
H305   H     0.65348   0.43472   0.84787   0.00000  Uiso   1.00
H306   H     0.03741   0.08896   0.87288   0.00000  Uiso   1.00
H307   H     0.50021   0.98107   0.96708   0.00000  Uiso   1.00
H308   H     0.57989   0.80332   0.94131   0.00000  Uiso   1.00
H309   H     0.60969   0.14769   0.98016   0.00000  Uiso   1.00
H310   H     0.31754   0.98372   0.99202   0.00000  Uiso   1.00
H311   H     0.65806   0.61975   0.89343   0.00000  Uiso   1.00
H312   H     0.72087   0.34588   0.97534   0.00000  Uiso   1.00
H313   H     0.10480   0.00011   0.00035   0.00000  Uiso   1.00
O314   O     0.67539   0.54913   0.81006   0.00000  Uiso   1.00
O315   O     0.75778   0.50179   0.91752   0.00000  Uiso   1.00
O316   O     0.94952   0.04815   0.95034   0.00000  Uiso   1.00
N317   N     0.59557   0.71207   0.79949   0.00000  Uiso   1.00
N318   N     0.65431   0.39095   0.87607   0.00000  Uiso   1.00
N319   N     0.07834   0.06771   0.89946   0.00000  Uiso   1.00
N320   N     0.63184   0.66426   0.86809   0.00000  Uiso   1.00
N321   N     0.69057   0.34314   0.94467   0.00000  Uiso   1.00
N322   N     0.11460   0.01991   0.96805   0.00000  Uiso   1.00
C323   C     0.06047   0.43894   0.35230   0.00000  Uiso   1.00
C324   C     0.00862   0.54681   0.35451   0.00000  Uiso   1.00
C325   C     0.98521   0.61087   0.31816   0.00000  Uiso   1.00
C326   C     0.93775   0.70667   0.32718   0.00000  Uiso   1.00
C327   C     0.86072   0.86950   0.32395   0.00000  Uiso   1.00
C328   C     0.99241   0.35971   0.37562   0.00000  Uiso   1.00
C329   C     0.95539   0.26646   0.35701   0.00000  Uiso   1.00
C330   C     0.89430   0.20475   0.38380   0.00000  Uiso   1.00
C331   C     0.79217   0.07707   0.41334   0.00000  Uiso   1.00
C332   C     0.15115   0.44881   0.38206   0.00000  Uiso   1.00
C333   C     0.24759   0.43045   0.36887   0.00000  Uiso   1.00
C334   C     0.32015   0.44373   0.40109   0.00000  Uiso   1.00
C335   C     0.46448   0.45439   0.44063   0.00000  Uiso   1.00
C336   C     0.01783   0.49516   0.43297   0.00000  Uiso   1.00
C337   C     0.98545   0.57734   0.39833   0.00000  Uiso   1.00
C338   C     0.93803   0.67307   0.40741   0.00000  Uiso   1.00
C339   C     0.91455   0.73727   0.37107   0.00000  Uiso   1.00
C340   C     0.96925   0.39025   0.41943   0.00000  Uiso   1.00
C341   C     0.90821   0.32866   0.44625   0.00000  Uiso   1.00
C342   C     0.87110   0.23534   0.42769   0.00000  Uiso   1.00
C343   C     0.12799   0.47935   0.42587   0.00000  Uiso   1.00
C344   C     0.20041   0.49265   0.45812   0.00000  Uiso   1.00
C345   C     0.29695   0.47432   0.44498   0.00000  Uiso   1.00
H346   H     0.07850   0.41516   0.31819   0.00000  Uiso   1.00
H347   H     0.00313   0.58721   0.28426   0.00000  Uiso   1.00
H348   H     0.97333   0.24285   0.32310   0.00000  Uiso   1.00
H349   H     0.26549   0.40682   0.33497   0.00000  Uiso   1.00
H350   H     0.90933   0.79141   0.26596   0.00000  Uiso   1.00
H351   H     0.84652   0.06528   0.34787   0.00000  Uiso   1.00
H352   H     0.46259   0.41104   0.37288   0.00000  Uiso   1.00
H353   H     0.99979   0.51893   0.46708   0.00000  Uiso   1.00
H354   H     0.92011   0.69668   0.44131   0.00000  Uiso   1.00
H355   H     0.89031   0.35231   0.48016   0.00000  Uiso   1.00
H356   H     0.18246   0.51628   0.49202   0.00000  Uiso   1.00
H357   H     0.84194   0.88025   0.39343   0.00000  Uiso   1.00
H358   H     0.77913   0.15412   0.47534   0.00000  Uiso   1.00
H359   H     0.39520   0.49989   0.50035   0.00000  Uiso   1.00
O360   O     0.82461   0.95087   0.31006   0.00000  Uiso   1.00
O361   O     0.74222   0.99821   0.41752   0.00000  Uiso   1.00
O362   O     0.55048   0.45185   0.45034   0.00000  Uiso   1.00
N363   N     0.90443   0.78793   0.29949   0.00000  Uiso   1.00
N364   N     0.84569   0.10905   0.37607   0.00000  Uiso   1.00
N365   N     0.42166   0.43229   0.39946   0.00000  Uiso   1.00
N366   N     0.86816   0.83574   0.36809   0.00000  Uiso   1.00
N367   N     0.80943   0.15686   0.44467   0.00000  Uiso   1.00
N368   N     0.38540   0.48009   0.46805   0.00000  Uiso   1.00
