data_job_06350
_audit_creation_date              2018-12-19
_audit_creation_method            'Materials Studio'
_symmetry_space_group_name_H-M    'P1'
_symmetry_Int_Tables_number       1
_symmetry_cell_setting            triclinic
loop_
_symmetry_equiv_pos_as_xyz
  x,y,z
_cell_length_a                    13.2084
_cell_length_b                    19.1914
_cell_length_c                    19.3142
_cell_angle_alpha                 115.0860
_cell_angle_beta                  76.3844
_cell_angle_gamma                 77.7062
loop_
_atom_site_label
_atom_site_type_symbol
_atom_site_fract_x
_atom_site_fract_y
_atom_site_fract_z
_atom_site_U_iso_or_equiv
_atom_site_adp_type
_atom_site_occupancy
C1     C     0.92652   0.68055   0.12159   0.00000  Uiso   1.00
C2     C     0.88181   0.66165   0.05225   0.00000  Uiso   1.00
C3     C     0.89239   0.58391   0.99395   0.00000  Uiso   1.00
C4     C     0.84573   0.57959   0.93557   0.00000  Uiso   1.00
C5     C     0.78475   0.53944   0.82788   0.00000  Uiso   1.00
C6     C     0.00152   0.72872   0.11149   0.00000  Uiso   1.00
C7     C     0.11274   0.70738   0.10300   0.00000  Uiso   1.00
C8     C     0.16684   0.75952   0.09449   0.00000  Uiso   1.00
C9     C     0.29168   0.82353   0.07884   0.00000  Uiso   1.00
C10    C     0.82658   0.74076   0.20102   0.00000  Uiso   1.00
C11    C     0.79073   0.72956   0.26783   0.00000  Uiso   1.00
C12    C     0.69756   0.79185   0.33471   0.00000  Uiso   1.00
C13    C     0.55079   0.87457   0.45807   0.00000  Uiso   1.00
C14    C     0.82485   0.81110   0.12159   0.00000  Uiso   1.00
C15    C     0.82659   0.73256   0.05225   0.00000  Uiso   1.00
C16    C     0.77990   0.72835   0.99395   0.00000  Uiso   1.00
C17    C     0.79040   0.65062   0.93557   0.00000  Uiso   1.00
C18    C     0.94630   0.79962   0.11149   0.00000  Uiso   1.00
C19    C     0.00025   0.85182   0.10300   0.00000  Uiso   1.00
C20    C     0.11152   0.83056   0.09450   0.00000  Uiso   1.00
C21    C     0.77135   0.81167   0.20103   0.00000  Uiso   1.00
C22    C     0.67823   0.87400   0.26783   0.00000  Uiso   1.00
C23    C     0.64224   0.86289   0.33472   0.00000  Uiso   1.00
H24    H     0.96952   0.62535   0.12159   0.00000  Uiso   1.00
H25    H     0.93514   0.52905   0.99396   0.00000  Uiso   1.00
H26    H     0.15545   0.65250   0.10301   0.00000  Uiso   1.00
H27    H     0.83348   0.67468   0.26780   0.00000  Uiso   1.00
H28    H     0.87270   0.45355   0.85244   0.00000  Uiso   1.00
H29    H     0.33722   0.71387   0.08240   0.00000  Uiso   1.00
H30    H     0.65830   0.76064   0.42991   0.00000  Uiso   1.00
H31    H     0.78186   0.86631   0.12160   0.00000  Uiso   1.00
H32    H     0.73717   0.78324   0.99397   0.00000  Uiso   1.00
H33    H     0.95748   0.90669   0.10301   0.00000  Uiso   1.00
H34    H     0.63552   0.92886   0.26781   0.00000  Uiso   1.00
H35    H     0.71203   0.65986   0.85245   0.00000  Uiso   1.00
H36    H     0.17655   0.92018   0.08241   0.00000  Uiso   1.00
H37    H     0.49763   0.96695   0.42991   0.00000  Uiso   1.00
O38    O     0.76639   0.49770   0.76847   0.00000  Uiso   1.00
O39    O     0.37581   0.83924   0.07019   0.00000  Uiso   1.00
O40    O     0.48509   0.90060   0.52610   0.00000  Uiso   1.00
N41    N     0.84100   0.51351   0.86997   0.00000  Uiso   1.00
N42    N     0.27530   0.75689   0.08495   0.00000  Uiso   1.00
N43    N     0.64059   0.80062   0.40985   0.00000  Uiso   1.00
N44    N     0.75454   0.62452   0.86997   0.00000  Uiso   1.00
N45    N     0.18884   0.86790   0.08496   0.00000  Uiso   1.00
N46    N     0.55413   0.91163   0.40986   0.00000  Uiso   1.00
C47    C     0.04762   0.87718   0.56044   0.00000  Uiso   1.00
C48    C     0.93397   0.94607   0.61125   0.00000  Uiso   1.00
C49    C     0.88755   0.00426   0.59207   0.00000  Uiso   1.00
C50    C     0.78267   0.06222   0.64646   0.00000  Uiso   1.00
C51    C     0.61480   0.16925   0.71458   0.00000  Uiso   1.00
C52    C     0.11174   0.88783   0.61813   0.00000  Uiso   1.00
C53    C     0.21479   0.89703   0.60473   0.00000  Uiso   1.00
C54    C     0.25956   0.90595   0.66491   0.00000  Uiso   1.00
C55    C     0.36771   0.92250   0.74368   0.00000  Uiso   1.00
C56    C     0.02608   0.79728   0.54150   0.00000  Uiso   1.00
C57    C     0.05713   0.73034   0.46367   0.00000  Uiso   1.00
C58    C     0.02980   0.66301   0.45934   0.00000  Uiso   1.00
C59    C     0.00495   0.53898   0.41913   0.00000  Uiso   1.00
C60    C     0.94390   0.87665   0.69112   0.00000  Uiso   1.00
C61    C     0.87764   0.94578   0.68223   0.00000  Uiso   1.00
C62    C     0.77280   0.00366   0.73666   0.00000  Uiso   1.00
C63    C     0.72623   0.06192   0.71757   0.00000  Uiso   1.00
C64    C     0.05541   0.88754   0.68911   0.00000  Uiso   1.00
C65    C     0.10004   0.89644   0.74932   0.00000  Uiso   1.00
C66    C     0.20312   0.90566   0.73602   0.00000  Uiso   1.00
C67    C     0.96974   0.79699   0.61248   0.00000  Uiso   1.00
C68    C     0.94237   0.72975   0.60826   0.00000  Uiso   1.00
C69    C     0.97337   0.66272   0.53045   0.00000  Uiso   1.00
H70    H     0.09148   0.87741   0.50518   0.00000  Uiso   1.00
H71    H     0.93118   0.00447   0.53714   0.00000  Uiso   1.00
H72    H     0.25837   0.89725   0.54979   0.00000  Uiso   1.00
H73    H     0.10073   0.73059   0.40876   0.00000  Uiso   1.00
H74    H     0.72863   0.14522   0.60389   0.00000  Uiso   1.00
H75    H     0.41854   0.91912   0.63056   0.00000  Uiso   1.00
H76    H     0.08612   0.56768   0.33316   0.00000  Uiso   1.00
H77    H     0.90004   0.87642   0.74639   0.00000  Uiso   1.00
H78    H     0.72922   0.00342   0.79158   0.00000  Uiso   1.00
H79    H     0.05642   0.89621   0.80423   0.00000  Uiso   1.00
H80    H     0.89877   0.72955   0.66320   0.00000  Uiso   1.00
H81    H     0.56471   0.14438   0.81041   0.00000  Uiso   1.00
H82    H     0.25463   0.91827   0.83707   0.00000  Uiso   1.00
H83    H     0.92221   0.56684   0.53968   0.00000  Uiso   1.00
O84    O     0.53777   0.22838   0.73254   0.00000  Uiso   1.00
O85    O     0.44292   0.93172   0.76752   0.00000  Uiso   1.00
O86    O     0.00679   0.47065   0.37734   0.00000  Uiso   1.00
N87    N     0.71348   0.12758   0.64628   0.00000  Uiso   1.00
N88    N     0.35850   0.91620   0.67122   0.00000  Uiso   1.00
N89    N     0.04775   0.58763   0.39318   0.00000  Uiso   1.00
N90    N     0.62528   0.12713   0.75741   0.00000  Uiso   1.00
N91    N     0.27030   0.91575   0.78234   0.00000  Uiso   1.00
N92    N     0.95955   0.58718   0.50431   0.00000  Uiso   1.00
C93    C     0.61151   0.43968   0.31779   0.00000  Uiso   1.00
C94    C     0.54754   0.38828   0.33623   0.00000  Uiso   1.00
C95    C     0.48106   0.40717   0.41367   0.00000  Uiso   1.00
C96    C     0.42960   0.35224   0.41759   0.00000  Uiso   1.00
C97    C     0.32810   0.28324   0.45704   0.00000  Uiso   1.00
C98    C     0.73306   0.38254   0.27029   0.00000  Uiso   1.00
C99    C     0.82256   0.39662   0.29229   0.00000  Uiso   1.00
C100   C     0.92727   0.33686   0.24070   0.00000  Uiso   1.00
C101   C     0.11380   0.25898   0.17774   0.00000  Uiso   1.00
C102   C     0.57233   0.45835   0.25723   0.00000  Uiso   1.00
C103   C     0.52672   0.53617   0.26823   0.00000  Uiso   1.00
C104   C     0.49614   0.54023   0.20563   0.00000  Uiso   1.00
C105   C     0.43311   0.58005   0.12240   0.00000  Uiso   1.00
C106   C     0.63835   0.30852   0.18703   0.00000  Uiso   1.00
C107   C     0.56212   0.31703   0.26521   0.00000  Uiso   1.00
C108   C     0.51075   0.26206   0.26901   0.00000  Uiso   1.00
C109   C     0.44420   0.28088   0.34645   0.00000  Uiso   1.00
C110   C     0.74764   0.31130   0.19928   0.00000  Uiso   1.00
C111   C     0.85224   0.25151   0.14763   0.00000  Uiso   1.00
C112   C     0.94187   0.26550   0.16955   0.00000  Uiso   1.00
C113   C     0.58691   0.38711   0.18621   0.00000  Uiso   1.00
C114   C     0.55640   0.39105   0.12357   0.00000  Uiso   1.00
C115   C     0.51074   0.46886   0.13448   0.00000  Uiso   1.00
H116   H     0.60017   0.49514   0.37308   0.00000  Uiso   1.00
H117   H     0.46981   0.46231   0.46862   0.00000  Uiso   1.00
H118   H     0.81125   0.45176   0.34725   0.00000  Uiso   1.00
H119   H     0.51545   0.59128   0.32320   0.00000  Uiso   1.00
H120   H     0.33174   0.39447   0.54323   0.00000  Uiso   1.00
H121   H     0.05169   0.37224   0.28731   0.00000  Uiso   1.00
H122   H     0.42795   0.66645   0.23659   0.00000  Uiso   1.00
H123   H     0.64970   0.25306   0.13174   0.00000  Uiso   1.00
H124   H     0.52204   0.20694   0.21404   0.00000  Uiso   1.00
H125   H     0.86349   0.19639   0.09267   0.00000  Uiso   1.00
H126   H     0.56769   0.33591   0.06862   0.00000  Uiso   1.00
H127   H     0.37414   0.18720   0.33661   0.00000  Uiso   1.00
H128   H     0.09410   0.16498   0.08068   0.00000  Uiso   1.00
H129   H     0.47035   0.45918   0.02996   0.00000  Uiso   1.00
O130   O     0.26810   0.26485   0.49842   0.00000  Uiso   1.00
O131   O     0.21265   0.23570   0.16265   0.00000  Uiso   1.00
O132   O     0.39431   0.62169   0.09611   0.00000  Uiso   1.00
N133   N     0.35922   0.35203   0.48331   0.00000  Uiso   1.00
N134   N     0.03233   0.33124   0.24404   0.00000  Uiso   1.00
N135   N     0.44921   0.60630   0.19661   0.00000  Uiso   1.00
N136   N     0.38203   0.24050   0.37212   0.00000  Uiso   1.00
N137   N     0.05514   0.21971   0.13285   0.00000  Uiso   1.00
N138   N     0.47202   0.49477   0.08543   0.00000  Uiso   1.00
C139   C     0.07348   0.31945   0.87841   0.00000  Uiso   1.00
C140   C     0.11819   0.33835   0.94775   0.00000  Uiso   1.00
C141   C     0.10761   0.41609   0.00605   0.00000  Uiso   1.00
C142   C     0.15427   0.42041   0.06443   0.00000  Uiso   1.00
C143   C     0.21525   0.46056   0.17212   0.00000  Uiso   1.00
C144   C     0.99848   0.27128   0.88851   0.00000  Uiso   1.00
C145   C     0.88726   0.29262   0.89700   0.00000  Uiso   1.00
C146   C     0.83316   0.24048   0.90551   0.00000  Uiso   1.00
C147   C     0.70831   0.17647   0.92116   0.00000  Uiso   1.00
C148   C     0.17342   0.25924   0.79898   0.00000  Uiso   1.00
C149   C     0.20927   0.27044   0.73217   0.00000  Uiso   1.00
C150   C     0.30244   0.20814   0.66529   0.00000  Uiso   1.00
C151   C     0.44920   0.12543   0.54193   0.00000  Uiso   1.00
C152   C     0.17515   0.18890   0.87841   0.00000  Uiso   1.00
C153   C     0.17341   0.26744   0.94774   0.00000  Uiso   1.00
C154   C     0.22010   0.27165   0.00605   0.00000  Uiso   1.00
C155   C     0.20960   0.34938   0.06443   0.00000  Uiso   1.00
C156   C     0.05370   0.20038   0.88851   0.00000  Uiso   1.00
C157   C     0.99975   0.14818   0.89699   0.00000  Uiso   1.00
C158   C     0.88848   0.16944   0.90550   0.00000  Uiso   1.00
C159   C     0.22865   0.18833   0.79897   0.00000  Uiso   1.00
C160   C     0.32176   0.12600   0.73217   0.00000  Uiso   1.00
C161   C     0.35776   0.13711   0.66528   0.00000  Uiso   1.00
H162   H     0.03048   0.37465   0.87841   0.00000  Uiso   1.00
H163   H     0.06486   0.47095   0.00604   0.00000  Uiso   1.00
H164   H     0.84455   0.34750   0.89699   0.00000  Uiso   1.00
H165   H     0.16651   0.32532   0.73220   0.00000  Uiso   1.00
H166   H     0.12730   0.54645   0.14755   0.00000  Uiso   1.00
H167   H     0.66278   0.28613   0.91760   0.00000  Uiso   1.00
H168   H     0.34170   0.23936   0.57009   0.00000  Uiso   1.00
H169   H     0.21814   0.13369   0.87840   0.00000  Uiso   1.00
H170   H     0.26283   0.21676   0.00603   0.00000  Uiso   1.00
H171   H     0.04252   0.09331   0.89699   0.00000  Uiso   1.00
H172   H     0.36448   0.07114   0.73219   0.00000  Uiso   1.00
H173   H     0.28797   0.34014   0.14755   0.00000  Uiso   1.00
H174   H     0.82345   0.07982   0.91759   0.00000  Uiso   1.00
H175   H     0.50237   0.03305   0.57009   0.00000  Uiso   1.00
O176   O     0.23361   0.50230   0.23153   0.00000  Uiso   1.00
O177   O     0.62419   0.16076   0.92981   0.00000  Uiso   1.00
O178   O     0.51491   0.09940   0.47390   0.00000  Uiso   1.00
N179   N     0.15900   0.48649   0.13003   0.00000  Uiso   1.00
N180   N     0.72470   0.24311   0.91505   0.00000  Uiso   1.00
N181   N     0.35941   0.19938   0.59015   0.00000  Uiso   1.00
N182   N     0.24546   0.37548   0.13003   0.00000  Uiso   1.00
N183   N     0.81116   0.13210   0.91504   0.00000  Uiso   1.00
N184   N     0.44587   0.08837   0.59014   0.00000  Uiso   1.00
C185   C     0.95238   0.12282   0.43956   0.00000  Uiso   1.00
C186   C     0.06603   0.05393   0.38875   0.00000  Uiso   1.00
C187   C     0.11245   0.99574   0.40793   0.00000  Uiso   1.00
C188   C     0.21733   0.93778   0.35354   0.00000  Uiso   1.00
C189   C     0.38520   0.83075   0.28542   0.00000  Uiso   1.00
C190   C     0.88826   0.11217   0.38187   0.00000  Uiso   1.00
C191   C     0.78521   0.10297   0.39527   0.00000  Uiso   1.00
C192   C     0.74044   0.09405   0.33509   0.00000  Uiso   1.00
C193   C     0.63229   0.07750   0.25632   0.00000  Uiso   1.00
C194   C     0.97392   0.20272   0.45850   0.00000  Uiso   1.00
C195   C     0.94287   0.26966   0.53633   0.00000  Uiso   1.00
C196   C     0.97020   0.33699   0.54066   0.00000  Uiso   1.00
C197   C     0.99505   0.46102   0.58087   0.00000  Uiso   1.00
C198   C     0.05610   0.12335   0.30888   0.00000  Uiso   1.00
C199   C     0.12236   0.05422   0.31777   0.00000  Uiso   1.00
C200   C     0.22720   0.99634   0.26334   0.00000  Uiso   1.00
C201   C     0.27377   0.93808   0.28243   0.00000  Uiso   1.00
C202   C     0.94459   0.11246   0.31089   0.00000  Uiso   1.00
C203   C     0.89996   0.10356   0.25068   0.00000  Uiso   1.00
C204   C     0.79688   0.09434   0.26398   0.00000  Uiso   1.00
C205   C     0.03026   0.20301   0.38752   0.00000  Uiso   1.00
C206   C     0.05763   0.27025   0.39174   0.00000  Uiso   1.00
C207   C     0.02663   0.33728   0.46955   0.00000  Uiso   1.00
H208   H     0.90852   0.12259   0.49482   0.00000  Uiso   1.00
H209   H     0.06882   0.99553   0.46286   0.00000  Uiso   1.00
H210   H     0.74163   0.10275   0.45021   0.00000  Uiso   1.00
H211   H     0.89927   0.26941   0.59124   0.00000  Uiso   1.00
H212   H     0.27137   0.85478   0.39611   0.00000  Uiso   1.00
H213   H     0.58146   0.08088   0.36944   0.00000  Uiso   1.00
H214   H     0.91387   0.43232   0.66684   0.00000  Uiso   1.00
H215   H     0.09996   0.12358   0.25361   0.00000  Uiso   1.00
H216   H     0.27078   0.99658   0.20842   0.00000  Uiso   1.00
H217   H     0.94358   0.10379   0.19577   0.00000  Uiso   1.00
H218   H     0.10123   0.27045   0.33680   0.00000  Uiso   1.00
H219   H     0.43528   0.85562   0.18959   0.00000  Uiso   1.00
H220   H     0.74537   0.08173   0.16293   0.00000  Uiso   1.00
H221   H     0.07779   0.43316   0.46032   0.00000  Uiso   1.00
O222   O     0.46222   0.77162   0.26745   0.00000  Uiso   1.00
O223   O     0.55708   0.06828   0.23248   0.00000  Uiso   1.00
O224   O     0.99321   0.52935   0.62266   0.00000  Uiso   1.00
N225   N     0.28652   0.87242   0.35371   0.00000  Uiso   1.00
N226   N     0.64150   0.08380   0.32878   0.00000  Uiso   1.00
N227   N     0.95225   0.41237   0.60682   0.00000  Uiso   1.00
N228   N     0.37472   0.87287   0.24259   0.00000  Uiso   1.00
N229   N     0.72970   0.08425   0.21765   0.00000  Uiso   1.00
N230   N     0.04045   0.41282   0.49569   0.00000  Uiso   1.00
C231   C     0.38849   0.56032   0.68221   0.00000  Uiso   1.00
C232   C     0.45246   0.61172   0.66377   0.00000  Uiso   1.00
C233   C     0.51894   0.59283   0.58633   0.00000  Uiso   1.00
C234   C     0.57040   0.64776   0.58241   0.00000  Uiso   1.00
C235   C     0.67190   0.71676   0.54296   0.00000  Uiso   1.00
C236   C     0.26694   0.61746   0.72971   0.00000  Uiso   1.00
C237   C     0.17744   0.60338   0.70771   0.00000  Uiso   1.00
C238   C     0.07273   0.66314   0.75930   0.00000  Uiso   1.00
C239   C     0.88620   0.74102   0.82226   0.00000  Uiso   1.00
C240   C     0.42767   0.54165   0.74277   0.00000  Uiso   1.00
C241   C     0.47328   0.46383   0.73176   0.00000  Uiso   1.00
C242   C     0.50386   0.45977   0.79437   0.00000  Uiso   1.00
C243   C     0.56689   0.41995   0.87760   0.00000  Uiso   1.00
C244   C     0.36165   0.69148   0.81297   0.00000  Uiso   1.00
C245   C     0.43788   0.68297   0.73479   0.00000  Uiso   1.00
C246   C     0.48925   0.73794   0.73099   0.00000  Uiso   1.00
C247   C     0.55580   0.71912   0.65355   0.00000  Uiso   1.00
C248   C     0.25236   0.68870   0.80072   0.00000  Uiso   1.00
C249   C     0.14776   0.74849   0.85237   0.00000  Uiso   1.00
C250   C     0.05813   0.73450   0.83045   0.00000  Uiso   1.00
C251   C     0.41309   0.61289   0.81379   0.00000  Uiso   1.00
C252   C     0.44360   0.60895   0.87643   0.00000  Uiso   1.00
C253   C     0.48926   0.53114   0.86552   0.00000  Uiso   1.00
H254   H     0.39983   0.50486   0.62692   0.00000  Uiso   1.00
H255   H     0.53019   0.53769   0.53138   0.00000  Uiso   1.00
H256   H     0.18875   0.54824   0.65275   0.00000  Uiso   1.00
H257   H     0.48455   0.40872   0.67680   0.00000  Uiso   1.00
H258   H     0.66826   0.60553   0.45677   0.00000  Uiso   1.00
H259   H     0.94831   0.62776   0.71269   0.00000  Uiso   1.00
H260   H     0.57205   0.33355   0.76341   0.00000  Uiso   1.00
H261   H     0.35030   0.74694   0.86826   0.00000  Uiso   1.00
H262   H     0.47796   0.79306   0.78596   0.00000  Uiso   1.00
H263   H     0.13651   0.80361   0.90733   0.00000  Uiso   1.00
H264   H     0.43231   0.66409   0.93138   0.00000  Uiso   1.00
H265   H     0.62586   0.81280   0.66339   0.00000  Uiso   1.00
H266   H     0.90590   0.83502   0.91932   0.00000  Uiso   1.00
H267   H     0.52965   0.54082   0.97004   0.00000  Uiso   1.00
O268   O     0.73190   0.73515   0.50158   0.00000  Uiso   1.00
O269   O     0.78735   0.76430   0.83735   0.00000  Uiso   1.00
O270   O     0.60569   0.37831   0.90389   0.00000  Uiso   1.00
N271   N     0.64078   0.64797   0.51669   0.00000  Uiso   1.00
N272   N     0.96767   0.66876   0.75596   0.00000  Uiso   1.00
N273   N     0.55079   0.39370   0.80339   0.00000  Uiso   1.00
N274   N     0.61797   0.75950   0.62788   0.00000  Uiso   1.00
N275   N     0.94486   0.78029   0.86714   0.00000  Uiso   1.00
N276   N     0.52798   0.50523   0.91457   0.00000  Uiso   1.00
