data_job_02363
_audit_creation_date              2018-12-19
_audit_creation_method            'Materials Studio'
_symmetry_space_group_name_H-M    'P1'
_symmetry_Int_Tables_number       1
_symmetry_cell_setting            triclinic
loop_
_symmetry_equiv_pos_as_xyz
  x,y,z
_cell_length_a                    42.2827
_cell_length_b                    13.1371
_cell_length_c                    12.2735
_cell_angle_alpha                 90.0000
_cell_angle_beta                  105.6954
_cell_angle_gamma                 90.0000
loop_
_atom_site_label
_atom_site_type_symbol
_atom_site_fract_x
_atom_site_fract_y
_atom_site_fract_z
_atom_site_U_iso_or_equiv
_atom_site_adp_type
_atom_site_occupancy
C1     C     0.15916   0.86078   0.19559   0.00000  Uiso   1.00
C2     C     0.17279   0.78033   0.13097   0.00000  Uiso   1.00
C3     C     0.19086   0.79932   0.05411   0.00000  Uiso   1.00
C4     C     0.20110   0.71536   0.00392   0.00000  Uiso   1.00
C5     C     0.22340   0.60556   0.89962   0.00000  Uiso   1.00
C6     C     0.12226   0.84157   0.16768   0.00000  Uiso   1.00
C7     C     0.09785   0.91206   0.12171   0.00000  Uiso   1.00
C8     C     0.06555   0.87964   0.10244   0.00000  Uiso   1.00
C9     C     0.00942   0.86494   0.05521   0.00000  Uiso   1.00
C10    C     0.17285   0.83510   0.32068   0.00000  Uiso   1.00
C11    C     0.19096   0.90015   0.40335   0.00000  Uiso   1.00
C12    C     0.20125   0.86230   0.51290   0.00000  Uiso   1.00
C13    C     0.22365   0.83755   0.70322   0.00000  Uiso   1.00
C14    C     0.14520   0.67789   0.24313   0.00000  Uiso   1.00
C15    C     0.16521   0.68100   0.15680   0.00000  Uiso   1.00
C16    C     0.17542   0.59698   0.10672   0.00000  Uiso   1.00
C17    C     0.19350   0.61585   0.02980   0.00000  Uiso   1.00
C18    C     0.11468   0.74224   0.19351   0.00000  Uiso   1.00
C19    C     0.08241   0.70972   0.17431   0.00000  Uiso   1.00
C20    C     0.05796   0.78013   0.12831   0.00000  Uiso   1.00
C21    C     0.16527   0.73576   0.34651   0.00000  Uiso   1.00
C22    C     0.17552   0.69781   0.45595   0.00000  Uiso   1.00
C23    C     0.19365   0.76278   0.53877   0.00000  Uiso   1.00
H24    H     0.16506   0.93812   0.17548   0.00000  Uiso   1.00
H25    H     0.19672   0.87621   0.03414   0.00000  Uiso   1.00
H26    H     0.10373   0.98893   0.10174   0.00000  Uiso   1.00
H27    H     0.19683   0.97702   0.38333   0.00000  Uiso   1.00
H28    H     0.22847   0.76377   0.88880   0.00000  Uiso   1.00
H29    H     0.03239   0.00145   0.03137   0.00000  Uiso   1.00
H30    H     0.22871   0.97634   0.62517   0.00000  Uiso   1.00
H31    H     0.13930   0.60055   0.26324   0.00000  Uiso   1.00
H32    H     0.16955   0.52012   0.12672   0.00000  Uiso   1.00
H33    H     0.07655   0.63284   0.19431   0.00000  Uiso   1.00
H34    H     0.16965   0.62093   0.47591   0.00000  Uiso   1.00
H35    H     0.20642   0.47475   0.96393   0.00000  Uiso   1.00
H36    H     0.01033   0.71244   0.10651   0.00000  Uiso   1.00
H37    H     0.20665   0.68733   0.70030   0.00000  Uiso   1.00
O38    O     0.23780   0.57244   0.83494   0.00000  Uiso   1.00
O39    O     0.98055   0.88428   0.02201   0.00000  Uiso   1.00
O40    O     0.23811   0.85133   0.80106   0.00000  Uiso   1.00
N41    N     0.21914   0.70679   0.92523   0.00000  Uiso   1.00
N42    N     0.03581   0.92900   0.05851   0.00000  Uiso   1.00
N43    N     0.21934   0.90554   0.61367   0.00000  Uiso   1.00
N44    N     0.20727   0.55127   0.96566   0.00000  Uiso   1.00
N45    N     0.02394   0.77348   0.09894   0.00000  Uiso   1.00
N46    N     0.20747   0.75002   0.65410   0.00000  Uiso   1.00
C47    C     0.65916   0.36078   0.19559   0.00000  Uiso   1.00
C48    C     0.67279   0.28033   0.13097   0.00000  Uiso   1.00
C49    C     0.69086   0.29932   0.05411   0.00000  Uiso   1.00
C50    C     0.70110   0.21536   0.00392   0.00000  Uiso   1.00
C51    C     0.72340   0.10556   0.89962   0.00000  Uiso   1.00
C52    C     0.62226   0.34157   0.16768   0.00000  Uiso   1.00
C53    C     0.59785   0.41206   0.12171   0.00000  Uiso   1.00
C54    C     0.56555   0.37964   0.10244   0.00000  Uiso   1.00
C55    C     0.50942   0.36494   0.05521   0.00000  Uiso   1.00
C56    C     0.67285   0.33510   0.32068   0.00000  Uiso   1.00
C57    C     0.69096   0.40015   0.40335   0.00000  Uiso   1.00
C58    C     0.70125   0.36230   0.51290   0.00000  Uiso   1.00
C59    C     0.72365   0.33755   0.70322   0.00000  Uiso   1.00
C60    C     0.64520   0.17789   0.24313   0.00000  Uiso   1.00
C61    C     0.66521   0.18100   0.15680   0.00000  Uiso   1.00
C62    C     0.67542   0.09698   0.10672   0.00000  Uiso   1.00
C63    C     0.69350   0.11585   0.02980   0.00000  Uiso   1.00
C64    C     0.61468   0.24224   0.19351   0.00000  Uiso   1.00
C65    C     0.58241   0.20972   0.17431   0.00000  Uiso   1.00
C66    C     0.55796   0.28013   0.12831   0.00000  Uiso   1.00
C67    C     0.66527   0.23576   0.34651   0.00000  Uiso   1.00
C68    C     0.67552   0.19781   0.45595   0.00000  Uiso   1.00
C69    C     0.69365   0.26278   0.53877   0.00000  Uiso   1.00
H70    H     0.66506   0.43812   0.17548   0.00000  Uiso   1.00
H71    H     0.69672   0.37621   0.03414   0.00000  Uiso   1.00
H72    H     0.60373   0.48893   0.10174   0.00000  Uiso   1.00
H73    H     0.69683   0.47702   0.38333   0.00000  Uiso   1.00
H74    H     0.72847   0.26377   0.88880   0.00000  Uiso   1.00
H75    H     0.53239   0.50145   0.03137   0.00000  Uiso   1.00
H76    H     0.72871   0.47634   0.62517   0.00000  Uiso   1.00
H77    H     0.63930   0.10055   0.26324   0.00000  Uiso   1.00
H78    H     0.66955   0.02012   0.12672   0.00000  Uiso   1.00
H79    H     0.57655   0.13284   0.19431   0.00000  Uiso   1.00
H80    H     0.66965   0.12093   0.47591   0.00000  Uiso   1.00
H81    H     0.70642   0.97475   0.96393   0.00000  Uiso   1.00
H82    H     0.51033   0.21244   0.10651   0.00000  Uiso   1.00
H83    H     0.70665   0.18733   0.70030   0.00000  Uiso   1.00
O84    O     0.73780   0.07244   0.83494   0.00000  Uiso   1.00
O85    O     0.48055   0.38428   0.02201   0.00000  Uiso   1.00
O86    O     0.73811   0.35133   0.80106   0.00000  Uiso   1.00
N87    N     0.71914   0.20679   0.92523   0.00000  Uiso   1.00
N88    N     0.53581   0.42900   0.05851   0.00000  Uiso   1.00
N89    N     0.71934   0.40554   0.61367   0.00000  Uiso   1.00
N90    N     0.70727   0.05127   0.96566   0.00000  Uiso   1.00
N91    N     0.52394   0.27348   0.09894   0.00000  Uiso   1.00
N92    N     0.70747   0.25002   0.65410   0.00000  Uiso   1.00
C93    C     0.84084   0.86078   0.30441   0.00000  Uiso   1.00
C94    C     0.82721   0.78033   0.36903   0.00000  Uiso   1.00
C95    C     0.80914   0.79932   0.44589   0.00000  Uiso   1.00
C96    C     0.79890   0.71536   0.49608   0.00000  Uiso   1.00
C97    C     0.77660   0.60556   0.60038   0.00000  Uiso   1.00
C98    C     0.87774   0.84157   0.33232   0.00000  Uiso   1.00
C99    C     0.90215   0.91206   0.37829   0.00000  Uiso   1.00
C100   C     0.93445   0.87964   0.39756   0.00000  Uiso   1.00
C101   C     0.99058   0.86494   0.44479   0.00000  Uiso   1.00
C102   C     0.82715   0.83510   0.17932   0.00000  Uiso   1.00
C103   C     0.80904   0.90015   0.09665   0.00000  Uiso   1.00
C104   C     0.79875   0.86230   0.98710   0.00000  Uiso   1.00
C105   C     0.77635   0.83755   0.79678   0.00000  Uiso   1.00
C106   C     0.85480   0.67789   0.25687   0.00000  Uiso   1.00
C107   C     0.83479   0.68100   0.34320   0.00000  Uiso   1.00
C108   C     0.82458   0.59698   0.39328   0.00000  Uiso   1.00
C109   C     0.80650   0.61585   0.47020   0.00000  Uiso   1.00
C110   C     0.88532   0.74224   0.30649   0.00000  Uiso   1.00
C111   C     0.91759   0.70972   0.32569   0.00000  Uiso   1.00
C112   C     0.94204   0.78013   0.37169   0.00000  Uiso   1.00
C113   C     0.83473   0.73576   0.15349   0.00000  Uiso   1.00
C114   C     0.82448   0.69781   0.04405   0.00000  Uiso   1.00
C115   C     0.80635   0.76278   0.96123   0.00000  Uiso   1.00
H116   H     0.83494   0.93812   0.32452   0.00000  Uiso   1.00
H117   H     0.80328   0.87621   0.46586   0.00000  Uiso   1.00
H118   H     0.89627   0.98893   0.39826   0.00000  Uiso   1.00
H119   H     0.80317   0.97702   0.11667   0.00000  Uiso   1.00
H120   H     0.77153   0.76377   0.61120   0.00000  Uiso   1.00
H121   H     0.96761   0.00145   0.46863   0.00000  Uiso   1.00
H122   H     0.77129   0.97634   0.87483   0.00000  Uiso   1.00
H123   H     0.86070   0.60055   0.23676   0.00000  Uiso   1.00
H124   H     0.83045   0.52012   0.37328   0.00000  Uiso   1.00
H125   H     0.92345   0.63284   0.30569   0.00000  Uiso   1.00
H126   H     0.83035   0.62093   0.02409   0.00000  Uiso   1.00
H127   H     0.79358   0.47475   0.53607   0.00000  Uiso   1.00
H128   H     0.98967   0.71244   0.39349   0.00000  Uiso   1.00
H129   H     0.79335   0.68733   0.79970   0.00000  Uiso   1.00
O130   O     0.76220   0.57244   0.66506   0.00000  Uiso   1.00
O131   O     0.01945   0.88428   0.47799   0.00000  Uiso   1.00
O132   O     0.76189   0.85133   0.69894   0.00000  Uiso   1.00
N133   N     0.78086   0.70679   0.57477   0.00000  Uiso   1.00
N134   N     0.96419   0.92900   0.44149   0.00000  Uiso   1.00
N135   N     0.78066   0.90554   0.88633   0.00000  Uiso   1.00
N136   N     0.79273   0.55127   0.53434   0.00000  Uiso   1.00
N137   N     0.97606   0.77348   0.40106   0.00000  Uiso   1.00
N138   N     0.79253   0.75002   0.84590   0.00000  Uiso   1.00
C139   C     0.34084   0.36078   0.30441   0.00000  Uiso   1.00
C140   C     0.32721   0.28033   0.36903   0.00000  Uiso   1.00
C141   C     0.30914   0.29932   0.44589   0.00000  Uiso   1.00
C142   C     0.29890   0.21536   0.49608   0.00000  Uiso   1.00
C143   C     0.27660   0.10556   0.60038   0.00000  Uiso   1.00
C144   C     0.37774   0.34157   0.33232   0.00000  Uiso   1.00
C145   C     0.40215   0.41206   0.37829   0.00000  Uiso   1.00
C146   C     0.43445   0.37964   0.39756   0.00000  Uiso   1.00
C147   C     0.49058   0.36494   0.44479   0.00000  Uiso   1.00
C148   C     0.32715   0.33510   0.17932   0.00000  Uiso   1.00
C149   C     0.30904   0.40015   0.09665   0.00000  Uiso   1.00
C150   C     0.29875   0.36230   0.98710   0.00000  Uiso   1.00
C151   C     0.27635   0.33755   0.79678   0.00000  Uiso   1.00
C152   C     0.35480   0.17789   0.25687   0.00000  Uiso   1.00
C153   C     0.33479   0.18100   0.34320   0.00000  Uiso   1.00
C154   C     0.32458   0.09698   0.39328   0.00000  Uiso   1.00
C155   C     0.30650   0.11585   0.47020   0.00000  Uiso   1.00
C156   C     0.38532   0.24224   0.30649   0.00000  Uiso   1.00
C157   C     0.41759   0.20972   0.32569   0.00000  Uiso   1.00
C158   C     0.44204   0.28013   0.37169   0.00000  Uiso   1.00
C159   C     0.33473   0.23576   0.15349   0.00000  Uiso   1.00
C160   C     0.32448   0.19781   0.04405   0.00000  Uiso   1.00
C161   C     0.30635   0.26278   0.96123   0.00000  Uiso   1.00
H162   H     0.33494   0.43812   0.32452   0.00000  Uiso   1.00
H163   H     0.30328   0.37621   0.46586   0.00000  Uiso   1.00
H164   H     0.39627   0.48893   0.39826   0.00000  Uiso   1.00
H165   H     0.30317   0.47702   0.11667   0.00000  Uiso   1.00
H166   H     0.27153   0.26377   0.61120   0.00000  Uiso   1.00
H167   H     0.46761   0.50145   0.46863   0.00000  Uiso   1.00
H168   H     0.27129   0.47634   0.87483   0.00000  Uiso   1.00
H169   H     0.36070   0.10055   0.23676   0.00000  Uiso   1.00
H170   H     0.33045   0.02012   0.37328   0.00000  Uiso   1.00
H171   H     0.42345   0.13284   0.30569   0.00000  Uiso   1.00
H172   H     0.33035   0.12093   0.02409   0.00000  Uiso   1.00
H173   H     0.29358   0.97475   0.53607   0.00000  Uiso   1.00
H174   H     0.48967   0.21244   0.39349   0.00000  Uiso   1.00
H175   H     0.29335   0.18733   0.79970   0.00000  Uiso   1.00
O176   O     0.26220   0.07244   0.66506   0.00000  Uiso   1.00
O177   O     0.51945   0.38428   0.47799   0.00000  Uiso   1.00
O178   O     0.26189   0.35133   0.69894   0.00000  Uiso   1.00
N179   N     0.28086   0.20679   0.57477   0.00000  Uiso   1.00
N180   N     0.46419   0.42900   0.44149   0.00000  Uiso   1.00
N181   N     0.28066   0.40554   0.88633   0.00000  Uiso   1.00
N182   N     0.29273   0.05127   0.53434   0.00000  Uiso   1.00
N183   N     0.47606   0.27348   0.40106   0.00000  Uiso   1.00
N184   N     0.29253   0.25002   0.84590   0.00000  Uiso   1.00
C185   C     0.84084   0.13922   0.80441   0.00000  Uiso   1.00
C186   C     0.82721   0.21967   0.86903   0.00000  Uiso   1.00
C187   C     0.80914   0.20068   0.94589   0.00000  Uiso   1.00
C188   C     0.79890   0.28464   0.99608   0.00000  Uiso   1.00
C189   C     0.77660   0.39444   0.10038   0.00000  Uiso   1.00
C190   C     0.87774   0.15843   0.83232   0.00000  Uiso   1.00
C191   C     0.90215   0.08794   0.87829   0.00000  Uiso   1.00
C192   C     0.93445   0.12036   0.89756   0.00000  Uiso   1.00
C193   C     0.99058   0.13506   0.94479   0.00000  Uiso   1.00
C194   C     0.82715   0.16490   0.67932   0.00000  Uiso   1.00
C195   C     0.80904   0.09985   0.59665   0.00000  Uiso   1.00
C196   C     0.79875   0.13770   0.48710   0.00000  Uiso   1.00
C197   C     0.77635   0.16245   0.29678   0.00000  Uiso   1.00
C198   C     0.85480   0.32211   0.75687   0.00000  Uiso   1.00
C199   C     0.83479   0.31900   0.84320   0.00000  Uiso   1.00
C200   C     0.82458   0.40302   0.89328   0.00000  Uiso   1.00
C201   C     0.80650   0.38415   0.97020   0.00000  Uiso   1.00
C202   C     0.88532   0.25776   0.80649   0.00000  Uiso   1.00
C203   C     0.91759   0.29028   0.82569   0.00000  Uiso   1.00
C204   C     0.94204   0.21987   0.87169   0.00000  Uiso   1.00
C205   C     0.83473   0.26424   0.65349   0.00000  Uiso   1.00
C206   C     0.82448   0.30219   0.54405   0.00000  Uiso   1.00
C207   C     0.80635   0.23722   0.46123   0.00000  Uiso   1.00
H208   H     0.83494   0.06188   0.82452   0.00000  Uiso   1.00
H209   H     0.80328   0.12379   0.96586   0.00000  Uiso   1.00
H210   H     0.89627   0.01107   0.89826   0.00000  Uiso   1.00
H211   H     0.80317   0.02298   0.61667   0.00000  Uiso   1.00
H212   H     0.77153   0.23623   0.11120   0.00000  Uiso   1.00
H213   H     0.96761   0.99855   0.96863   0.00000  Uiso   1.00
H214   H     0.77129   0.02366   0.37483   0.00000  Uiso   1.00
H215   H     0.86070   0.39945   0.73676   0.00000  Uiso   1.00
H216   H     0.83045   0.47988   0.87328   0.00000  Uiso   1.00
H217   H     0.92345   0.36716   0.80569   0.00000  Uiso   1.00
H218   H     0.83035   0.37907   0.52409   0.00000  Uiso   1.00
H219   H     0.79358   0.52525   0.03607   0.00000  Uiso   1.00
H220   H     0.98967   0.28756   0.89349   0.00000  Uiso   1.00
H221   H     0.79335   0.31267   0.29970   0.00000  Uiso   1.00
O222   O     0.76220   0.42756   0.16506   0.00000  Uiso   1.00
O223   O     0.01945   0.11572   0.97799   0.00000  Uiso   1.00
O224   O     0.76189   0.14867   0.19894   0.00000  Uiso   1.00
N225   N     0.78086   0.29321   0.07477   0.00000  Uiso   1.00
N226   N     0.96419   0.07100   0.94149   0.00000  Uiso   1.00
N227   N     0.78066   0.09446   0.38633   0.00000  Uiso   1.00
N228   N     0.79273   0.44873   0.03434   0.00000  Uiso   1.00
N229   N     0.97606   0.22652   0.90106   0.00000  Uiso   1.00
N230   N     0.79253   0.24998   0.34590   0.00000  Uiso   1.00
C231   C     0.34084   0.63922   0.80441   0.00000  Uiso   1.00
C232   C     0.32721   0.71967   0.86903   0.00000  Uiso   1.00
C233   C     0.30914   0.70068   0.94589   0.00000  Uiso   1.00
C234   C     0.29890   0.78464   0.99608   0.00000  Uiso   1.00
C235   C     0.27660   0.89444   0.10038   0.00000  Uiso   1.00
C236   C     0.37774   0.65843   0.83232   0.00000  Uiso   1.00
C237   C     0.40215   0.58794   0.87829   0.00000  Uiso   1.00
C238   C     0.43445   0.62036   0.89756   0.00000  Uiso   1.00
C239   C     0.49058   0.63506   0.94479   0.00000  Uiso   1.00
C240   C     0.32715   0.66490   0.67932   0.00000  Uiso   1.00
C241   C     0.30904   0.59985   0.59665   0.00000  Uiso   1.00
C242   C     0.29875   0.63770   0.48710   0.00000  Uiso   1.00
C243   C     0.27635   0.66245   0.29678   0.00000  Uiso   1.00
C244   C     0.35480   0.82211   0.75687   0.00000  Uiso   1.00
C245   C     0.33479   0.81900   0.84320   0.00000  Uiso   1.00
C246   C     0.32458   0.90302   0.89328   0.00000  Uiso   1.00
C247   C     0.30650   0.88415   0.97020   0.00000  Uiso   1.00
C248   C     0.38532   0.75776   0.80649   0.00000  Uiso   1.00
C249   C     0.41759   0.79028   0.82569   0.00000  Uiso   1.00
C250   C     0.44204   0.71987   0.87169   0.00000  Uiso   1.00
C251   C     0.33473   0.76424   0.65349   0.00000  Uiso   1.00
C252   C     0.32448   0.80219   0.54405   0.00000  Uiso   1.00
C253   C     0.30635   0.73722   0.46123   0.00000  Uiso   1.00
H254   H     0.33494   0.56188   0.82452   0.00000  Uiso   1.00
H255   H     0.30328   0.62379   0.96586   0.00000  Uiso   1.00
H256   H     0.39627   0.51107   0.89826   0.00000  Uiso   1.00
H257   H     0.30317   0.52298   0.61667   0.00000  Uiso   1.00
H258   H     0.27153   0.73623   0.11120   0.00000  Uiso   1.00
H259   H     0.46761   0.49855   0.96863   0.00000  Uiso   1.00
H260   H     0.27129   0.52366   0.37483   0.00000  Uiso   1.00
H261   H     0.36070   0.89945   0.73676   0.00000  Uiso   1.00
H262   H     0.33045   0.97988   0.87328   0.00000  Uiso   1.00
H263   H     0.42345   0.86716   0.80569   0.00000  Uiso   1.00
H264   H     0.33035   0.87907   0.52409   0.00000  Uiso   1.00
H265   H     0.29358   0.02525   0.03607   0.00000  Uiso   1.00
H266   H     0.48967   0.78756   0.89349   0.00000  Uiso   1.00
H267   H     0.29335   0.81267   0.29970   0.00000  Uiso   1.00
O268   O     0.26220   0.92756   0.16506   0.00000  Uiso   1.00
O269   O     0.51945   0.61572   0.97799   0.00000  Uiso   1.00
O270   O     0.26189   0.64867   0.19894   0.00000  Uiso   1.00
N271   N     0.28086   0.79321   0.07477   0.00000  Uiso   1.00
N272   N     0.46419   0.57100   0.94149   0.00000  Uiso   1.00
N273   N     0.28066   0.59446   0.38633   0.00000  Uiso   1.00
N274   N     0.29273   0.94873   0.03434   0.00000  Uiso   1.00
N275   N     0.47606   0.72652   0.90106   0.00000  Uiso   1.00
N276   N     0.29253   0.74998   0.34590   0.00000  Uiso   1.00
C277   C     0.15916   0.13922   0.69559   0.00000  Uiso   1.00
C278   C     0.17279   0.21967   0.63097   0.00000  Uiso   1.00
C279   C     0.19086   0.20068   0.55411   0.00000  Uiso   1.00
C280   C     0.20110   0.28464   0.50392   0.00000  Uiso   1.00
C281   C     0.22340   0.39444   0.39962   0.00000  Uiso   1.00
C282   C     0.12226   0.15843   0.66768   0.00000  Uiso   1.00
C283   C     0.09785   0.08794   0.62171   0.00000  Uiso   1.00
C284   C     0.06555   0.12036   0.60244   0.00000  Uiso   1.00
C285   C     0.00942   0.13506   0.55521   0.00000  Uiso   1.00
C286   C     0.17285   0.16490   0.82068   0.00000  Uiso   1.00
C287   C     0.19096   0.09985   0.90335   0.00000  Uiso   1.00
C288   C     0.20125   0.13770   0.01290   0.00000  Uiso   1.00
C289   C     0.22365   0.16245   0.20322   0.00000  Uiso   1.00
C290   C     0.14520   0.32211   0.74313   0.00000  Uiso   1.00
C291   C     0.16521   0.31900   0.65680   0.00000  Uiso   1.00
C292   C     0.17542   0.40302   0.60672   0.00000  Uiso   1.00
C293   C     0.19350   0.38415   0.52980   0.00000  Uiso   1.00
C294   C     0.11468   0.25776   0.69351   0.00000  Uiso   1.00
C295   C     0.08241   0.29028   0.67431   0.00000  Uiso   1.00
C296   C     0.05796   0.21987   0.62831   0.00000  Uiso   1.00
C297   C     0.16527   0.26424   0.84651   0.00000  Uiso   1.00
C298   C     0.17552   0.30219   0.95595   0.00000  Uiso   1.00
C299   C     0.19365   0.23722   0.03877   0.00000  Uiso   1.00
H300   H     0.16506   0.06188   0.67548   0.00000  Uiso   1.00
H301   H     0.19672   0.12379   0.53414   0.00000  Uiso   1.00
H302   H     0.10373   0.01107   0.60174   0.00000  Uiso   1.00
H303   H     0.19683   0.02298   0.88333   0.00000  Uiso   1.00
H304   H     0.22847   0.23623   0.38880   0.00000  Uiso   1.00
H305   H     0.03239   0.99855   0.53137   0.00000  Uiso   1.00
H306   H     0.22871   0.02366   0.12517   0.00000  Uiso   1.00
H307   H     0.13930   0.39945   0.76324   0.00000  Uiso   1.00
H308   H     0.16955   0.47988   0.62672   0.00000  Uiso   1.00
H309   H     0.07655   0.36716   0.69431   0.00000  Uiso   1.00
H310   H     0.16965   0.37907   0.97591   0.00000  Uiso   1.00
H311   H     0.20642   0.52525   0.46393   0.00000  Uiso   1.00
H312   H     0.01033   0.28756   0.60651   0.00000  Uiso   1.00
H313   H     0.20665   0.31267   0.20030   0.00000  Uiso   1.00
O314   O     0.23780   0.42756   0.33494   0.00000  Uiso   1.00
O315   O     0.98055   0.11572   0.52201   0.00000  Uiso   1.00
O316   O     0.23811   0.14867   0.30106   0.00000  Uiso   1.00
N317   N     0.21914   0.29321   0.42523   0.00000  Uiso   1.00
N318   N     0.03581   0.07100   0.55851   0.00000  Uiso   1.00
N319   N     0.21934   0.09446   0.11367   0.00000  Uiso   1.00
N320   N     0.20727   0.44873   0.46566   0.00000  Uiso   1.00
N321   N     0.02394   0.22652   0.59894   0.00000  Uiso   1.00
N322   N     0.20747   0.24998   0.15410   0.00000  Uiso   1.00
C323   C     0.65916   0.63922   0.69559   0.00000  Uiso   1.00
C324   C     0.67279   0.71967   0.63097   0.00000  Uiso   1.00
C325   C     0.69086   0.70068   0.55411   0.00000  Uiso   1.00
C326   C     0.70110   0.78464   0.50392   0.00000  Uiso   1.00
C327   C     0.72340   0.89444   0.39962   0.00000  Uiso   1.00
C328   C     0.62226   0.65843   0.66768   0.00000  Uiso   1.00
C329   C     0.59785   0.58794   0.62171   0.00000  Uiso   1.00
C330   C     0.56555   0.62036   0.60244   0.00000  Uiso   1.00
C331   C     0.50942   0.63506   0.55521   0.00000  Uiso   1.00
C332   C     0.67285   0.66490   0.82068   0.00000  Uiso   1.00
C333   C     0.69096   0.59985   0.90335   0.00000  Uiso   1.00
C334   C     0.70125   0.63770   0.01290   0.00000  Uiso   1.00
C335   C     0.72365   0.66245   0.20322   0.00000  Uiso   1.00
C336   C     0.64520   0.82211   0.74313   0.00000  Uiso   1.00
C337   C     0.66521   0.81900   0.65680   0.00000  Uiso   1.00
C338   C     0.67542   0.90302   0.60672   0.00000  Uiso   1.00
C339   C     0.69350   0.88415   0.52980   0.00000  Uiso   1.00
C340   C     0.61468   0.75776   0.69351   0.00000  Uiso   1.00
C341   C     0.58241   0.79028   0.67431   0.00000  Uiso   1.00
C342   C     0.55796   0.71987   0.62831   0.00000  Uiso   1.00
C343   C     0.66527   0.76424   0.84651   0.00000  Uiso   1.00
C344   C     0.67552   0.80219   0.95595   0.00000  Uiso   1.00
C345   C     0.69365   0.73722   0.03877   0.00000  Uiso   1.00
H346   H     0.66506   0.56188   0.67548   0.00000  Uiso   1.00
H347   H     0.69672   0.62379   0.53414   0.00000  Uiso   1.00
H348   H     0.60373   0.51107   0.60174   0.00000  Uiso   1.00
H349   H     0.69683   0.52298   0.88333   0.00000  Uiso   1.00
H350   H     0.72847   0.73623   0.38880   0.00000  Uiso   1.00
H351   H     0.53239   0.49855   0.53137   0.00000  Uiso   1.00
H352   H     0.72871   0.52366   0.12517   0.00000  Uiso   1.00
H353   H     0.63930   0.89945   0.76324   0.00000  Uiso   1.00
H354   H     0.66955   0.97988   0.62672   0.00000  Uiso   1.00
H355   H     0.57655   0.86716   0.69431   0.00000  Uiso   1.00
H356   H     0.66965   0.87907   0.97591   0.00000  Uiso   1.00
H357   H     0.70642   0.02525   0.46393   0.00000  Uiso   1.00
H358   H     0.51033   0.78756   0.60651   0.00000  Uiso   1.00
H359   H     0.70665   0.81267   0.20030   0.00000  Uiso   1.00
O360   O     0.73780   0.92756   0.33494   0.00000  Uiso   1.00
O361   O     0.48055   0.61572   0.52201   0.00000  Uiso   1.00
O362   O     0.73811   0.64867   0.30106   0.00000  Uiso   1.00
N363   N     0.71914   0.79321   0.42523   0.00000  Uiso   1.00
N364   N     0.53581   0.57100   0.55851   0.00000  Uiso   1.00
N365   N     0.71934   0.59446   0.11367   0.00000  Uiso   1.00
N366   N     0.70727   0.94873   0.46566   0.00000  Uiso   1.00
N367   N     0.52394   0.72652   0.59894   0.00000  Uiso   1.00
N368   N     0.70747   0.74998   0.15410   0.00000  Uiso   1.00
