data_job_03115
_audit_creation_date              2018-12-19
_audit_creation_method            'Materials Studio'
_symmetry_space_group_name_H-M    'P1'
_symmetry_Int_Tables_number       1
_symmetry_cell_setting            triclinic
loop_
_symmetry_equiv_pos_as_xyz
  x,y,z
_cell_length_a                    10.8704
_cell_length_b                    14.8702
_cell_length_c                    7.5016
_cell_angle_alpha                 90.0000
_cell_angle_beta                  79.2293
_cell_angle_gamma                 90.0000
loop_
_atom_site_label
_atom_site_type_symbol
_atom_site_fract_x
_atom_site_fract_y
_atom_site_fract_z
_atom_site_U_iso_or_equiv
_atom_site_adp_type
_atom_site_occupancy
C1     C     0.53463   0.61045   0.66409   0.00000  Uiso   1.00
C2     C     0.57114   0.65719   0.48088   0.00000  Uiso   1.00
C3     C     0.63198   0.73937   0.45073   0.00000  Uiso   1.00
C4     C     0.65704   0.77068   0.27327   0.00000  Uiso   1.00
C5     C     0.71894   0.85075   0.01043   0.00000  Uiso   1.00
C6     C     0.39380   0.59445   0.69101   0.00000  Uiso   1.00
C7     C     0.30554   0.62388   0.83754   0.00000  Uiso   1.00
C8     C     0.18132   0.60237   0.83698   0.00000  Uiso   1.00
C9     C     0.96790   0.58498   0.90042   0.00000  Uiso   1.00
C10    C     0.59531   0.51769   0.64115   0.00000  Uiso   1.00
C11    C     0.67646   0.48255   0.74579   0.00000  Uiso   1.00
C12    C     0.72188   0.39639   0.70328   0.00000  Uiso   1.00
C13    C     0.82134   0.25981   0.68930   0.00000  Uiso   1.00
C14    C     0.47097   0.51993   0.40255   0.00000  Uiso   1.00
C15    C     0.53656   0.60802   0.33883   0.00000  Uiso   1.00
C16    C     0.56155   0.63921   0.16137   0.00000  Uiso   1.00
C17    C     0.62241   0.72142   0.13096   0.00000  Uiso   1.00
C18    C     0.35922   0.54528   0.54896   0.00000  Uiso   1.00
C19    C     0.23511   0.52372   0.54818   0.00000  Uiso   1.00
C20    C     0.14668   0.55311   0.69467   0.00000  Uiso   1.00
C21    C     0.56074   0.46851   0.49909   0.00000  Uiso   1.00
C22    C     0.60603   0.38239   0.45642   0.00000  Uiso   1.00
C23    C     0.68723   0.34713   0.56097   0.00000  Uiso   1.00
H24    H     0.56154   0.64873   0.77469   0.00000  Uiso   1.00
H25    H     0.65871   0.77740   0.56071   0.00000  Uiso   1.00
H26    H     0.33233   0.66192   0.94746   0.00000  Uiso   1.00
H27    H     0.70319   0.52062   0.85571   0.00000  Uiso   1.00
H28    H     0.75115   0.89839   0.26083   0.00000  Uiso   1.00
H29    H     0.06296   0.65486   0.07635   0.00000  Uiso   1.00
H30    H     0.84500   0.35689   0.88289   0.00000  Uiso   1.00
H31    H     0.44405   0.48164   0.29195   0.00000  Uiso   1.00
H32    H     0.53478   0.60115   0.05147   0.00000  Uiso   1.00
H33    H     0.20839   0.48566   0.43823   0.00000  Uiso   1.00
H34    H     0.57925   0.34436   0.34648   0.00000  Uiso   1.00
H35    H     0.65055   0.75534   0.84751   0.00000  Uiso   1.00
H36    H     0.96236   0.51180   0.66305   0.00000  Uiso   1.00
H37    H     0.74440   0.21384   0.46957   0.00000  Uiso   1.00
O38    O     0.76261   0.90851   0.90469   0.00000  Uiso   1.00
O39    O     0.85974   0.58899   0.97465   0.00000  Uiso   1.00
O40    O     0.88576   0.19807   0.72082   0.00000  Uiso   1.00
N41    N     0.71505   0.84831   0.19655   0.00000  Uiso   1.00
N42    N     0.07162   0.62064   0.95901   0.00000  Uiso   1.00
N43    N     0.80274   0.34206   0.77817   0.00000  Uiso   1.00
N44    N     0.66092   0.77134   0.97415   0.00000  Uiso   1.00
N45    N     0.01749   0.54366   0.73661   0.00000  Uiso   1.00
N46    N     0.74861   0.26508   0.55576   0.00000  Uiso   1.00
C47    C     0.46537   0.11045   0.33591   0.00000  Uiso   1.00
C48    C     0.42886   0.15719   0.51912   0.00000  Uiso   1.00
C49    C     0.36802   0.23937   0.54927   0.00000  Uiso   1.00
C50    C     0.34296   0.27068   0.72673   0.00000  Uiso   1.00
C51    C     0.28106   0.35075   0.98957   0.00000  Uiso   1.00
C52    C     0.60620   0.09445   0.30899   0.00000  Uiso   1.00
C53    C     0.69446   0.12388   0.16246   0.00000  Uiso   1.00
C54    C     0.81868   0.10237   0.16302   0.00000  Uiso   1.00
C55    C     0.03210   0.08498   0.09958   0.00000  Uiso   1.00
C56    C     0.40469   0.01769   0.35885   0.00000  Uiso   1.00
C57    C     0.32354   0.98255   0.25421   0.00000  Uiso   1.00
C58    C     0.27812   0.89639   0.29672   0.00000  Uiso   1.00
C59    C     0.17866   0.75981   0.31070   0.00000  Uiso   1.00
C60    C     0.52903   0.01993   0.59745   0.00000  Uiso   1.00
C61    C     0.46344   0.10802   0.66117   0.00000  Uiso   1.00
C62    C     0.43845   0.13921   0.83863   0.00000  Uiso   1.00
C63    C     0.37759   0.22142   0.86904   0.00000  Uiso   1.00
C64    C     0.64078   0.04528   0.45104   0.00000  Uiso   1.00
C65    C     0.76489   0.02372   0.45182   0.00000  Uiso   1.00
C66    C     0.85332   0.05311   0.30533   0.00000  Uiso   1.00
C67    C     0.43926   0.96851   0.50091   0.00000  Uiso   1.00
C68    C     0.39397   0.88239   0.54358   0.00000  Uiso   1.00
C69    C     0.31277   0.84713   0.43903   0.00000  Uiso   1.00
H70    H     0.43846   0.14873   0.22531   0.00000  Uiso   1.00
H71    H     0.34129   0.27740   0.43929   0.00000  Uiso   1.00
H72    H     0.66767   0.16192   0.05254   0.00000  Uiso   1.00
H73    H     0.29681   0.02062   0.14429   0.00000  Uiso   1.00
H74    H     0.24885   0.39839   0.73917   0.00000  Uiso   1.00
H75    H     0.93704   0.15486   0.92365   0.00000  Uiso   1.00
H76    H     0.15500   0.85689   0.11711   0.00000  Uiso   1.00
H77    H     0.55595   0.98164   0.70805   0.00000  Uiso   1.00
H78    H     0.46522   0.10115   0.94853   0.00000  Uiso   1.00
H79    H     0.79161   0.98566   0.56177   0.00000  Uiso   1.00
H80    H     0.42075   0.84436   0.65352   0.00000  Uiso   1.00
H81    H     0.34945   0.25534   0.15249   0.00000  Uiso   1.00
H82    H     0.03764   0.01180   0.33695   0.00000  Uiso   1.00
H83    H     0.25560   0.71384   0.53043   0.00000  Uiso   1.00
O84    O     0.23739   0.40851   0.09531   0.00000  Uiso   1.00
O85    O     0.14026   0.08899   0.02535   0.00000  Uiso   1.00
O86    O     0.11424   0.69807   0.27918   0.00000  Uiso   1.00
N87    N     0.28495   0.34831   0.80345   0.00000  Uiso   1.00
N88    N     0.92838   0.12064   0.04099   0.00000  Uiso   1.00
N89    N     0.19726   0.84206   0.22183   0.00000  Uiso   1.00
N90    N     0.33908   0.27134   0.02585   0.00000  Uiso   1.00
N91    N     0.98251   0.04366   0.26339   0.00000  Uiso   1.00
N92    N     0.25139   0.76508   0.44424   0.00000  Uiso   1.00
