data_job_05263
_audit_creation_date              2018-12-19
_audit_creation_method            'Materials Studio'
_symmetry_space_group_name_H-M    'P1'
_symmetry_Int_Tables_number       1
_symmetry_cell_setting            triclinic
loop_
_symmetry_equiv_pos_as_xyz
  x,y,z
_cell_length_a                    12.1540
_cell_length_b                    28.5478
_cell_length_c                    11.6293
_cell_angle_alpha                 90.0000
_cell_angle_beta                  125.0340
_cell_angle_gamma                 90.0000
loop_
_atom_site_label
_atom_site_type_symbol
_atom_site_fract_x
_atom_site_fract_y
_atom_site_fract_z
_atom_site_U_iso_or_equiv
_atom_site_adp_type
_atom_site_occupancy
C1     C     0.50241   0.63204   0.22034   0.00000  Uiso   1.00
C2     C     0.48417   0.60351   0.31915   0.00000  Uiso   1.00
C3     C     0.37162   0.57725   0.28006   0.00000  Uiso   1.00
C4     C     0.37449   0.55366   0.38615   0.00000  Uiso   1.00
C5     C     0.32919   0.50898   0.51828   0.00000  Uiso   1.00
C6     C     0.53285   0.68197   0.27727   0.00000  Uiso   1.00
C7     C     0.46123   0.72168   0.20295   0.00000  Uiso   1.00
C8     C     0.50509   0.76414   0.27378   0.00000  Uiso   1.00
C9     C     0.53543   0.84128   0.34084   0.00000  Uiso   1.00
C10    C     0.63084   0.61394   0.24137   0.00000  Uiso   1.00
C11    C     0.64162   0.59647   0.13686   0.00000  Uiso   1.00
C12    C     0.76799   0.58166   0.17746   0.00000  Uiso   1.00
C13    C     0.95046   0.55317   0.18878   0.00000  Uiso   1.00
C14    C     0.70765   0.63684   0.47827   0.00000  Uiso   1.00
C15    C     0.59565   0.60612   0.45925   0.00000  Uiso   1.00
C16    C     0.59870   0.58256   0.56543   0.00000  Uiso   1.00
C17    C     0.48617   0.55627   0.52650   0.00000  Uiso   1.00
C18    C     0.64433   0.68458   0.41736   0.00000  Uiso   1.00
C19    C     0.68831   0.72699   0.48831   0.00000  Uiso   1.00
C20    C     0.61677   0.76675   0.41413   0.00000  Uiso   1.00
C21    C     0.74232   0.61655   0.38146   0.00000  Uiso   1.00
C22    C     0.86869   0.60177   0.42223   0.00000  Uiso   1.00
C23    C     0.87966   0.58427   0.31781   0.00000  Uiso   1.00
H24    H     0.41562   0.63002   0.11128   0.00000  Uiso   1.00
H25    H     0.28536   0.57525   0.17164   0.00000  Uiso   1.00
H26    H     0.37498   0.71966   0.09453   0.00000  Uiso   1.00
H27    H     0.55533   0.59446   0.02846   0.00000  Uiso   1.00
H28    H     0.19010   0.51569   0.30035   0.00000  Uiso   1.00
H29    H     0.37908   0.82018   0.13776   0.00000  Uiso   1.00
H30    H     0.75939   0.55617   0.99842   0.00000  Uiso   1.00
H31    H     0.79444   0.63887   0.58734   0.00000  Uiso   1.00
H32    H     0.68498   0.58458   0.67383   0.00000  Uiso   1.00
H33    H     0.77459   0.72899   0.59672   0.00000  Uiso   1.00
H34    H     0.95494   0.60379   0.53065   0.00000  Uiso   1.00
H35    H     0.51444   0.52326   0.70795   0.00000  Uiso   1.00
H36    H     0.70342   0.82776   0.54535   0.00000  Uiso   1.00
H37    H     0.08373   0.56375   0.40602   0.00000  Uiso   1.00
O38    O     0.27341   0.48362   0.55246   0.00000  Uiso   1.00
O39    O     0.52135   0.88310   0.33913   0.00000  Uiso   1.00
O40    O     0.02031   0.53672   0.15633   0.00000  Uiso   1.00
N41    N     0.28147   0.52491   0.38440   0.00000  Uiso   1.00
N42    N     0.45814   0.80960   0.23239   0.00000  Uiso   1.00
N43    N     0.81370   0.56278   0.10212   0.00000  Uiso   1.00
N44    N     0.45599   0.52899   0.60373   0.00000  Uiso   1.00
N45    N     0.63266   0.81367   0.45172   0.00000  Uiso   1.00
N46    N     0.98823   0.56686   0.32145   0.00000  Uiso   1.00
C47    C     0.37261   0.36437   0.22803   0.00000  Uiso   1.00
C48    C     0.38988   0.39036   0.12479   0.00000  Uiso   1.00
C49    C     0.50063   0.41698   0.15983   0.00000  Uiso   1.00
C50    C     0.49714   0.43797   0.05008   0.00000  Uiso   1.00
C51    C     0.54077   0.47914   0.91103   0.00000  Uiso   1.00
C52    C     0.34661   0.31331   0.18094   0.00000  Uiso   1.00
C53    C     0.42097   0.27515   0.26319   0.00000  Uiso   1.00
C54    C     0.38104   0.23127   0.20070   0.00000  Uiso   1.00
C55    C     0.35743   0.15282   0.14884   0.00000  Uiso   1.00
C56    C     0.24213   0.38252   0.20208   0.00000  Uiso   1.00
C57    C     0.22863   0.40254   0.30212   0.00000  Uiso   1.00
C58    C     0.10073   0.41692   0.25743   0.00000  Uiso   1.00
C59    C     0.91490   0.44593   0.23841   0.00000  Uiso   1.00
C60    C     0.16945   0.35430   0.97080   0.00000  Uiso   1.00
C61    C     0.27953   0.38489   0.98508   0.00000  Uiso   1.00
C62    C     0.27586   0.40584   0.87524   0.00000  Uiso   1.00
C63    C     0.38660   0.43249   0.91011   0.00000  Uiso   1.00
C64    C     0.23626   0.30784   0.04122   0.00000  Uiso   1.00
C65    C     0.19620   0.26401   0.97860   0.00000  Uiso   1.00
C66    C     0.27049   0.22579   0.06073   0.00000  Uiso   1.00
C67    C     0.13178   0.37705   0.06236   0.00000  Uiso   1.00
C68    C     0.00386   0.39140   0.01752   0.00000  Uiso   1.00
C69    C     0.99018   0.41144   0.11746   0.00000  Uiso   1.00
H70    H     0.45852   0.36862   0.33680   0.00000  Uiso   1.00
H71    H     0.58602   0.42120   0.26797   0.00000  Uiso   1.00
H72    H     0.50635   0.27939   0.37131   0.00000  Uiso   1.00
H73    H     0.31405   0.40677   0.41023   0.00000  Uiso   1.00
H74    H     0.67873   0.47707   0.13004   0.00000  Uiso   1.00
H75    H     0.51073   0.17806   0.34796   0.00000  Uiso   1.00
H76    H     0.10522   0.44665   0.43002   0.00000  Uiso   1.00
H77    H     0.08353   0.35004   0.86202   0.00000  Uiso   1.00
H78    H     0.19046   0.40160   0.76713   0.00000  Uiso   1.00
H79    H     0.11080   0.25979   0.87048   0.00000  Uiso   1.00
H80    H     0.91849   0.38716   0.90939   0.00000  Uiso   1.00
H81    H     0.35768   0.46116   0.72353   0.00000  Uiso   1.00
H82    H     0.18968   0.16215   0.94146   0.00000  Uiso   1.00
H83    H     0.78417   0.43074   0.02352   0.00000  Uiso   1.00
O84    O     0.59533   0.50336   0.87292   0.00000  Uiso   1.00
O85    O     0.37490   0.11107   0.15884   0.00000  Uiso   1.00
O86    O     0.84288   0.46345   0.26650   0.00000  Uiso   1.00
N87    N     0.58849   0.46626   0.04739   0.00000  Uiso   1.00
N88    N     0.43143   0.18670   0.25113   0.00000  Uiso   1.00
N89    N     0.05230   0.43780   0.32786   0.00000  Uiso   1.00
N90    N     0.41573   0.45770   0.82865   0.00000  Uiso   1.00
N91    N     0.25867   0.17814   0.03239   0.00000  Uiso   1.00
N92    N     0.87955   0.42924   0.10912   0.00000  Uiso   1.00
C93    C     0.49759   0.13204   0.77966   0.00000  Uiso   1.00
C94    C     0.51583   0.10351   0.68085   0.00000  Uiso   1.00
C95    C     0.62838   0.07725   0.71994   0.00000  Uiso   1.00
C96    C     0.62551   0.05366   0.61385   0.00000  Uiso   1.00
C97    C     0.67081   0.00898   0.48172   0.00000  Uiso   1.00
C98    C     0.46715   0.18197   0.72273   0.00000  Uiso   1.00
C99    C     0.53877   0.22168   0.79705   0.00000  Uiso   1.00
C100   C     0.49491   0.26414   0.72622   0.00000  Uiso   1.00
C101   C     0.46457   0.34128   0.65916   0.00000  Uiso   1.00
C102   C     0.36916   0.11394   0.75863   0.00000  Uiso   1.00
C103   C     0.35838   0.09647   0.86314   0.00000  Uiso   1.00
C104   C     0.23201   0.08166   0.82254   0.00000  Uiso   1.00
C105   C     0.04954   0.05317   0.81122   0.00000  Uiso   1.00
C106   C     0.29235   0.13684   0.52173   0.00000  Uiso   1.00
C107   C     0.40435   0.10612   0.54075   0.00000  Uiso   1.00
C108   C     0.40130   0.08256   0.43457   0.00000  Uiso   1.00
C109   C     0.51383   0.05627   0.47350   0.00000  Uiso   1.00
C110   C     0.35567   0.18458   0.58264   0.00000  Uiso   1.00
C111   C     0.31169   0.22699   0.51169   0.00000  Uiso   1.00
C112   C     0.38323   0.26675   0.58587   0.00000  Uiso   1.00
C113   C     0.25768   0.11655   0.61854   0.00000  Uiso   1.00
C114   C     0.13131   0.10177   0.57777   0.00000  Uiso   1.00
C115   C     0.12034   0.08427   0.68219   0.00000  Uiso   1.00
H116   H     0.58438   0.13002   0.88872   0.00000  Uiso   1.00
H117   H     0.71464   0.07525   0.82836   0.00000  Uiso   1.00
H118   H     0.62502   0.21966   0.90547   0.00000  Uiso   1.00
H119   H     0.44467   0.09446   0.97154   0.00000  Uiso   1.00
H120   H     0.80990   0.01569   0.69965   0.00000  Uiso   1.00
H121   H     0.62092   0.32018   0.86224   0.00000  Uiso   1.00
H122   H     0.24061   0.05617   0.00158   0.00000  Uiso   1.00
H123   H     0.20556   0.13887   0.41266   0.00000  Uiso   1.00
H124   H     0.31502   0.08458   0.32617   0.00000  Uiso   1.00
H125   H     0.22541   0.22899   0.40328   0.00000  Uiso   1.00
H126   H     0.04506   0.10379   0.46935   0.00000  Uiso   1.00
H127   H     0.48556   0.02326   0.29205   0.00000  Uiso   1.00
H128   H     0.29658   0.32776   0.45465   0.00000  Uiso   1.00
H129   H     0.91627   0.06375   0.59398   0.00000  Uiso   1.00
O130   O     0.72659   0.98362   0.44754   0.00000  Uiso   1.00
O131   O     0.47865   0.38310   0.66087   0.00000  Uiso   1.00
O132   O     0.97969   0.03672   0.84367   0.00000  Uiso   1.00
N133   N     0.71853   0.02491   0.61560   0.00000  Uiso   1.00
N134   N     0.54186   0.30960   0.76761   0.00000  Uiso   1.00
N135   N     0.18630   0.06278   0.89788   0.00000  Uiso   1.00
N136   N     0.54401   0.02899   0.39627   0.00000  Uiso   1.00
N137   N     0.36734   0.31367   0.54828   0.00000  Uiso   1.00
N138   N     0.01177   0.06686   0.67855   0.00000  Uiso   1.00
C139   C     0.62739   0.86437   0.77197   0.00000  Uiso   1.00
C140   C     0.61012   0.89036   0.87521   0.00000  Uiso   1.00
C141   C     0.49937   0.91698   0.84017   0.00000  Uiso   1.00
C142   C     0.50286   0.93797   0.94992   0.00000  Uiso   1.00
C143   C     0.45923   0.97914   0.08897   0.00000  Uiso   1.00
C144   C     0.65339   0.81331   0.81906   0.00000  Uiso   1.00
C145   C     0.57903   0.77515   0.73681   0.00000  Uiso   1.00
C146   C     0.61896   0.73127   0.79930   0.00000  Uiso   1.00
C147   C     0.64257   0.65282   0.85116   0.00000  Uiso   1.00
C148   C     0.75787   0.88252   0.79792   0.00000  Uiso   1.00
C149   C     0.77137   0.90254   0.69788   0.00000  Uiso   1.00
C150   C     0.89927   0.91692   0.74257   0.00000  Uiso   1.00
C151   C     0.08510   0.94593   0.76159   0.00000  Uiso   1.00
C152   C     0.83055   0.85430   0.02920   0.00000  Uiso   1.00
C153   C     0.72047   0.88489   0.01492   0.00000  Uiso   1.00
C154   C     0.72414   0.90584   0.12476   0.00000  Uiso   1.00
C155   C     0.61340   0.93249   0.08989   0.00000  Uiso   1.00
C156   C     0.76374   0.80784   0.95878   0.00000  Uiso   1.00
C157   C     0.80380   0.76401   0.02140   0.00000  Uiso   1.00
C158   C     0.72951   0.72579   0.93927   0.00000  Uiso   1.00
C159   C     0.86822   0.87705   0.93764   0.00000  Uiso   1.00
C160   C     0.99614   0.89140   0.98248   0.00000  Uiso   1.00
C161   C     0.00982   0.91144   0.88254   0.00000  Uiso   1.00
H162   H     0.54148   0.86862   0.66320   0.00000  Uiso   1.00
H163   H     0.41398   0.92120   0.73203   0.00000  Uiso   1.00
H164   H     0.49365   0.77939   0.62869   0.00000  Uiso   1.00
H165   H     0.68595   0.90677   0.58977   0.00000  Uiso   1.00
H166   H     0.32127   0.97707   0.86996   0.00000  Uiso   1.00
H167   H     0.48927   0.67806   0.65204   0.00000  Uiso   1.00
H168   H     0.89478   0.94665   0.56998   0.00000  Uiso   1.00
H169   H     0.91647   0.85004   0.13798   0.00000  Uiso   1.00
H170   H     0.80954   0.90160   0.23287   0.00000  Uiso   1.00
H171   H     0.88920   0.75979   0.12952   0.00000  Uiso   1.00
H172   H     0.08151   0.88716   0.09061   0.00000  Uiso   1.00
H173   H     0.64232   0.96116   0.27647   0.00000  Uiso   1.00
H174   H     0.81032   0.66215   0.05854   0.00000  Uiso   1.00
H175   H     0.21583   0.93074   0.97648   0.00000  Uiso   1.00
O176   O     0.40467   0.00336   0.12708   0.00000  Uiso   1.00
O177   O     0.62510   0.61107   0.84116   0.00000  Uiso   1.00
O178   O     0.15712   0.96345   0.73350   0.00000  Uiso   1.00
N179   N     0.41151   0.96626   0.95261   0.00000  Uiso   1.00
N180   N     0.56857   0.68670   0.74887   0.00000  Uiso   1.00
N181   N     0.94770   0.93780   0.67214   0.00000  Uiso   1.00
N182   N     0.58427   0.95770   0.17135   0.00000  Uiso   1.00
N183   N     0.74133   0.67814   0.96761   0.00000  Uiso   1.00
N184   N     0.12045   0.92924   0.89088   0.00000  Uiso   1.00
