data_job_06463
_audit_creation_date              2018-12-19
_audit_creation_method            'Materials Studio'
_symmetry_space_group_name_H-M    'P1'
_symmetry_Int_Tables_number       1
_symmetry_cell_setting            triclinic
loop_
_symmetry_equiv_pos_as_xyz
  x,y,z
_cell_length_a                    18.6952
_cell_length_b                    20.6106
_cell_length_c                    22.3325
_cell_angle_alpha                 68.7632
_cell_angle_beta                  86.1316
_cell_angle_gamma                 64.3905
loop_
_atom_site_label
_atom_site_type_symbol
_atom_site_fract_x
_atom_site_fract_y
_atom_site_fract_z
_atom_site_U_iso_or_equiv
_atom_site_adp_type
_atom_site_occupancy
C1     C     0.56214   0.00936   0.19238   0.00000  Uiso   1.00
C2     C     0.60992   0.03282   0.13760   0.00000  Uiso   1.00
C3     C     0.58203   0.10278   0.08536   0.00000  Uiso   1.00
C4     C     0.63501   0.11310   0.04039   0.00000  Uiso   1.00
C5     C     0.69731   0.15827   0.95424   0.00000  Uiso   1.00
C6     C     0.56502   0.93372   0.19385   0.00000  Uiso   1.00
C7     C     0.49939   0.92036   0.18891   0.00000  Uiso   1.00
C8     C     0.51457   0.84725   0.19131   0.00000  Uiso   1.00
C9     C     0.50717   0.73854   0.19254   0.00000  Uiso   1.00
C10    C     0.60994   0.98885   0.25463   0.00000  Uiso   1.00
C11    C     0.58206   0.02184   0.30080   0.00000  Uiso   1.00
C12    C     0.63506   0.99514   0.35438   0.00000  Uiso   1.00
C13    C     0.69740   0.97204   0.44997   0.00000  Uiso   1.00
C14    C     0.70582   0.90327   0.20544   0.00000  Uiso   1.00
C15    C     0.68796   0.97519   0.14470   0.00000  Uiso   1.00
C16    C     0.74099   0.98541   0.09980   0.00000  Uiso   1.00
C17    C     0.71319   0.05538   0.04750   0.00000  Uiso   1.00
C18    C     0.64306   0.87609   0.20095   0.00000  Uiso   1.00
C19    C     0.65835   0.80298   0.20336   0.00000  Uiso   1.00
C20    C     0.59275   0.78952   0.19842   0.00000  Uiso   1.00
C21    C     0.68798   0.93123   0.26172   0.00000  Uiso   1.00
C22    C     0.74103   0.90447   0.31525   0.00000  Uiso   1.00
C23    C     0.71324   0.93741   0.36149   0.00000  Uiso   1.00
H24    H     0.50138   0.05422   0.18686   0.00000  Uiso   1.00
H25    H     0.52163   0.14736   0.07988   0.00000  Uiso   1.00
H26    H     0.43900   0.96496   0.18343   0.00000  Uiso   1.00
H27    H     0.52167   0.06643   0.29530   0.00000  Uiso   1.00
H28    H     0.57848   0.22519   0.96439   0.00000  Uiso   1.00
H29    H     0.40426   0.84059   0.18275   0.00000  Uiso   1.00
H30    H     0.57858   0.05456   0.41865   0.00000  Uiso   1.00
H31    H     0.76658   0.85841   0.21096   0.00000  Uiso   1.00
H32    H     0.80138   0.94080   0.10531   0.00000  Uiso   1.00
H33    H     0.71875   0.75840   0.20885   0.00000  Uiso   1.00
H34    H     0.80142   0.85988   0.32072   0.00000  Uiso   1.00
H35    H     0.80554   0.05755   0.98503   0.00000  Uiso   1.00
H36    H     0.63131   0.67294   0.20338   0.00000  Uiso   1.00
H37    H     0.80563   0.88691   0.43928   0.00000  Uiso   1.00
O38    O     0.71011   0.19909   0.90476   0.00000  Uiso   1.00
O39    O     0.48153   0.69450   0.19125   0.00000  Uiso   1.00
O40    O     0.71024   0.97523   0.50073   0.00000  Uiso   1.00
N41    N     0.62715   0.17444   0.98376   0.00000  Uiso   1.00
N42    N     0.46426   0.81486   0.18789   0.00000  Uiso   1.00
N43    N     0.62723   0.01489   0.40845   0.00000  Uiso   1.00
N44    N     0.74933   0.08423   0.99486   0.00000  Uiso   1.00
N45    N     0.58643   0.72465   0.19900   0.00000  Uiso   1.00
N46    N     0.74940   0.92468   0.41955   0.00000  Uiso   1.00
C47    C     0.27842   0.84156   0.40108   0.00000  Uiso   1.00
C48    C     0.20019   0.83737   0.39373   0.00000  Uiso   1.00
C49    C     0.14878   0.83149   0.44105   0.00000  Uiso   1.00
C50    C     0.08023   0.82839   0.42484   0.00000  Uiso   1.00
C51    C     0.96127   0.82143   0.42277   0.00000  Uiso   1.00
C52    C     0.34267   0.77498   0.38509   0.00000  Uiso   1.00
C53    C     0.41105   0.71666   0.42513   0.00000  Uiso   1.00
C54    C     0.46245   0.66105   0.40163   0.00000  Uiso   1.00
C55    C     0.56472   0.55727   0.38612   0.00000  Uiso   1.00
C56    C     0.27164   0.91570   0.34704   0.00000  Uiso   1.00
C57    C     0.28033   0.97570   0.35508   0.00000  Uiso   1.00
C58    C     0.27195   0.03856   0.29955   0.00000  Uiso   1.00
C59    C     0.26395   0.15328   0.22497   0.00000  Uiso   1.00
C60    C     0.24811   0.84651   0.28816   0.00000  Uiso   1.00
C61    C     0.18373   0.84006   0.33240   0.00000  Uiso   1.00
C62    C     0.11523   0.83697   0.31611   0.00000  Uiso   1.00
C63    C     0.06373   0.83109   0.36339   0.00000  Uiso   1.00
C64    C     0.32620   0.77767   0.32375   0.00000  Uiso   1.00
C65    C     0.37751   0.72214   0.30019   0.00000  Uiso   1.00
C66    C     0.44595   0.66374   0.34019   0.00000  Uiso   1.00
C67    C     0.25518   0.91840   0.28570   0.00000  Uiso   1.00
C68    C     0.24679   0.98118   0.23015   0.00000  Uiso   1.00
C69    C     0.25545   0.04126   0.23811   0.00000  Uiso   1.00
H70    H     0.29125   0.83946   0.44883   0.00000  Uiso   1.00
H71    H     0.16155   0.82940   0.48851   0.00000  Uiso   1.00
H72    H     0.42378   0.71459   0.47259   0.00000  Uiso   1.00
H73    H     0.29308   0.97359   0.40256   0.00000  Uiso   1.00
H74    H     0.01050   0.81941   0.50546   0.00000  Uiso   1.00
H75    H     0.56345   0.57734   0.47188   0.00000  Uiso   1.00
H76    H     0.28784   0.12350   0.32420   0.00000  Uiso   1.00
H77    H     0.23529   0.84860   0.24040   0.00000  Uiso   1.00
H78    H     0.10251   0.83905   0.26864   0.00000  Uiso   1.00
H79    H     0.36475   0.72424   0.25272   0.00000  Uiso   1.00
H80    H     0.23404   0.98324   0.18269   0.00000  Uiso   1.00
H81    H     0.96258   0.82724   0.32701   0.00000  Uiso   1.00
H82    H     0.51554   0.58517   0.29343   0.00000  Uiso   1.00
H83    H     0.23992   0.13133   0.14575   0.00000  Uiso   1.00
O84    O     0.90022   0.81685   0.43858   0.00000  Uiso   1.00
O85    O     0.62568   0.49928   0.39452   0.00000  Uiso   1.00
O86    O     0.26407   0.21582   0.20077   0.00000  Uiso   1.00
N87    N     0.01743   0.82258   0.45958   0.00000  Uiso   1.00
N88    N     0.53441   0.59625   0.42819   0.00000  Uiso   1.00
N89    N     0.27675   0.10686   0.29012   0.00000  Uiso   1.00
N90    N     0.99165   0.82679   0.36356   0.00000  Uiso   1.00
N91    N     0.50863   0.60047   0.33217   0.00000  Uiso   1.00
N92    N     0.25097   0.11107   0.19410   0.00000  Uiso   1.00
C93    C     0.79434   0.67707   0.50539   0.00000  Uiso   1.00
C94    C     0.84490   0.60673   0.56425   0.00000  Uiso   1.00
C95    C     0.91429   0.59518   0.59433   0.00000  Uiso   1.00
C96    C     0.95183   0.52703   0.64751   0.00000  Uiso   1.00
C97    C     0.03504   0.42610   0.73549   0.00000  Uiso   1.00
C98    C     0.78880   0.64555   0.45463   0.00000  Uiso   1.00
C99    C     0.81102   0.66666   0.39253   0.00000  Uiso   1.00
C100   C     0.80131   0.63120   0.35343   0.00000  Uiso   1.00
C101   C     0.79738   0.59058   0.27121   0.00000  Uiso   1.00
C102   C     0.71043   0.71006   0.52536   0.00000  Uiso   1.00
C103   C     0.66675   0.78541   0.52273   0.00000  Uiso   1.00
C104   C     0.59105   0.80426   0.54318   0.00000  Uiso   1.00
C105   C     0.46545   0.86380   0.57079   0.00000  Uiso   1.00
C106   C     0.73758   0.57659   0.54635   0.00000  Uiso   1.00
C107   C     0.81407   0.55215   0.58649   0.00000  Uiso   1.00
C108   C     0.85150   0.48401   0.63965   0.00000  Uiso   1.00
C109   C     0.92094   0.47236   0.66980   0.00000  Uiso   1.00
C110   C     0.75797   0.59098   0.47687   0.00000  Uiso   1.00
C111   C     0.74823   0.55549   0.43785   0.00000  Uiso   1.00
C112   C     0.77043   0.57652   0.37572   0.00000  Uiso   1.00
C113   C     0.67960   0.65548   0.54761   0.00000  Uiso   1.00
C114   C     0.60396   0.67423   0.56806   0.00000  Uiso   1.00
C115   C     0.56017   0.74959   0.56546   0.00000  Uiso   1.00
H116   H     0.81834   0.71956   0.48807   0.00000  Uiso   1.00
H117   H     0.93814   0.63743   0.57709   0.00000  Uiso   1.00
H118   H     0.83486   0.70890   0.37533   0.00000  Uiso   1.00
H119   H     0.69062   0.82762   0.50551   0.00000  Uiso   1.00
H120   H     0.05738   0.52229   0.68559   0.00000  Uiso   1.00
H121   H     0.83960   0.67301   0.26015   0.00000  Uiso   1.00
H122   H     0.53543   0.92337   0.53467   0.00000  Uiso   1.00
H123   H     0.71358   0.53410   0.56367   0.00000  Uiso   1.00
H124   H     0.82763   0.44178   0.65685   0.00000  Uiso   1.00
H125   H     0.72437   0.51326   0.45508   0.00000  Uiso   1.00
H126   H     0.58012   0.63198   0.58527   0.00000  Uiso   1.00
H127   H     0.96769   0.36349   0.75032   0.00000  Uiso   1.00
H128   H     0.74991   0.51422   0.32488   0.00000  Uiso   1.00
H129   H     0.44575   0.76458   0.59941   0.00000  Uiso   1.00
O130   O     0.08947   0.38550   0.77787   0.00000  Uiso   1.00
O131   O     0.80374   0.58325   0.21972   0.00000  Uiso   1.00
O132   O     0.40468   0.91172   0.57988   0.00000  Uiso   1.00
N133   N     0.02061   0.49759   0.68804   0.00000  Uiso   1.00
N134   N     0.81701   0.63850   0.29029   0.00000  Uiso   1.00
N135   N     0.53263   0.87257   0.54693   0.00000  Uiso   1.00
N136   N     0.97235   0.41214   0.72288   0.00000  Uiso   1.00
N137   N     0.76875   0.55305   0.32512   0.00000  Uiso   1.00
N138   N     0.48438   0.78713   0.58176   0.00000  Uiso   1.00
C139   C     0.39483   0.84420   0.86292   0.00000  Uiso   1.00
C140   C     0.47668   0.84234   0.84984   0.00000  Uiso   1.00
C141   C     0.53419   0.82709   0.89568   0.00000  Uiso   1.00
C142   C     0.60522   0.82808   0.87401   0.00000  Uiso   1.00
C143   C     0.73035   0.82277   0.86362   0.00000  Uiso   1.00
C144   C     0.38996   0.78618   0.83813   0.00000  Uiso   1.00
C145   C     0.37454   0.72372   0.87412   0.00000  Uiso   1.00
C146   C     0.37257   0.67744   0.84258   0.00000  Uiso   1.00
C147   C     0.36301   0.58498   0.81399   0.00000  Uiso   1.00
C148   C     0.33423   0.92384   0.81857   0.00000  Uiso   1.00
C149   C     0.27193   0.97713   0.83812   0.00000  Uiso   1.00
C150   C     0.22302   0.04675   0.79012   0.00000  Uiso   1.00
C151   C     0.12692   0.16804   0.73116   0.00000  Uiso   1.00
C152   C     0.41872   0.87306   0.74293   0.00000  Uiso   1.00
C153   C     0.48965   0.85802   0.78466   0.00000  Uiso   1.00
C154   C     0.56062   0.85903   0.76292   0.00000  Uiso   1.00
C155   C     0.61822   0.84379   0.80872   0.00000  Uiso   1.00
C156   C     0.40294   0.80186   0.77295   0.00000  Uiso   1.00
C157   C     0.40098   0.75566   0.74136   0.00000  Uiso   1.00
C158   C     0.38556   0.69315   0.77729   0.00000  Uiso   1.00
C159   C     0.34720   0.93953   0.75340   0.00000  Uiso   1.00
C160   C     0.29837   0.00907   0.70536   0.00000  Uiso   1.00
C161   C     0.23602   0.06246   0.72482   0.00000  Uiso   1.00
H162   H     0.38473   0.83198   0.91366   0.00000  Uiso   1.00
H163   H     0.52413   0.81495   0.94611   0.00000  Uiso   1.00
H164   H     0.36450   0.71161   0.92455   0.00000  Uiso   1.00
H165   H     0.26191   0.96498   0.88856   0.00000  Uiso   1.00
H166   H     0.68441   0.80296   0.95335   0.00000  Uiso   1.00
H167   H     0.34780   0.58506   0.90788   0.00000  Uiso   1.00
H168   H     0.13147   0.11935   0.83198   0.00000  Uiso   1.00
H169   H     0.42882   0.88527   0.69219   0.00000  Uiso   1.00
H170   H     0.57064   0.87117   0.71248   0.00000  Uiso   1.00
H171   H     0.41102   0.76782   0.69092   0.00000  Uiso   1.00
H172   H     0.30843   0.02119   0.65493   0.00000  Uiso   1.00
H173   H     0.72216   0.84858   0.76373   0.00000  Uiso   1.00
H174   H     0.38555   0.63068   0.71826   0.00000  Uiso   1.00
H175   H     0.16922   0.16497   0.64236   0.00000  Uiso   1.00
O176   O     0.79579   0.81550   0.87589   0.00000  Uiso   1.00
O177   O     0.35416   0.52964   0.81623   0.00000  Uiso   1.00
O178   O     0.07034   0.23061   0.71665   0.00000  Uiso   1.00
N179   N     0.67382   0.81565   0.90593   0.00000  Uiso   1.00
N180   N     0.35913   0.61191   0.86343   0.00000  Uiso   1.00
N181   N     0.15686   0.11142   0.79246   0.00000  Uiso   1.00
N182   N     0.69414   0.84020   0.80390   0.00000  Uiso   1.00
N183   N     0.37944   0.63646   0.76139   0.00000  Uiso   1.00
N184   N     0.17718   0.13597   0.69043   0.00000  Uiso   1.00
C185   C     0.01344   0.74417   0.01995   0.00000  Uiso   1.00
C186   C     0.02881   0.67169   0.07953   0.00000  Uiso   1.00
C187   C     0.97079   0.65417   0.11406   0.00000  Uiso   1.00
C188   C     0.99702   0.58500   0.16714   0.00000  Uiso   1.00
C189   C     0.00851   0.48002   0.25693   0.00000  Uiso   1.00
C190   C     0.05444   0.71568   0.96694   0.00000  Uiso   1.00
C191   C     0.01797   0.73515   0.90681   0.00000  Uiso   1.00
C192   C     0.06579   0.70302   0.86511   0.00000  Uiso   1.00
C193   C     0.11708   0.66637   0.78008   0.00000  Uiso   1.00
C194   C     0.05971   0.78233   0.03587   0.00000  Uiso   1.00
C195   C     0.02768   0.85783   0.03368   0.00000  Uiso   1.00
C196   C     0.07994   0.88182   0.04999   0.00000  Uiso   1.00
C197   C     0.13941   0.94865   0.07199   0.00000  Uiso   1.00
C198   C     0.16321   0.65251   0.05280   0.00000  Uiso   1.00
C199   C     0.11016   0.62191   0.09738   0.00000  Uiso   1.00
C200   C     0.13649   0.55275   0.15042   0.00000  Uiso   1.00
C201   C     0.07852   0.53513   0.18503   0.00000  Uiso   1.00
C202   C     0.13579   0.66590   0.98479   0.00000  Uiso   1.00
C203   C     0.18368   0.63374   0.94316   0.00000  Uiso   1.00
C204   C     0.14729   0.65315   0.88298   0.00000  Uiso   1.00
C205   C     0.14106   0.73254   0.05372   0.00000  Uiso   1.00
C206   C     0.19338   0.75642   0.07004   0.00000  Uiso   1.00
C207   C     0.16144   0.83195   0.06787   0.00000  Uiso   1.00
H208   H     0.95011   0.78293   0.00605   0.00000  Uiso   1.00
H209   H     0.90784   0.69271   0.10023   0.00000  Uiso   1.00
H210   H     0.95502   0.77368   0.89301   0.00000  Uiso   1.00
H211   H     0.96472   0.89634   0.01986   0.00000  Uiso   1.00
H212   H     0.89685   0.57071   0.21251   0.00000  Uiso   1.00
H213   H     0.99634   0.74147   0.77556   0.00000  Uiso   1.00
H214   H     0.01680   0.00013   0.04305   0.00000  Uiso   1.00
H215   H     0.22655   0.61375   0.06670   0.00000  Uiso   1.00
H216   H     0.19945   0.51424   0.16422   0.00000  Uiso   1.00
H217   H     0.24663   0.59522   0.95699   0.00000  Uiso   1.00
H218   H     0.25633   0.71788   0.08385   0.00000  Uiso   1.00
H219   H     0.13353   0.42585   0.26445   0.00000  Uiso   1.00
H220   H     0.23302   0.59662   0.82749   0.00000  Uiso   1.00
H221   H     0.25348   0.85527   0.09499   0.00000  Uiso   1.00
O222   O     0.99237   0.43586   0.30152   0.00000  Uiso   1.00
O223   O     0.12290   0.65991   0.72825   0.00000  Uiso   1.00
O224   O     0.14974   0.99925   0.07920   0.00000  Uiso   1.00
N225   N     0.95627   0.55028   0.21136   0.00000  Uiso   1.00
N226   N     0.04928   0.70992   0.80284   0.00000  Uiso   1.00
N227   N     0.06842   0.95175   0.05291   0.00000  Uiso   1.00
N228   N     0.08363   0.47233   0.23931   0.00000  Uiso   1.00
N229   N     0.17664   0.63198   0.83078   0.00000  Uiso   1.00
N230   N     0.19578   0.87381   0.08085   0.00000  Uiso   1.00
C231   C     0.00011   0.04988   0.62086   0.00000  Uiso   1.00
C232   C     0.93359   0.07375   0.57022   0.00000  Uiso   1.00
C233   C     0.89834   0.14483   0.51955   0.00000  Uiso   1.00
C234   C     0.83847   0.15536   0.47842   0.00000  Uiso   1.00
C235   C     0.73882   0.20131   0.39836   0.00000  Uiso   1.00
C236   C     0.06799   0.97600   0.61785   0.00000  Uiso   1.00
C237   C     0.14573   0.96490   0.60724   0.00000  Uiso   1.00
C238   C     0.19900   0.89314   0.60622   0.00000  Uiso   1.00
C239   C     0.30802   0.78733   0.60015   0.00000  Uiso   1.00
C240   C     0.96887   0.02607   0.68620   0.00000  Uiso   1.00
C241   C     0.96329   0.05704   0.73307   0.00000  Uiso   1.00
C242   C     0.93312   0.02742   0.78960   0.00000  Uiso   1.00
C243   C     0.88823   0.99934   0.88966   0.00000  Uiso   1.00
C244   C     0.95649   0.94218   0.63792   0.00000  Uiso   1.00
C245   C     0.90991   0.01525   0.57948   0.00000  Uiso   1.00
C246   C     0.85007   0.02567   0.53842   0.00000  Uiso   1.00
C247   C     0.81473   0.09676   0.48771   0.00000  Uiso   1.00
C248   C     0.04430   0.91751   0.62711   0.00000  Uiso   1.00
C249   C     0.09747   0.84575   0.62611   0.00000  Uiso   1.00
C250   C     0.17527   0.83454   0.61550   0.00000  Uiso   1.00
C251   C     0.94517   0.96757   0.69546   0.00000  Uiso   1.00
C252   C     0.91502   0.93789   0.75194   0.00000  Uiso   1.00
C253   C     0.90939   0.96882   0.79888   0.00000  Uiso   1.00
H254   H     0.01856   0.09541   0.61365   0.00000  Uiso   1.00
H255   H     0.91670   0.19008   0.51240   0.00000  Uiso   1.00
H256   H     0.16405   0.01018   0.60008   0.00000  Uiso   1.00
H257   H     0.98163   0.10231   0.72588   0.00000  Uiso   1.00
H258   H     0.79332   0.26923   0.40421   0.00000  Uiso   1.00
H259   H     0.31490   0.88989   0.58912   0.00000  Uiso   1.00
H260   H     0.93022   0.08416   0.85441   0.00000  Uiso   1.00
H261   H     0.93805   0.89663   0.64513   0.00000  Uiso   1.00
H262   H     0.83175   0.98039   0.54560   0.00000  Uiso   1.00
H263   H     0.07911   0.80049   0.63328   0.00000  Uiso   1.00
H264   H     0.89669   0.89263   0.75909   0.00000  Uiso   1.00
H265   H     0.72439   0.09904   0.43116   0.00000  Uiso   1.00
H266   H     0.24596   0.71969   0.61607   0.00000  Uiso   1.00
H267   H     0.86128   0.91398   0.88135   0.00000  Uiso   1.00
O268   O     0.69040   0.24281   0.35163   0.00000  Uiso   1.00
O269   O     0.37469   0.74513   0.59424   0.00000  Uiso   1.00
O270   O     0.87000   0.00002   0.94228   0.00000  Uiso   1.00
N271   N     0.79168   0.21768   0.42422   0.00000  Uiso   1.00
N272   N     0.27931   0.86303   0.59709   0.00000  Uiso   1.00
N273   N     0.91970   0.04465   0.84511   0.00000  Uiso   1.00
N274   N     0.75458   0.12611   0.43872   0.00000  Uiso   1.00
N275   N     0.24222   0.77145   0.61159   0.00000  Uiso   1.00
N276   N     0.88260   0.95307   0.85962   0.00000  Uiso   1.00
C277   C     0.51542   0.06800   0.84079   0.00000  Uiso   1.00
C278   C     0.45882   0.04651   0.88750   0.00000  Uiso   1.00
C279   C     0.48110   0.98236   0.94471   0.00000  Uiso   1.00
C280   C     0.42035   0.97292   0.98067   0.00000  Uiso   1.00
C281   C     0.34465   0.93154   0.05634   0.00000  Uiso   1.00
C282   C     0.49859   0.14992   0.83354   0.00000  Uiso   1.00
C283   C     0.55431   0.17271   0.84538   0.00000  Uiso   1.00
C284   C     0.52704   0.25032   0.83591   0.00000  Uiso   1.00
C285   C     0.51309   0.36949   0.82776   0.00000  Uiso   1.00
C286   C     0.48777   0.07425   0.77539   0.00000  Uiso   1.00
C287   C     0.53440   0.03344   0.73832   0.00000  Uiso   1.00
C288   C     0.49802   0.04735   0.67988   0.00000  Uiso   1.00
C289   C     0.46728   0.04903   0.58145   0.00000  Uiso   1.00
C290   C     0.36791   0.16530   0.80292   0.00000  Uiso   1.00
C291   C     0.37869   0.09936   0.86693   0.00000  Uiso   1.00
C292   C     0.31789   0.09001   0.90281   0.00000  Uiso   1.00
C293   C     0.34008   0.02586   0.96006   0.00000  Uiso   1.00
C294   C     0.41847   0.20277   0.81297   0.00000  Uiso   1.00
C295   C     0.39110   0.28036   0.80348   0.00000  Uiso   1.00
C296   C     0.44677   0.30327   0.81530   0.00000  Uiso   1.00
C297   C     0.40764   0.12710   0.75482   0.00000  Uiso   1.00
C298   C     0.37119   0.14108   0.69643   0.00000  Uiso   1.00
C299   C     0.41775   0.10030   0.65928   0.00000  Uiso   1.00
H300   H     0.57780   0.02686   0.85680   0.00000  Uiso   1.00
H301   H     0.54312   0.94148   0.96061   0.00000  Uiso   1.00
H302   H     0.61631   0.13180   0.86129   0.00000  Uiso   1.00
H303   H     0.59640   0.99254   0.75425   0.00000  Uiso   1.00
H304   H     0.46933   0.87015   0.06664   0.00000  Uiso   1.00
H305   H     0.62367   0.27145   0.85719   0.00000  Uiso   1.00
H306   H     0.58169   0.97780   0.63148   0.00000  Uiso   1.00
H307   H     0.30552   0.20645   0.78691   0.00000  Uiso   1.00
H308   H     0.25589   0.13092   0.88688   0.00000  Uiso   1.00
H309   H     0.32909   0.32124   0.78756   0.00000  Uiso   1.00
H310   H     0.30918   0.18198   0.68052   0.00000  Uiso   1.00
H311   H     0.23621   0.02391   0.00680   0.00000  Uiso   1.00
H312   H     0.39056   0.42521   0.79735   0.00000  Uiso   1.00
H313   H     0.34857   0.13156   0.57164   0.00000  Uiso   1.00
O314   O     0.32504   0.89412   0.10376   0.00000  Uiso   1.00
O315   O     0.52754   0.42062   0.82896   0.00000  Uiso   1.00
O316   O     0.47245   0.03535   0.53284   0.00000  Uiso   1.00
N317   N     0.42127   0.91669   0.03883   0.00000  Uiso   1.00
N318   N     0.56558   0.29189   0.84302   0.00000  Uiso   1.00
N319   N     0.52633   0.01736   0.63199   0.00000  Uiso   1.00
N320   N     0.29583   0.99943   0.00663   0.00000  Uiso   1.00
N321   N     0.44013   0.37462   0.81082   0.00000  Uiso   1.00
N322   N     0.40089   0.10010   0.59979   0.00000  Uiso   1.00
C323   C     0.68940   0.31482   0.55456   0.00000  Uiso   1.00
C324   C     0.77083   0.31238   0.56333   0.00000  Uiso   1.00
C325   C     0.81494   0.33358   0.51398   0.00000  Uiso   1.00
C326   C     0.88805   0.32719   0.53200   0.00000  Uiso   1.00
C327   C     0.01022   0.32750   0.53573   0.00000  Uiso   1.00
C328   C     0.63392   0.36543   0.58965   0.00000  Uiso   1.00
C329   C     0.56292   0.43123   0.56242   0.00000  Uiso   1.00
C330   C     0.52078   0.46948   0.60261   0.00000  Uiso   1.00
C331   C     0.43037   0.55211   0.64721   0.00000  Uiso   1.00
C332   C     0.69867   0.23303   0.59277   0.00000  Uiso   1.00
C333   C     0.68209   0.18750   0.56817   0.00000  Uiso   1.00
C334   C     0.69445   0.11429   0.61098   0.00000  Uiso   1.00
C335   C     0.70457   0.99135   0.66041   0.00000  Uiso   1.00
C336   C     0.74080   0.26575   0.67433   0.00000  Uiso   1.00
C337   C     0.79874   0.28573   0.62839   0.00000  Uiso   1.00
C338   C     0.87181   0.27930   0.64649   0.00000  Uiso   1.00
C339   C     0.91602   0.30049   0.59717   0.00000  Uiso   1.00
C340   C     0.66184   0.33878   0.65470   0.00000  Uiso   1.00
C341   C     0.61979   0.37694   0.69494   0.00000  Uiso   1.00
C342   C     0.54874   0.44278   0.66778   0.00000  Uiso   1.00
C343   C     0.72659   0.20638   0.65782   0.00000  Uiso   1.00
C344   C     0.73896   0.13322   0.70068   0.00000  Uiso   1.00
C345   C     0.72241   0.08759   0.67615   0.00000  Uiso   1.00
H346   H     0.66766   0.33557   0.50391   0.00000  Uiso   1.00
H347   H     0.79331   0.35421   0.46364   0.00000  Uiso   1.00
H348   H     0.54133   0.45183   0.51208   0.00000  Uiso   1.00
H349   H     0.66049   0.20815   0.51782   0.00000  Uiso   1.00
H350   H     0.94492   0.36316   0.44768   0.00000  Uiso   1.00
H351   H     0.41358   0.56898   0.54983   0.00000  Uiso   1.00
H352   H     0.66485   0.05512   0.56193   0.00000  Uiso   1.00
H353   H     0.76253   0.24501   0.72498   0.00000  Uiso   1.00
H354   H     0.89340   0.25868   0.69684   0.00000  Uiso   1.00
H355   H     0.64141   0.35630   0.74528   0.00000  Uiso   1.00
H356   H     0.76057   0.11262   0.75102   0.00000  Uiso   1.00
H357   H     0.02615   0.28562   0.63695   0.00000  Uiso   1.00
H358   H     0.49480   0.49144   0.73910   0.00000  Uiso   1.00
H359   H     0.74608   0.97758   0.75120   0.00000  Uiso   1.00
O360   O     0.06989   0.33504   0.51981   0.00000  Uiso   1.00
O361   O     0.37279   0.60506   0.65383   0.00000  Uiso   1.00
O362   O     0.70245   0.93089   0.66971   0.00000  Uiso   1.00
N363   N     0.94609   0.34302   0.49609   0.00000  Uiso   1.00
N364   N     0.44932   0.53545   0.59159   0.00000  Uiso   1.00
N365   N     0.68422   0.05505   0.60291   0.00000  Uiso   1.00
N366   N     0.98979   0.30130   0.59793   0.00000  Uiso   1.00
N367   N     0.49303   0.49373   0.69343   0.00000  Uiso   1.00
N368   N     0.72792   0.01333   0.70475   0.00000  Uiso   1.00
C369   C     0.20959   0.40579   0.51258   0.00000  Uiso   1.00
C370   C     0.16169   0.47890   0.45461   0.00000  Uiso   1.00
C371   C     0.08922   0.49712   0.42460   0.00000  Uiso   1.00
C372   C     0.05492   0.56678   0.37228   0.00000  Uiso   1.00
C373   C     0.97491   0.67278   0.28555   0.00000  Uiso   1.00
C374   C     0.22170   0.43322   0.56432   0.00000  Uiso   1.00
C375   C     0.19970   0.41303   0.62656   0.00000  Uiso   1.00
C376   C     0.21594   0.44424   0.66661   0.00000  Uiso   1.00
C377   C     0.22915   0.47927   0.75022   0.00000  Uiso   1.00
C378   C     0.29194   0.36783   0.49173   0.00000  Uiso   1.00
C379   C     0.32901   0.29264   0.49294   0.00000  Uiso   1.00
C380   C     0.40438   0.26879   0.47188   0.00000  Uiso   1.00
C381   C     0.52665   0.20229   0.44278   0.00000  Uiso   1.00
C382   C     0.27754   0.49711   0.47304   0.00000  Uiso   1.00
C383   C     0.19860   0.52850   0.43313   0.00000  Uiso   1.00
C384   C     0.16440   0.59815   0.38084   0.00000  Uiso   1.00
C385   C     0.09190   0.61647   0.35076   0.00000  Uiso   1.00
C386   C     0.25861   0.48282   0.54284   0.00000  Uiso   1.00
C387   C     0.27488   0.51407   0.58281   0.00000  Uiso   1.00
C388   C     0.25291   0.49393   0.64509   0.00000  Uiso   1.00
C389   C     0.32885   0.41743   0.47024   0.00000  Uiso   1.00
C390   C     0.40418   0.39368   0.44918   0.00000  Uiso   1.00
C391   C     0.44136   0.31848   0.45036   0.00000  Uiso   1.00
H392   H     0.18086   0.36717   0.52931   0.00000  Uiso   1.00
H393   H     0.06068   0.45872   0.44124   0.00000  Uiso   1.00
H394   H     0.17115   0.37464   0.64317   0.00000  Uiso   1.00
H395   H     0.30043   0.25428   0.50957   0.00000  Uiso   1.00
H396   H     0.94370   0.58210   0.33414   0.00000  Uiso   1.00
H397   H     0.17666   0.40479   0.75993   0.00000  Uiso   1.00
H398   H     0.44927   0.15098   0.47820   0.00000  Uiso   1.00
H399   H     0.30628   0.53573   0.45632   0.00000  Uiso   1.00
H400   H     0.19298   0.63653   0.36423   0.00000  Uiso   1.00
H401   H     0.30345   0.55244   0.56617   0.00000  Uiso   1.00
H402   H     0.43273   0.43208   0.43257   0.00000  Uiso   1.00
H403   H     0.05108   0.72642   0.27164   0.00000  Uiso   1.00
H404   H     0.28404   0.54911   0.69744   0.00000  Uiso   1.00
H405   H     0.55665   0.29530   0.41571   0.00000  Uiso   1.00
O406   O     0.92058   0.71754   0.24365   0.00000  Uiso   1.00
O407   O     0.22623   0.48490   0.80228   0.00000  Uiso   1.00
O408   O     0.58389   0.15191   0.43265   0.00000  Uiso   1.00
N409   N     0.98453   0.60223   0.33206   0.00000  Uiso   1.00
N410   N     0.20232   0.43646   0.73015   0.00000  Uiso   1.00
N411   N     0.45720   0.19916   0.46677   0.00000  Uiso   1.00
N412   N     0.04231   0.67988   0.29843   0.00000  Uiso   1.00
N413   N     0.26010   0.51412   0.69652   0.00000  Uiso   1.00
N414   N     0.51498   0.27682   0.43314   0.00000  Uiso   1.00
C415   C     0.54033   0.41327   0.98499   0.00000  Uiso   1.00
C416   C     0.47412   0.38822   0.00685   0.00000  Uiso   1.00
C417   C     0.41769   0.39237   0.96652   0.00000  Uiso   1.00
C418   C     0.36207   0.36657   0.99592   0.00000  Uiso   1.00
C419   C     0.25910   0.33212   0.01962   0.00000  Uiso   1.00
C420   C     0.52975   0.47254   0.01455   0.00000  Uiso   1.00
C421   C     0.52012   0.54758   0.98070   0.00000  Uiso   1.00
C422   C     0.51135   0.59276   0.01660   0.00000  Uiso   1.00
C423   C     0.49482   0.68920   0.05226   0.00000  Uiso   1.00
C424   C     0.61820   0.34260   0.01851   0.00000  Uiso   1.00
C425   C     0.68295   0.30838   0.98798   0.00000  Uiso   1.00
C426   C     0.74866   0.24417   0.02721   0.00000  Uiso   1.00
C427   C     0.86945   0.13885   0.06900   0.00000  Uiso   1.00
C428   C     0.54191   0.36009   0.10892   0.00000  Uiso   1.00
C429   C     0.47497   0.35934   0.07416   0.00000  Uiso   1.00
C430   C     0.41943   0.33353   0.10363   0.00000  Uiso   1.00
C431   C     0.36293   0.33763   0.06336   0.00000  Uiso   1.00
C432   C     0.53061   0.44366   0.08186   0.00000  Uiso   1.00
C433   C     0.52186   0.48874   0.11782   0.00000  Uiso   1.00
C434   C     0.51221   0.56383   0.08403   0.00000  Uiso   1.00
C435   C     0.61906   0.31371   0.08582   0.00000  Uiso   1.00
C436   C     0.68469   0.24955   0.12510   0.00000  Uiso   1.00
C437   C     0.74952   0.21524   0.09464   0.00000  Uiso   1.00
H438   H     0.53966   0.43576   0.93259   0.00000  Uiso   1.00
H439   H     0.41704   0.41473   0.91443   0.00000  Uiso   1.00
H440   H     0.51946   0.56991   0.92861   0.00000  Uiso   1.00
H441   H     0.68226   0.33075   0.93589   0.00000  Uiso   1.00
H442   H     0.28145   0.37870   0.92398   0.00000  Uiso   1.00
H443   H     0.49744   0.70591   0.95389   0.00000  Uiso   1.00
H444   H     0.84074   0.20159   0.96924   0.00000  Uiso   1.00
H445   H     0.54258   0.33760   0.16133   0.00000  Uiso   1.00
H446   H     0.42011   0.31118   0.15573   0.00000  Uiso   1.00
H447   H     0.52253   0.46637   0.16991   0.00000  Uiso   1.00
H448   H     0.68533   0.22721   0.17719   0.00000  Uiso   1.00
H449   H     0.28394   0.29467   0.11983   0.00000  Uiso   1.00
H450   H     0.49993   0.62187   0.14974   0.00000  Uiso   1.00
H451   H     0.84323   0.11755   0.16508   0.00000  Uiso   1.00
O452   O     0.20206   0.32110   0.01409   0.00000  Uiso   1.00
O453   O     0.48545   0.75037   0.05333   0.00000  Uiso   1.00
O454   O     0.93584   0.08872   0.07346   0.00000  Uiso   1.00
N455   N     0.29885   0.36254   0.97084   0.00000  Uiso   1.00
N456   N     0.50078   0.66846   0.99881   0.00000  Uiso   1.00
N457   N     0.82174   0.19698   0.01315   0.00000  Uiso   1.00
N458   N     0.30019   0.31732   0.07623   0.00000  Uiso   1.00
N459   N     0.50212   0.62324   0.10419   0.00000  Uiso   1.00
N460   N     0.82308   0.15175   0.11854   0.00000  Uiso   1.00
C461   C     0.93038   0.50539   0.88291   0.00000  Uiso   1.00
C462   C     0.91419   0.56958   0.81670   0.00000  Uiso   1.00
C463   C     0.96734   0.59880   0.78719   0.00000  Uiso   1.00
C464   C     0.94119   0.65749   0.72655   0.00000  Uiso   1.00
C465   C     0.92769   0.75287   0.62831   0.00000  Uiso   1.00
C466   C     0.86462   0.53937   0.92216   0.00000  Uiso   1.00
C467   C     0.87609   0.54319   0.98132   0.00000  Uiso   1.00
C468   C     0.80820   0.57645   0.00946   0.00000  Uiso   1.00
C469   C     0.71773   0.62489   0.07497   0.00000  Uiso   1.00
C470   C     0.91574   0.44302   0.87204   0.00000  Uiso   1.00
C471   C     0.97018   0.36583   0.88907   0.00000  Uiso   1.00
C472   C     0.94533   0.31796   0.87502   0.00000  Uiso   1.00
C473   C     0.93423   0.21680   0.86272   0.00000  Uiso   1.00
C474   C     0.78943   0.55764   0.82769   0.00000  Uiso   1.00
C475   C     0.83763   0.59796   0.78671   0.00000  Uiso   1.00
C476   C     0.81140   0.65662   0.72609   0.00000  Uiso   1.00
C477   C     0.86450   0.68592   0.69650   0.00000  Uiso   1.00
C478   C     0.78806   0.56776   0.89216   0.00000  Uiso   1.00
C479   C     0.72014   0.60101   0.92022   0.00000  Uiso   1.00
C480   C     0.73150   0.60489   0.97941   0.00000  Uiso   1.00
C481   C     0.83918   0.47141   0.84204   0.00000  Uiso   1.00
C482   C     0.81423   0.42365   0.82797   0.00000  Uiso   1.00
C483   C     0.86863   0.34639   0.84497   0.00000  Uiso   1.00
H484   H     0.98998   0.48329   0.90627   0.00000  Uiso   1.00
H485   H     0.02658   0.57682   0.81042   0.00000  Uiso   1.00
H486   H     0.93534   0.52122   0.00452   0.00000  Uiso   1.00
H487   H     0.02942   0.34388   0.91228   0.00000  Uiso   1.00
H488   H     0.03339   0.69306   0.69094   0.00000  Uiso   1.00
H489   H     0.84100   0.57579   0.10023   0.00000  Uiso   1.00
H490   H     0.03938   0.20184   0.90572   0.00000  Uiso   1.00
H491   H     0.72982   0.57974   0.80434   0.00000  Uiso   1.00
H492   H     0.75215   0.67857   0.70289   0.00000  Uiso   1.00
H493   H     0.66090   0.62297   0.89700   0.00000  Uiso   1.00
H494   H     0.75498   0.44563   0.80476   0.00000  Uiso   1.00
H495   H     0.81064   0.77565   0.60367   0.00000  Uiso   1.00
H496   H     0.61826   0.65837   0.01296   0.00000  Uiso   1.00
H497   H     0.81664   0.28443   0.81845   0.00000  Uiso   1.00
O498   O     0.94139   0.79764   0.58242   0.00000  Uiso   1.00
O499   O     0.68898   0.64377   0.11940   0.00000  Uiso   1.00
O500   O     0.94926   0.15317   0.86421   0.00000  Uiso   1.00
N501   N     0.97791   0.69892   0.68432   0.00000  Uiso   1.00
N502   N     0.79804   0.58929   0.06697   0.00000  Uiso   1.00
N503   N     0.98350   0.23968   0.88514   0.00000  Uiso   1.00
N504   N     0.85805   0.74336   0.63736   0.00000  Uiso   1.00
N505   N     0.67818   0.63373   0.02001   0.00000  Uiso   1.00
N506   N     0.86364   0.28412   0.83818   0.00000  Uiso   1.00
C507   C     0.98441   0.19804   0.27065   0.00000  Uiso   1.00
C508   C     0.04411   0.19580   0.31553   0.00000  Uiso   1.00
C509   C     0.08052   0.13741   0.37487   0.00000  Uiso   1.00
C510   C     0.13335   0.14613   0.40861   0.00000  Uiso   1.00
C511   C     0.22360   0.13282   0.48209   0.00000  Uiso   1.00
C512   C     0.90993   0.27391   0.25917   0.00000  Uiso   1.00
C513   C     0.83353   0.28118   0.27111   0.00000  Uiso   1.00
C514   C     0.77341   0.35565   0.25740   0.00000  Uiso   1.00
C515   C     0.65534   0.46361   0.24332   0.00000  Uiso   1.00
C516   C     0.01911   0.20618   0.20601   0.00000  Uiso   1.00
C517   C     0.03449   0.15652   0.17323   0.00000  Uiso   1.00
C518   C     0.06628   0.17398   0.11475   0.00000  Uiso   1.00
C519   C     0.11773   0.17678   0.01813   0.00000  Uiso   1.00
C520   C     0.01348   0.31737   0.22506   0.00000  Uiso   1.00
C521   C     0.05989   0.26062   0.29077   0.00000  Uiso   1.00
C522   C     0.11268   0.26944   0.32443   0.00000  Uiso   1.00
C523   C     0.14917   0.21106   0.38381   0.00000  Uiso   1.00
C524   C     0.92571   0.33873   0.23441   0.00000  Uiso   1.00
C525   C     0.86569   0.41321   0.22067   0.00000  Uiso   1.00
C526   C     0.78922   0.42059   0.23259   0.00000  Uiso   1.00
C527   C     0.03490   0.27100   0.18125   0.00000  Uiso   1.00
C528   C     0.06666   0.28855   0.12280   0.00000  Uiso   1.00
C529   C     0.08209   0.23892   0.08995   0.00000  Uiso   1.00
H530   H     0.97212   0.14758   0.28992   0.00000  Uiso   1.00
H531   H     0.06828   0.08726   0.39401   0.00000  Uiso   1.00
H532   H     0.82133   0.23101   0.29026   0.00000  Uiso   1.00
H533   H     0.02227   0.10637   0.19240   0.00000  Uiso   1.00
H534   H     0.18184   0.04898   0.49851   0.00000  Uiso   1.00
H535   H     0.66112   0.35209   0.27972   0.00000  Uiso   1.00
H536   H     0.08484   0.08926   0.07337   0.00000  Uiso   1.00
H537   H     0.02577   0.36784   0.20579   0.00000  Uiso   1.00
H538   H     0.12488   0.31960   0.30526   0.00000  Uiso   1.00
H539   H     0.87793   0.46335   0.20151   0.00000  Uiso   1.00
H540   H     0.07887   0.33871   0.10366   0.00000  Uiso   1.00
H541   H     0.22777   0.23756   0.42648   0.00000  Uiso   1.00
H542   H     0.70706   0.54067   0.20769   0.00000  Uiso   1.00
H543   H     0.13077   0.27783   0.00134   0.00000  Uiso   1.00
O544   O     0.26902   0.10758   0.52946   0.00000  Uiso   1.00
O545   O     0.58586   0.50524   0.24241   0.00000  Uiso   1.00
O546   O     0.14177   0.16041   0.97169   0.00000  Uiso   1.00
N547   N     0.17906   0.09998   0.46790   0.00000  Uiso   1.00
N548   N     0.69222   0.38336   0.26336   0.00000  Uiso   1.00
N549   N     0.08834   0.13765   0.07043   0.00000  Uiso   1.00
N550   N     0.20378   0.20145   0.42914   0.00000  Uiso   1.00
N551   N     0.71694   0.48484   0.22460   0.00000  Uiso   1.00
N552   N     0.11306   0.23912   0.03167   0.00000  Uiso   1.00
