data_job_05841
_audit_creation_date              2018-12-19
_audit_creation_method            'Materials Studio'
_symmetry_space_group_name_H-M    'P1'
_symmetry_Int_Tables_number       1
_symmetry_cell_setting            triclinic
loop_
_symmetry_equiv_pos_as_xyz
  x,y,z
_cell_length_a                    16.7895
_cell_length_b                    16.7895
_cell_length_c                    20.1915
_cell_angle_alpha                 90.0000
_cell_angle_beta                  90.0000
_cell_angle_gamma                 90.0000
loop_
_atom_site_label
_atom_site_type_symbol
_atom_site_fract_x
_atom_site_fract_y
_atom_site_fract_z
_atom_site_U_iso_or_equiv
_atom_site_adp_type
_atom_site_occupancy
C1     C     0.96594   0.64613   0.90981   0.00000  Uiso   1.00
C2     C     0.96638   0.65932   0.98453   0.00000  Uiso   1.00
C3     C     0.91537   0.62352   0.02968   0.00000  Uiso   1.00
C4     C     0.92537   0.64343   0.09590   0.00000  Uiso   1.00
C5     C     0.91707   0.65576   0.20884   0.00000  Uiso   1.00
C6     C     0.95603   0.72832   0.87874   0.00000  Uiso   1.00
C7     C     0.89633   0.75052   0.83493   0.00000  Uiso   1.00
C8     C     0.89763   0.82851   0.81208   0.00000  Uiso   1.00
C9     C     0.87330   0.94794   0.76073   0.00000  Uiso   1.00
C10    C     0.04972   0.61862   0.89173   0.00000  Uiso   1.00
C11    C     0.06879   0.54859   0.85883   0.00000  Uiso   1.00
C12    C     0.14896   0.53423   0.84691   0.00000  Uiso   1.00
C13    C     0.27008   0.48333   0.81574   0.00000  Uiso   1.00
C14    C     0.07440   0.74515   0.94712   0.00000  Uiso   1.00
C15    C     0.02529   0.71311   0.00480   0.00000  Uiso   1.00
C16    C     0.03537   0.73307   0.07097   0.00000  Uiso   1.00
C17    C     0.98439   0.69731   0.11621   0.00000  Uiso   1.00
C18    C     0.01494   0.78210   0.89900   0.00000  Uiso   1.00
C19    C     0.01633   0.86008   0.87621   0.00000  Uiso   1.00
C20    C     0.95664   0.88239   0.83238   0.00000  Uiso   1.00
C21    C     0.10863   0.67240   0.91200   0.00000  Uiso   1.00
C22    C     0.18878   0.65815   0.90012   0.00000  Uiso   1.00
C23    C     0.20797   0.58811   0.86721   0.00000  Uiso   1.00
H24    H     0.92007   0.60426   0.89403   0.00000  Uiso   1.00
H25    H     0.86978   0.58191   0.01398   0.00000  Uiso   1.00
H26    H     0.85075   0.70888   0.81925   0.00000  Uiso   1.00
H27    H     0.02318   0.50699   0.84316   0.00000  Uiso   1.00
H28    H     0.84000   0.58086   0.15590   0.00000  Uiso   1.00
H29    H     0.79988   0.84859   0.74528   0.00000  Uiso   1.00
H30    H     0.16348   0.42285   0.79569   0.00000  Uiso   1.00
H31    H     0.12027   0.78703   0.96290   0.00000  Uiso   1.00
H32    H     0.08097   0.77470   0.08663   0.00000  Uiso   1.00
H33    H     0.06193   0.90168   0.89190   0.00000  Uiso   1.00
H34    H     0.23436   0.69978   0.91581   0.00000  Uiso   1.00
H35    H     0.01140   0.73734   0.21487   0.00000  Uiso   1.00
H36    H     0.97128   0.00507   0.80425   0.00000  Uiso   1.00
H37    H     0.33488   0.57933   0.85466   0.00000  Uiso   1.00
O38    O     0.89622   0.64771   0.26553   0.00000  Uiso   1.00
O39    O     0.84360   0.99896   0.72681   0.00000  Uiso   1.00
O40    O     0.32062   0.44040   0.79295   0.00000  Uiso   1.00
N41    N     0.88574   0.61937   0.15280   0.00000  Uiso   1.00
N42    N     0.84823   0.86969   0.76891   0.00000  Uiso   1.00
N43    N     0.18816   0.47166   0.81602   0.00000  Uiso   1.00
N44    N     0.97797   0.70357   0.18453   0.00000  Uiso   1.00
N45    N     0.94046   0.95389   0.80064   0.00000  Uiso   1.00
N46    N     0.28039   0.55586   0.84775   0.00000  Uiso   1.00
C47    C     0.03406   0.35387   0.40981   0.00000  Uiso   1.00
C48    C     0.03362   0.34068   0.48453   0.00000  Uiso   1.00
C49    C     0.08463   0.37648   0.52968   0.00000  Uiso   1.00
C50    C     0.07463   0.35657   0.59590   0.00000  Uiso   1.00
C51    C     0.08293   0.34424   0.70884   0.00000  Uiso   1.00
C52    C     0.04397   0.27168   0.37874   0.00000  Uiso   1.00
C53    C     0.10367   0.24948   0.33493   0.00000  Uiso   1.00
C54    C     0.10237   0.17149   0.31208   0.00000  Uiso   1.00
C55    C     0.12670   0.05206   0.26073   0.00000  Uiso   1.00
C56    C     0.95028   0.38138   0.39173   0.00000  Uiso   1.00
C57    C     0.93121   0.45141   0.35883   0.00000  Uiso   1.00
C58    C     0.85104   0.46577   0.34691   0.00000  Uiso   1.00
C59    C     0.72992   0.51667   0.31574   0.00000  Uiso   1.00
C60    C     0.92560   0.25485   0.44712   0.00000  Uiso   1.00
C61    C     0.97471   0.28689   0.50480   0.00000  Uiso   1.00
C62    C     0.96463   0.26693   0.57097   0.00000  Uiso   1.00
C63    C     0.01561   0.30269   0.61621   0.00000  Uiso   1.00
C64    C     0.98506   0.21790   0.39900   0.00000  Uiso   1.00
C65    C     0.98367   0.13992   0.37621   0.00000  Uiso   1.00
C66    C     0.04336   0.11761   0.33238   0.00000  Uiso   1.00
C67    C     0.89137   0.32760   0.41200   0.00000  Uiso   1.00
C68    C     0.81122   0.34185   0.40012   0.00000  Uiso   1.00
C69    C     0.79203   0.41189   0.36721   0.00000  Uiso   1.00
H70    H     0.07993   0.39574   0.39403   0.00000  Uiso   1.00
H71    H     0.13022   0.41809   0.51398   0.00000  Uiso   1.00
H72    H     0.14925   0.29112   0.31925   0.00000  Uiso   1.00
H73    H     0.97682   0.49301   0.34316   0.00000  Uiso   1.00
H74    H     0.16000   0.41914   0.65590   0.00000  Uiso   1.00
H75    H     0.20012   0.15141   0.24528   0.00000  Uiso   1.00
H76    H     0.83652   0.57715   0.29569   0.00000  Uiso   1.00
H77    H     0.87973   0.21297   0.46290   0.00000  Uiso   1.00
H78    H     0.91903   0.22530   0.58663   0.00000  Uiso   1.00
H79    H     0.93807   0.09832   0.39190   0.00000  Uiso   1.00
H80    H     0.76564   0.30022   0.41581   0.00000  Uiso   1.00
H81    H     0.98860   0.26266   0.71487   0.00000  Uiso   1.00
H82    H     0.02872   0.99493   0.30425   0.00000  Uiso   1.00
H83    H     0.66512   0.42067   0.35466   0.00000  Uiso   1.00
O84    O     0.10378   0.35229   0.76553   0.00000  Uiso   1.00
O85    O     0.15640   0.00104   0.22681   0.00000  Uiso   1.00
O86    O     0.67938   0.55960   0.29295   0.00000  Uiso   1.00
N87    N     0.11426   0.38063   0.65280   0.00000  Uiso   1.00
N88    N     0.15177   0.13031   0.26891   0.00000  Uiso   1.00
N89    N     0.81184   0.52834   0.31602   0.00000  Uiso   1.00
N90    N     0.02203   0.29643   0.68453   0.00000  Uiso   1.00
N91    N     0.05954   0.04611   0.30064   0.00000  Uiso   1.00
N92    N     0.71961   0.44414   0.34775   0.00000  Uiso   1.00
C93    C     0.85387   0.46594   0.65981   0.00000  Uiso   1.00
C94    C     0.84068   0.46638   0.73453   0.00000  Uiso   1.00
C95    C     0.87648   0.41537   0.77968   0.00000  Uiso   1.00
C96    C     0.85657   0.42537   0.84590   0.00000  Uiso   1.00
C97    C     0.84424   0.41707   0.95884   0.00000  Uiso   1.00
C98    C     0.77168   0.45603   0.62874   0.00000  Uiso   1.00
C99    C     0.74948   0.39633   0.58493   0.00000  Uiso   1.00
C100   C     0.67149   0.39763   0.56208   0.00000  Uiso   1.00
C101   C     0.55206   0.37330   0.51073   0.00000  Uiso   1.00
C102   C     0.88138   0.54972   0.64173   0.00000  Uiso   1.00
C103   C     0.95141   0.56879   0.60883   0.00000  Uiso   1.00
C104   C     0.96577   0.64896   0.59691   0.00000  Uiso   1.00
C105   C     0.01667   0.77008   0.56574   0.00000  Uiso   1.00
C106   C     0.75485   0.57440   0.69712   0.00000  Uiso   1.00
C107   C     0.78689   0.52529   0.75480   0.00000  Uiso   1.00
C108   C     0.76693   0.53537   0.82097   0.00000  Uiso   1.00
C109   C     0.80269   0.48439   0.86621   0.00000  Uiso   1.00
C110   C     0.71790   0.51494   0.64900   0.00000  Uiso   1.00
C111   C     0.63992   0.51633   0.62621   0.00000  Uiso   1.00
C112   C     0.61761   0.45664   0.58238   0.00000  Uiso   1.00
C113   C     0.82760   0.60863   0.66200   0.00000  Uiso   1.00
C114   C     0.84185   0.68878   0.65012   0.00000  Uiso   1.00
C115   C     0.91189   0.70797   0.61721   0.00000  Uiso   1.00
H116   H     0.89574   0.42007   0.64403   0.00000  Uiso   1.00
H117   H     0.91809   0.36978   0.76398   0.00000  Uiso   1.00
H118   H     0.79112   0.35075   0.56925   0.00000  Uiso   1.00
H119   H     0.99301   0.52318   0.59316   0.00000  Uiso   1.00
H120   H     0.91914   0.34000   0.90590   0.00000  Uiso   1.00
H121   H     0.65141   0.29988   0.49528   0.00000  Uiso   1.00
H122   H     0.07715   0.66348   0.54569   0.00000  Uiso   1.00
H123   H     0.71297   0.62027   0.71290   0.00000  Uiso   1.00
H124   H     0.72530   0.58097   0.83663   0.00000  Uiso   1.00
H125   H     0.59832   0.56193   0.64190   0.00000  Uiso   1.00
H126   H     0.80022   0.73436   0.66581   0.00000  Uiso   1.00
H127   H     0.76266   0.51140   0.96487   0.00000  Uiso   1.00
H128   H     0.49493   0.47128   0.55425   0.00000  Uiso   1.00
H129   H     0.92067   0.83488   0.60466   0.00000  Uiso   1.00
O130   O     0.85229   0.39622   0.01553   0.00000  Uiso   1.00
O131   O     0.50104   0.34360   0.47681   0.00000  Uiso   1.00
O132   O     0.05960   0.82062   0.54295   0.00000  Uiso   1.00
N133   N     0.88063   0.38574   0.90280   0.00000  Uiso   1.00
N134   N     0.63031   0.34823   0.51891   0.00000  Uiso   1.00
N135   N     0.02834   0.68816   0.56602   0.00000  Uiso   1.00
N136   N     0.79643   0.47797   0.93453   0.00000  Uiso   1.00
N137   N     0.54611   0.44046   0.55064   0.00000  Uiso   1.00
N138   N     0.94414   0.78039   0.59775   0.00000  Uiso   1.00
C139   C     0.14613   0.53406   0.15981   0.00000  Uiso   1.00
C140   C     0.15932   0.53362   0.23453   0.00000  Uiso   1.00
C141   C     0.12352   0.58463   0.27968   0.00000  Uiso   1.00
C142   C     0.14343   0.57463   0.34590   0.00000  Uiso   1.00
C143   C     0.15576   0.58293   0.45884   0.00000  Uiso   1.00
C144   C     0.22832   0.54397   0.12874   0.00000  Uiso   1.00
C145   C     0.25052   0.60367   0.08493   0.00000  Uiso   1.00
C146   C     0.32851   0.60237   0.06208   0.00000  Uiso   1.00
C147   C     0.44794   0.62670   0.01073   0.00000  Uiso   1.00
C148   C     0.11862   0.45028   0.14173   0.00000  Uiso   1.00
C149   C     0.04859   0.43121   0.10883   0.00000  Uiso   1.00
C150   C     0.03423   0.35104   0.09691   0.00000  Uiso   1.00
C151   C     0.98333   0.22992   0.06574   0.00000  Uiso   1.00
C152   C     0.24515   0.42560   0.19712   0.00000  Uiso   1.00
C153   C     0.21311   0.47471   0.25480   0.00000  Uiso   1.00
C154   C     0.23307   0.46463   0.32097   0.00000  Uiso   1.00
C155   C     0.19731   0.51561   0.36621   0.00000  Uiso   1.00
C156   C     0.28210   0.48506   0.14900   0.00000  Uiso   1.00
C157   C     0.36008   0.48367   0.12621   0.00000  Uiso   1.00
C158   C     0.38239   0.54336   0.08238   0.00000  Uiso   1.00
C159   C     0.17240   0.39137   0.16200   0.00000  Uiso   1.00
C160   C     0.15815   0.31122   0.15012   0.00000  Uiso   1.00
C161   C     0.08811   0.29203   0.11721   0.00000  Uiso   1.00
H162   H     0.10426   0.57993   0.14403   0.00000  Uiso   1.00
H163   H     0.08191   0.63022   0.26398   0.00000  Uiso   1.00
H164   H     0.20888   0.64925   0.06925   0.00000  Uiso   1.00
H165   H     0.00699   0.47682   0.09316   0.00000  Uiso   1.00
H166   H     0.08086   0.66000   0.40590   0.00000  Uiso   1.00
H167   H     0.34859   0.70012   0.99528   0.00000  Uiso   1.00
H168   H     0.92285   0.33652   0.04569   0.00000  Uiso   1.00
H169   H     0.28703   0.37973   0.21290   0.00000  Uiso   1.00
H170   H     0.27470   0.41903   0.33663   0.00000  Uiso   1.00
H171   H     0.40168   0.43807   0.14190   0.00000  Uiso   1.00
H172   H     0.19978   0.26564   0.16581   0.00000  Uiso   1.00
H173   H     0.23734   0.48860   0.46487   0.00000  Uiso   1.00
H174   H     0.50507   0.52872   0.05425   0.00000  Uiso   1.00
H175   H     0.07933   0.16512   0.10466   0.00000  Uiso   1.00
O176   O     0.14771   0.60378   0.51553   0.00000  Uiso   1.00
O177   O     0.49896   0.65640   0.97681   0.00000  Uiso   1.00
O178   O     0.94040   0.17938   0.04295   0.00000  Uiso   1.00
N179   N     0.11937   0.61426   0.40280   0.00000  Uiso   1.00
N180   N     0.36969   0.65177   0.01891   0.00000  Uiso   1.00
N181   N     0.97166   0.31184   0.06602   0.00000  Uiso   1.00
N182   N     0.20357   0.52203   0.43453   0.00000  Uiso   1.00
N183   N     0.45389   0.55954   0.05064   0.00000  Uiso   1.00
N184   N     0.05586   0.21961   0.09775   0.00000  Uiso   1.00
C185   C     0.53406   0.14613   0.84019   0.00000  Uiso   1.00
C186   C     0.53362   0.15932   0.76547   0.00000  Uiso   1.00
C187   C     0.58463   0.12352   0.72032   0.00000  Uiso   1.00
C188   C     0.57463   0.14343   0.65410   0.00000  Uiso   1.00
C189   C     0.58293   0.15576   0.54116   0.00000  Uiso   1.00
C190   C     0.54397   0.22832   0.87126   0.00000  Uiso   1.00
C191   C     0.60367   0.25052   0.91507   0.00000  Uiso   1.00
C192   C     0.60237   0.32851   0.93792   0.00000  Uiso   1.00
C193   C     0.62670   0.44794   0.98927   0.00000  Uiso   1.00
C194   C     0.45028   0.11862   0.85827   0.00000  Uiso   1.00
C195   C     0.43121   0.04859   0.89117   0.00000  Uiso   1.00
C196   C     0.35104   0.03423   0.90309   0.00000  Uiso   1.00
C197   C     0.22992   0.98333   0.93426   0.00000  Uiso   1.00
C198   C     0.42560   0.24515   0.80288   0.00000  Uiso   1.00
C199   C     0.47471   0.21311   0.74520   0.00000  Uiso   1.00
C200   C     0.46463   0.23307   0.67903   0.00000  Uiso   1.00
C201   C     0.51561   0.19731   0.63379   0.00000  Uiso   1.00
C202   C     0.48506   0.28210   0.85100   0.00000  Uiso   1.00
C203   C     0.48367   0.36008   0.87379   0.00000  Uiso   1.00
C204   C     0.54336   0.38239   0.91762   0.00000  Uiso   1.00
C205   C     0.39137   0.17240   0.83800   0.00000  Uiso   1.00
C206   C     0.31122   0.15815   0.84988   0.00000  Uiso   1.00
C207   C     0.29203   0.08811   0.88279   0.00000  Uiso   1.00
H208   H     0.57993   0.10426   0.85597   0.00000  Uiso   1.00
H209   H     0.63022   0.08191   0.73602   0.00000  Uiso   1.00
H210   H     0.64925   0.20888   0.93075   0.00000  Uiso   1.00
H211   H     0.47682   0.00699   0.90684   0.00000  Uiso   1.00
H212   H     0.66000   0.08086   0.59410   0.00000  Uiso   1.00
H213   H     0.70012   0.34859   0.00472   0.00000  Uiso   1.00
H214   H     0.33652   0.92285   0.95431   0.00000  Uiso   1.00
H215   H     0.37973   0.28703   0.78710   0.00000  Uiso   1.00
H216   H     0.41903   0.27470   0.66337   0.00000  Uiso   1.00
H217   H     0.43807   0.40168   0.85810   0.00000  Uiso   1.00
H218   H     0.26564   0.19978   0.83419   0.00000  Uiso   1.00
H219   H     0.48860   0.23734   0.53513   0.00000  Uiso   1.00
H220   H     0.52872   0.50507   0.94575   0.00000  Uiso   1.00
H221   H     0.16512   0.07933   0.89534   0.00000  Uiso   1.00
O222   O     0.60378   0.14771   0.48447   0.00000  Uiso   1.00
O223   O     0.65640   0.49896   0.02319   0.00000  Uiso   1.00
O224   O     0.17938   0.94040   0.95705   0.00000  Uiso   1.00
N225   N     0.61426   0.11937   0.59720   0.00000  Uiso   1.00
N226   N     0.65177   0.36969   0.98109   0.00000  Uiso   1.00
N227   N     0.31184   0.97166   0.93398   0.00000  Uiso   1.00
N228   N     0.52203   0.20357   0.56547   0.00000  Uiso   1.00
N229   N     0.55954   0.45389   0.94936   0.00000  Uiso   1.00
N230   N     0.21961   0.05586   0.90225   0.00000  Uiso   1.00
C231   C     0.46594   0.85387   0.34019   0.00000  Uiso   1.00
C232   C     0.46638   0.84068   0.26547   0.00000  Uiso   1.00
C233   C     0.41537   0.87648   0.22032   0.00000  Uiso   1.00
C234   C     0.42537   0.85657   0.15410   0.00000  Uiso   1.00
C235   C     0.41707   0.84424   0.04116   0.00000  Uiso   1.00
C236   C     0.45603   0.77168   0.37126   0.00000  Uiso   1.00
C237   C     0.39633   0.74948   0.41507   0.00000  Uiso   1.00
C238   C     0.39763   0.67149   0.43792   0.00000  Uiso   1.00
C239   C     0.37330   0.55206   0.48927   0.00000  Uiso   1.00
C240   C     0.54972   0.88138   0.35827   0.00000  Uiso   1.00
C241   C     0.56879   0.95141   0.39117   0.00000  Uiso   1.00
C242   C     0.64896   0.96577   0.40309   0.00000  Uiso   1.00
C243   C     0.77008   0.01667   0.43426   0.00000  Uiso   1.00
C244   C     0.57440   0.75485   0.30288   0.00000  Uiso   1.00
C245   C     0.52529   0.78689   0.24520   0.00000  Uiso   1.00
C246   C     0.53537   0.76693   0.17903   0.00000  Uiso   1.00
C247   C     0.48439   0.80269   0.13379   0.00000  Uiso   1.00
C248   C     0.51494   0.71790   0.35100   0.00000  Uiso   1.00
C249   C     0.51633   0.63992   0.37379   0.00000  Uiso   1.00
C250   C     0.45664   0.61761   0.41762   0.00000  Uiso   1.00
C251   C     0.60863   0.82760   0.33800   0.00000  Uiso   1.00
C252   C     0.68878   0.84185   0.34988   0.00000  Uiso   1.00
C253   C     0.70797   0.91189   0.38279   0.00000  Uiso   1.00
H254   H     0.42007   0.89574   0.35597   0.00000  Uiso   1.00
H255   H     0.36978   0.91809   0.23602   0.00000  Uiso   1.00
H256   H     0.35075   0.79112   0.43075   0.00000  Uiso   1.00
H257   H     0.52318   0.99301   0.40684   0.00000  Uiso   1.00
H258   H     0.34000   0.91914   0.09410   0.00000  Uiso   1.00
H259   H     0.29988   0.65141   0.50472   0.00000  Uiso   1.00
H260   H     0.66348   0.07715   0.45431   0.00000  Uiso   1.00
H261   H     0.62027   0.71297   0.28710   0.00000  Uiso   1.00
H262   H     0.58097   0.72530   0.16337   0.00000  Uiso   1.00
H263   H     0.56193   0.59832   0.35810   0.00000  Uiso   1.00
H264   H     0.73436   0.80022   0.33419   0.00000  Uiso   1.00
H265   H     0.51140   0.76266   0.03513   0.00000  Uiso   1.00
H266   H     0.47128   0.49493   0.44575   0.00000  Uiso   1.00
H267   H     0.83488   0.92067   0.39534   0.00000  Uiso   1.00
O268   O     0.39622   0.85229   0.98447   0.00000  Uiso   1.00
O269   O     0.34360   0.50104   0.52319   0.00000  Uiso   1.00
O270   O     0.82062   0.05960   0.45705   0.00000  Uiso   1.00
N271   N     0.38574   0.88063   0.09720   0.00000  Uiso   1.00
N272   N     0.34823   0.63031   0.48109   0.00000  Uiso   1.00
N273   N     0.68816   0.02834   0.43398   0.00000  Uiso   1.00
N274   N     0.47797   0.79643   0.06547   0.00000  Uiso   1.00
N275   N     0.44046   0.54611   0.44936   0.00000  Uiso   1.00
N276   N     0.78039   0.94414   0.40225   0.00000  Uiso   1.00
C277   C     0.64613   0.96594   0.09019   0.00000  Uiso   1.00
C278   C     0.65932   0.96638   0.01547   0.00000  Uiso   1.00
C279   C     0.62352   0.91537   0.97032   0.00000  Uiso   1.00
C280   C     0.64343   0.92537   0.90410   0.00000  Uiso   1.00
C281   C     0.65576   0.91707   0.79116   0.00000  Uiso   1.00
C282   C     0.72832   0.95603   0.12126   0.00000  Uiso   1.00
C283   C     0.75052   0.89633   0.16507   0.00000  Uiso   1.00
C284   C     0.82851   0.89763   0.18792   0.00000  Uiso   1.00
C285   C     0.94794   0.87330   0.23927   0.00000  Uiso   1.00
C286   C     0.61862   0.04972   0.10827   0.00000  Uiso   1.00
C287   C     0.54859   0.06879   0.14117   0.00000  Uiso   1.00
C288   C     0.53423   0.14896   0.15309   0.00000  Uiso   1.00
C289   C     0.48333   0.27008   0.18426   0.00000  Uiso   1.00
C290   C     0.74515   0.07440   0.05288   0.00000  Uiso   1.00
C291   C     0.71311   0.02529   0.99520   0.00000  Uiso   1.00
C292   C     0.73307   0.03537   0.92903   0.00000  Uiso   1.00
C293   C     0.69731   0.98439   0.88379   0.00000  Uiso   1.00
C294   C     0.78210   0.01494   0.10100   0.00000  Uiso   1.00
C295   C     0.86008   0.01633   0.12379   0.00000  Uiso   1.00
C296   C     0.88239   0.95664   0.16762   0.00000  Uiso   1.00
C297   C     0.67240   0.10863   0.08800   0.00000  Uiso   1.00
C298   C     0.65815   0.18878   0.09988   0.00000  Uiso   1.00
C299   C     0.58811   0.20797   0.13279   0.00000  Uiso   1.00
H300   H     0.60426   0.92007   0.10597   0.00000  Uiso   1.00
H301   H     0.58191   0.86978   0.98602   0.00000  Uiso   1.00
H302   H     0.70888   0.85075   0.18075   0.00000  Uiso   1.00
H303   H     0.50699   0.02318   0.15684   0.00000  Uiso   1.00
H304   H     0.58086   0.84000   0.84410   0.00000  Uiso   1.00
H305   H     0.84859   0.79988   0.25472   0.00000  Uiso   1.00
H306   H     0.42285   0.16348   0.20431   0.00000  Uiso   1.00
H307   H     0.78703   0.12027   0.03710   0.00000  Uiso   1.00
H308   H     0.77470   0.08097   0.91337   0.00000  Uiso   1.00
H309   H     0.90168   0.06193   0.10810   0.00000  Uiso   1.00
H310   H     0.69978   0.23436   0.08419   0.00000  Uiso   1.00
H311   H     0.73734   0.01140   0.78513   0.00000  Uiso   1.00
H312   H     0.00507   0.97128   0.19575   0.00000  Uiso   1.00
H313   H     0.57933   0.33488   0.14534   0.00000  Uiso   1.00
O314   O     0.64771   0.89622   0.73447   0.00000  Uiso   1.00
O315   O     0.99896   0.84360   0.27319   0.00000  Uiso   1.00
O316   O     0.44040   0.32062   0.20705   0.00000  Uiso   1.00
N317   N     0.61937   0.88574   0.84720   0.00000  Uiso   1.00
N318   N     0.86969   0.84823   0.23109   0.00000  Uiso   1.00
N319   N     0.47166   0.18816   0.18398   0.00000  Uiso   1.00
N320   N     0.70357   0.97797   0.81547   0.00000  Uiso   1.00
N321   N     0.95389   0.94046   0.19936   0.00000  Uiso   1.00
N322   N     0.55586   0.28039   0.15225   0.00000  Uiso   1.00
C323   C     0.35387   0.03406   0.59019   0.00000  Uiso   1.00
C324   C     0.34068   0.03362   0.51547   0.00000  Uiso   1.00
C325   C     0.37648   0.08463   0.47032   0.00000  Uiso   1.00
C326   C     0.35657   0.07463   0.40410   0.00000  Uiso   1.00
C327   C     0.34424   0.08293   0.29116   0.00000  Uiso   1.00
C328   C     0.27168   0.04397   0.62126   0.00000  Uiso   1.00
C329   C     0.24948   0.10367   0.66507   0.00000  Uiso   1.00
C330   C     0.17149   0.10237   0.68792   0.00000  Uiso   1.00
C331   C     0.05206   0.12670   0.73927   0.00000  Uiso   1.00
C332   C     0.38138   0.95028   0.60827   0.00000  Uiso   1.00
C333   C     0.45141   0.93121   0.64117   0.00000  Uiso   1.00
C334   C     0.46577   0.85104   0.65309   0.00000  Uiso   1.00
C335   C     0.51667   0.72992   0.68426   0.00000  Uiso   1.00
C336   C     0.25485   0.92560   0.55288   0.00000  Uiso   1.00
C337   C     0.28689   0.97471   0.49520   0.00000  Uiso   1.00
C338   C     0.26693   0.96463   0.42903   0.00000  Uiso   1.00
C339   C     0.30269   0.01561   0.38379   0.00000  Uiso   1.00
C340   C     0.21790   0.98506   0.60100   0.00000  Uiso   1.00
C341   C     0.13992   0.98367   0.62379   0.00000  Uiso   1.00
C342   C     0.11761   0.04336   0.66762   0.00000  Uiso   1.00
C343   C     0.32760   0.89137   0.58800   0.00000  Uiso   1.00
C344   C     0.34185   0.81122   0.59988   0.00000  Uiso   1.00
C345   C     0.41189   0.79203   0.63279   0.00000  Uiso   1.00
H346   H     0.39574   0.07993   0.60597   0.00000  Uiso   1.00
H347   H     0.41809   0.13022   0.48602   0.00000  Uiso   1.00
H348   H     0.29112   0.14925   0.68075   0.00000  Uiso   1.00
H349   H     0.49301   0.97682   0.65684   0.00000  Uiso   1.00
H350   H     0.41914   0.16000   0.34410   0.00000  Uiso   1.00
H351   H     0.15141   0.20012   0.75472   0.00000  Uiso   1.00
H352   H     0.57715   0.83652   0.70431   0.00000  Uiso   1.00
H353   H     0.21297   0.87973   0.53710   0.00000  Uiso   1.00
H354   H     0.22530   0.91903   0.41337   0.00000  Uiso   1.00
H355   H     0.09832   0.93807   0.60810   0.00000  Uiso   1.00
H356   H     0.30022   0.76564   0.58419   0.00000  Uiso   1.00
H357   H     0.26266   0.98860   0.28513   0.00000  Uiso   1.00
H358   H     0.99493   0.02872   0.69575   0.00000  Uiso   1.00
H359   H     0.42067   0.66512   0.64534   0.00000  Uiso   1.00
O360   O     0.35229   0.10378   0.23447   0.00000  Uiso   1.00
O361   O     0.00104   0.15640   0.77319   0.00000  Uiso   1.00
O362   O     0.55960   0.67938   0.70705   0.00000  Uiso   1.00
N363   N     0.38063   0.11426   0.34720   0.00000  Uiso   1.00
N364   N     0.13031   0.15177   0.73109   0.00000  Uiso   1.00
N365   N     0.52834   0.81184   0.68398   0.00000  Uiso   1.00
N366   N     0.29643   0.02203   0.31547   0.00000  Uiso   1.00
N367   N     0.04611   0.05954   0.69936   0.00000  Uiso   1.00
N368   N     0.44414   0.71961   0.65225   0.00000  Uiso   1.00
