data_job_04093
_audit_creation_date              2018-12-19
_audit_creation_method            'Materials Studio'
_symmetry_space_group_name_H-M    'P1'
_symmetry_Int_Tables_number       1
_symmetry_cell_setting            triclinic
loop_
_symmetry_equiv_pos_as_xyz
  x,y,z
_cell_length_a                    11.6517
_cell_length_b                    12.4807
_cell_length_c                    28.0139
_cell_angle_alpha                 90.0000
_cell_angle_beta                  125.3352
_cell_angle_gamma                 90.0000
loop_
_atom_site_label
_atom_site_type_symbol
_atom_site_fract_x
_atom_site_fract_y
_atom_site_fract_z
_atom_site_U_iso_or_equiv
_atom_site_adp_type
_atom_site_occupancy
C1     C     0.87015   0.39107   0.78527   0.00000  Uiso   1.00
C2     C     0.92774   0.50108   0.81250   0.00000  Uiso   1.00
C3     C     0.00818   0.56670   0.80262   0.00000  Uiso   1.00
C4     C     0.05069   0.66435   0.83170   0.00000  Uiso   1.00
C5     C     0.14576   0.83045   0.86830   0.00000  Uiso   1.00
C6     C     0.92501   0.31376   0.83628   0.00000  Uiso   1.00
C7     C     0.00313   0.22186   0.84638   0.00000  Uiso   1.00
C8     C     0.04332   0.16181   0.89548   0.00000  Uiso   1.00
C9     C     0.13405   0.03705   0.96896   0.00000  Uiso   1.00
C10    C     0.71141   0.39725   0.75446   0.00000  Uiso   1.00
C11    C     0.60993   0.37554   0.69577   0.00000  Uiso   1.00
C12    C     0.47028   0.38576   0.67598   0.00000  Uiso   1.00
C13    C     0.22938   0.39064   0.62243   0.00000  Uiso   1.00
C14    C     0.80259   0.44781   0.85449   0.00000  Uiso   1.00
C15    C     0.89105   0.53190   0.85010   0.00000  Uiso   1.00
C16    C     0.93344   0.62948   0.87921   0.00000  Uiso   1.00
C17    C     0.01392   0.69522   0.86937   0.00000  Uiso   1.00
C18    C     0.88831   0.34457   0.87388   0.00000  Uiso   1.00
C19    C     0.92838   0.28464   0.92297   0.00000  Uiso   1.00
C20    C     0.00656   0.19268   0.93315   0.00000  Uiso   1.00
C21    C     0.67471   0.42808   0.79206   0.00000  Uiso   1.00
C22    C     0.53519   0.43832   0.77236   0.00000  Uiso   1.00
C23    C     0.43352   0.41663   0.71365   0.00000  Uiso   1.00
H24    H     0.89872   0.36707   0.75600   0.00000  Uiso   1.00
H25    H     0.03657   0.54281   0.77352   0.00000  Uiso   1.00
H26    H     0.03150   0.19803   0.81728   0.00000  Uiso   1.00
H27    H     0.63837   0.35169   0.66669   0.00000  Uiso   1.00
H28    H     0.17326   0.75123   0.80955   0.00000  Uiso   1.00
H29    H     0.16253   0.02421   0.90180   0.00000  Uiso   1.00
H30    H     0.33354   0.34823   0.58425   0.00000  Uiso   1.00
H31    H     0.77402   0.47181   0.88377   0.00000  Uiso   1.00
H32    H     0.90502   0.65330   0.90830   0.00000  Uiso   1.00
H33    H     0.89996   0.30851   0.95206   0.00000  Uiso   1.00
H34    H     0.50683   0.46217   0.80147   0.00000  Uiso   1.00
H35    H     0.06650   0.84091   0.91895   0.00000  Uiso   1.00
H36    H     0.05577   0.11388   0.01119   0.00000  Uiso   1.00
H37    H     0.22678   0.43790   0.69365   0.00000  Uiso   1.00
O38    O     0.20835   0.91356   0.87810   0.00000  Uiso   1.00
O39    O     0.19425   0.95972   0.99911   0.00000  Uiso   1.00
O40    O     0.10664   0.38483   0.58250   0.00000  Uiso   1.00
N41    N     0.13013   0.74744   0.83192   0.00000  Uiso   1.00
N42    N     0.12012   0.06772   0.91817   0.00000  Uiso   1.00
N43    N     0.34508   0.37063   0.62129   0.00000  Uiso   1.00
N44    N     0.07268   0.79569   0.89079   0.00000  Uiso   1.00
N45    N     0.06267   0.11598   0.97703   0.00000  Uiso   1.00
N46    N     0.28764   0.41888   0.68016   0.00000  Uiso   1.00
C47    C     0.12985   0.89107   0.71473   0.00000  Uiso   1.00
C48    C     0.07226   0.00108   0.68750   0.00000  Uiso   1.00
C49    C     0.99182   0.06670   0.69738   0.00000  Uiso   1.00
C50    C     0.94931   0.16435   0.66830   0.00000  Uiso   1.00
C51    C     0.85424   0.33045   0.63170   0.00000  Uiso   1.00
C52    C     0.07499   0.81376   0.66372   0.00000  Uiso   1.00
C53    C     0.99687   0.72186   0.65362   0.00000  Uiso   1.00
C54    C     0.95668   0.66181   0.60452   0.00000  Uiso   1.00
C55    C     0.86595   0.53705   0.53104   0.00000  Uiso   1.00
C56    C     0.28859   0.89725   0.74554   0.00000  Uiso   1.00
C57    C     0.39007   0.87554   0.80423   0.00000  Uiso   1.00
C58    C     0.52972   0.88576   0.82402   0.00000  Uiso   1.00
C59    C     0.77062   0.89064   0.87757   0.00000  Uiso   1.00
C60    C     0.19741   0.94781   0.64551   0.00000  Uiso   1.00
C61    C     0.10895   0.03190   0.64990   0.00000  Uiso   1.00
C62    C     0.06656   0.12948   0.62079   0.00000  Uiso   1.00
C63    C     0.98608   0.19522   0.63063   0.00000  Uiso   1.00
C64    C     0.11169   0.84457   0.62612   0.00000  Uiso   1.00
C65    C     0.07162   0.78464   0.57703   0.00000  Uiso   1.00
C66    C     0.99344   0.69268   0.56685   0.00000  Uiso   1.00
C67    C     0.32529   0.92808   0.70794   0.00000  Uiso   1.00
C68    C     0.46481   0.93832   0.72764   0.00000  Uiso   1.00
C69    C     0.56648   0.91663   0.78635   0.00000  Uiso   1.00
H70    H     0.10128   0.86707   0.74400   0.00000  Uiso   1.00
H71    H     0.96343   0.04281   0.72648   0.00000  Uiso   1.00
H72    H     0.96850   0.69803   0.68272   0.00000  Uiso   1.00
H73    H     0.36163   0.85169   0.83331   0.00000  Uiso   1.00
H74    H     0.82674   0.25123   0.69045   0.00000  Uiso   1.00
H75    H     0.83747   0.52421   0.59820   0.00000  Uiso   1.00
H76    H     0.66646   0.84823   0.91575   0.00000  Uiso   1.00
H77    H     0.22598   0.97181   0.61623   0.00000  Uiso   1.00
H78    H     0.09498   0.15330   0.59170   0.00000  Uiso   1.00
H79    H     0.10004   0.80851   0.54794   0.00000  Uiso   1.00
H80    H     0.49317   0.96217   0.69853   0.00000  Uiso   1.00
H81    H     0.93350   0.34091   0.58105   0.00000  Uiso   1.00
H82    H     0.94423   0.61388   0.48881   0.00000  Uiso   1.00
H83    H     0.77322   0.93790   0.80635   0.00000  Uiso   1.00
O84    O     0.79165   0.41356   0.62190   0.00000  Uiso   1.00
O85    O     0.80575   0.45972   0.50089   0.00000  Uiso   1.00
O86    O     0.89336   0.88483   0.91750   0.00000  Uiso   1.00
N87    N     0.86987   0.24744   0.66808   0.00000  Uiso   1.00
N88    N     0.87988   0.56772   0.58183   0.00000  Uiso   1.00
N89    N     0.65492   0.87063   0.87871   0.00000  Uiso   1.00
N90    N     0.92732   0.29569   0.60921   0.00000  Uiso   1.00
N91    N     0.93733   0.61598   0.52297   0.00000  Uiso   1.00
N92    N     0.71236   0.91888   0.81984   0.00000  Uiso   1.00
C93    C     0.12985   0.60893   0.21473   0.00000  Uiso   1.00
C94    C     0.07226   0.49892   0.18750   0.00000  Uiso   1.00
C95    C     0.99182   0.43330   0.19738   0.00000  Uiso   1.00
C96    C     0.94931   0.33565   0.16830   0.00000  Uiso   1.00
C97    C     0.85424   0.16955   0.13170   0.00000  Uiso   1.00
C98    C     0.07499   0.68624   0.16372   0.00000  Uiso   1.00
C99    C     0.99687   0.77814   0.15362   0.00000  Uiso   1.00
C100   C     0.95668   0.83819   0.10452   0.00000  Uiso   1.00
C101   C     0.86595   0.96295   0.03104   0.00000  Uiso   1.00
C102   C     0.28859   0.60275   0.24554   0.00000  Uiso   1.00
C103   C     0.39007   0.62446   0.30423   0.00000  Uiso   1.00
C104   C     0.52972   0.61424   0.32402   0.00000  Uiso   1.00
C105   C     0.77062   0.60936   0.37757   0.00000  Uiso   1.00
C106   C     0.19741   0.55219   0.14551   0.00000  Uiso   1.00
C107   C     0.10895   0.46810   0.14990   0.00000  Uiso   1.00
C108   C     0.06656   0.37052   0.12079   0.00000  Uiso   1.00
C109   C     0.98608   0.30478   0.13063   0.00000  Uiso   1.00
C110   C     0.11169   0.65543   0.12612   0.00000  Uiso   1.00
C111   C     0.07162   0.71536   0.07703   0.00000  Uiso   1.00
C112   C     0.99344   0.80732   0.06685   0.00000  Uiso   1.00
C113   C     0.32529   0.57192   0.20794   0.00000  Uiso   1.00
C114   C     0.46481   0.56168   0.22764   0.00000  Uiso   1.00
C115   C     0.56648   0.58337   0.28635   0.00000  Uiso   1.00
H116   H     0.10128   0.63293   0.24400   0.00000  Uiso   1.00
H117   H     0.96343   0.45719   0.22648   0.00000  Uiso   1.00
H118   H     0.96850   0.80197   0.18272   0.00000  Uiso   1.00
H119   H     0.36163   0.64831   0.33331   0.00000  Uiso   1.00
H120   H     0.82674   0.24877   0.19045   0.00000  Uiso   1.00
H121   H     0.83747   0.97579   0.09820   0.00000  Uiso   1.00
H122   H     0.66646   0.65177   0.41575   0.00000  Uiso   1.00
H123   H     0.22598   0.52819   0.11623   0.00000  Uiso   1.00
H124   H     0.09498   0.34670   0.09170   0.00000  Uiso   1.00
H125   H     0.10004   0.69149   0.04794   0.00000  Uiso   1.00
H126   H     0.49317   0.53783   0.19853   0.00000  Uiso   1.00
H127   H     0.93350   0.15909   0.08105   0.00000  Uiso   1.00
H128   H     0.94423   0.88612   0.98881   0.00000  Uiso   1.00
H129   H     0.77322   0.56210   0.30635   0.00000  Uiso   1.00
O130   O     0.79165   0.08644   0.12190   0.00000  Uiso   1.00
O131   O     0.80575   0.04028   0.00089   0.00000  Uiso   1.00
O132   O     0.89336   0.61517   0.41750   0.00000  Uiso   1.00
N133   N     0.86987   0.25256   0.16808   0.00000  Uiso   1.00
N134   N     0.87988   0.93228   0.08183   0.00000  Uiso   1.00
N135   N     0.65492   0.62937   0.37871   0.00000  Uiso   1.00
N136   N     0.92732   0.20431   0.10921   0.00000  Uiso   1.00
N137   N     0.93733   0.88402   0.02297   0.00000  Uiso   1.00
N138   N     0.71236   0.58112   0.31984   0.00000  Uiso   1.00
C139   C     0.87015   0.10893   0.28527   0.00000  Uiso   1.00
C140   C     0.92774   0.99892   0.31250   0.00000  Uiso   1.00
C141   C     0.00818   0.93330   0.30262   0.00000  Uiso   1.00
C142   C     0.05069   0.83565   0.33170   0.00000  Uiso   1.00
C143   C     0.14576   0.66955   0.36830   0.00000  Uiso   1.00
C144   C     0.92501   0.18624   0.33628   0.00000  Uiso   1.00
C145   C     0.00313   0.27814   0.34638   0.00000  Uiso   1.00
C146   C     0.04332   0.33819   0.39548   0.00000  Uiso   1.00
C147   C     0.13405   0.46295   0.46896   0.00000  Uiso   1.00
C148   C     0.71141   0.10275   0.25446   0.00000  Uiso   1.00
C149   C     0.60993   0.12446   0.19577   0.00000  Uiso   1.00
C150   C     0.47028   0.11424   0.17598   0.00000  Uiso   1.00
C151   C     0.22938   0.10936   0.12243   0.00000  Uiso   1.00
C152   C     0.80259   0.05219   0.35449   0.00000  Uiso   1.00
C153   C     0.89105   0.96810   0.35010   0.00000  Uiso   1.00
C154   C     0.93344   0.87052   0.37921   0.00000  Uiso   1.00
C155   C     0.01392   0.80478   0.36937   0.00000  Uiso   1.00
C156   C     0.88831   0.15543   0.37388   0.00000  Uiso   1.00
C157   C     0.92838   0.21536   0.42297   0.00000  Uiso   1.00
C158   C     0.00656   0.30732   0.43315   0.00000  Uiso   1.00
C159   C     0.67471   0.07192   0.29206   0.00000  Uiso   1.00
C160   C     0.53519   0.06168   0.27236   0.00000  Uiso   1.00
C161   C     0.43352   0.08337   0.21365   0.00000  Uiso   1.00
H162   H     0.89872   0.13293   0.25600   0.00000  Uiso   1.00
H163   H     0.03657   0.95719   0.27352   0.00000  Uiso   1.00
H164   H     0.03150   0.30197   0.31728   0.00000  Uiso   1.00
H165   H     0.63837   0.14831   0.16669   0.00000  Uiso   1.00
H166   H     0.17326   0.74877   0.30955   0.00000  Uiso   1.00
H167   H     0.16253   0.47579   0.40180   0.00000  Uiso   1.00
H168   H     0.33354   0.15177   0.08425   0.00000  Uiso   1.00
H169   H     0.77402   0.02819   0.38377   0.00000  Uiso   1.00
H170   H     0.90502   0.84670   0.40830   0.00000  Uiso   1.00
H171   H     0.89996   0.19149   0.45206   0.00000  Uiso   1.00
H172   H     0.50683   0.03783   0.30147   0.00000  Uiso   1.00
H173   H     0.06650   0.65909   0.41895   0.00000  Uiso   1.00
H174   H     0.05577   0.38612   0.51119   0.00000  Uiso   1.00
H175   H     0.22678   0.06210   0.19365   0.00000  Uiso   1.00
O176   O     0.20835   0.58644   0.37810   0.00000  Uiso   1.00
O177   O     0.19425   0.54028   0.49911   0.00000  Uiso   1.00
O178   O     0.10664   0.11517   0.08250   0.00000  Uiso   1.00
N179   N     0.13013   0.75256   0.33192   0.00000  Uiso   1.00
N180   N     0.12012   0.43228   0.41817   0.00000  Uiso   1.00
N181   N     0.34508   0.12937   0.12129   0.00000  Uiso   1.00
N182   N     0.07268   0.70431   0.39079   0.00000  Uiso   1.00
N183   N     0.06267   0.38402   0.47703   0.00000  Uiso   1.00
N184   N     0.28764   0.08112   0.18016   0.00000  Uiso   1.00
