data_job_03285
_audit_creation_date              2018-12-19
_audit_creation_method            'Materials Studio'
_symmetry_space_group_name_H-M    'P1'
_symmetry_Int_Tables_number       1
_symmetry_cell_setting            triclinic
loop_
_symmetry_equiv_pos_as_xyz
  x,y,z
_cell_length_a                    18.5152
_cell_length_b                    18.5152
_cell_length_c                    14.3750
_cell_angle_alpha                 90.0000
_cell_angle_beta                  90.0000
_cell_angle_gamma                 120.0000
loop_
_atom_site_label
_atom_site_type_symbol
_atom_site_fract_x
_atom_site_fract_y
_atom_site_fract_z
_atom_site_U_iso_or_equiv
_atom_site_adp_type
_atom_site_occupancy
C1     C     0.76614   0.22419   0.05245   0.00000  Uiso   1.00
C2     C     0.72985   0.13885   0.00636   0.00000  Uiso   1.00
C3     C     0.74950   0.12356   0.91808   0.00000  Uiso   1.00
C4     C     0.70953   0.04113   0.88855   0.00000  Uiso   1.00
C5     C     0.66190   0.91847   0.80833   0.00000  Uiso   1.00
C6     C     0.69180   0.23419   0.07863   0.00000  Uiso   1.00
C7     C     0.67946   0.29907   0.05112   0.00000  Uiso   1.00
C8     C     0.60746   0.29690   0.08244   0.00000  Uiso   1.00
C9     C     0.50079   0.32229   0.11447   0.00000  Uiso   1.00
C10    C     0.80419   0.21784   0.14401   0.00000  Uiso   1.00
C11    C     0.88634   0.26899   0.17149   0.00000  Uiso   1.00
C12    C     0.90897   0.25306   0.25788   0.00000  Uiso   1.00
C13    C     0.97679   0.25307   0.39142   0.00000  Uiso   1.00
C14    C     0.66023   0.10498   0.15701   0.00000  Uiso   1.00
C15    C     0.67232   0.07410   0.06316   0.00000  Uiso   1.00
C16    C     0.63232   0.99167   0.03376   0.00000  Uiso   1.00
C17    C     0.65190   0.97626   0.94545   0.00000  Uiso   1.00
C18    C     0.63427   0.16944   0.13542   0.00000  Uiso   1.00
C19    C     0.56228   0.16718   0.16680   0.00000  Uiso   1.00
C20    C     0.54983   0.23204   0.13934   0.00000  Uiso   1.00
C21    C     0.74667   0.15309   0.20081   0.00000  Uiso   1.00
C22    C     0.76917   0.13709   0.28717   0.00000  Uiso   1.00
C23    C     0.85134   0.18820   0.31477   0.00000  Uiso   1.00
H24    H     0.81092   0.27460   0.00824   0.00000  Uiso   1.00
H25    H     0.79401   0.17368   0.87414   0.00000  Uiso   1.00
H26    H     0.72399   0.34917   0.00717   0.00000  Uiso   1.00
H27    H     0.93084   0.31908   0.12752   0.00000  Uiso   1.00
H28    H     0.74987   0.03325   0.75051   0.00000  Uiso   1.00
H29    H     0.60224   0.40328   0.03104   0.00000  Uiso   1.00
H30    H     0.03842   0.33985   0.28482   0.00000  Uiso   1.00
H31    H     0.61545   0.05457   0.20123   0.00000  Uiso   1.00
H32    H     0.58781   0.94158   0.07772   0.00000  Uiso   1.00
H33    H     0.51778   0.11707   0.21075   0.00000  Uiso   1.00
H34    H     0.72463   0.08698   0.33110   0.00000  Uiso   1.00
H35    H     0.58250   0.84487   0.91574   0.00000  Uiso   1.00
H36    H     0.43487   0.21491   0.19627   0.00000  Uiso   1.00
H37    H     0.87106   0.15147   0.45005   0.00000  Uiso   1.00
O38    O     0.65151   0.86870   0.74839   0.00000  Uiso   1.00
O39    O     0.45784   0.35418   0.11644   0.00000  Uiso   1.00
O40    O     0.03010   0.27096   0.44939   0.00000  Uiso   1.00
N41    N     0.71429   0.00442   0.80636   0.00000  Uiso   1.00
N42    N     0.57625   0.35037   0.06862   0.00000  Uiso   1.00
N43    N     0.98404   0.29108   0.30589   0.00000  Uiso   1.00
N44    N     0.62423   0.90305   0.89526   0.00000  Uiso   1.00
N45    N     0.48620   0.24901   0.15752   0.00000  Uiso   1.00
N46    N     0.89399   0.18971   0.39480   0.00000  Uiso   1.00
C47    C     0.77581   0.54196   0.38578   0.00000  Uiso   1.00
C48    C     0.86115   0.59101   0.33969   0.00000  Uiso   1.00
C49    C     0.87644   0.62594   0.25141   0.00000  Uiso   1.00
C50    C     0.95887   0.66840   0.22189   0.00000  Uiso   1.00
C51    C     0.08153   0.74343   0.14166   0.00000  Uiso   1.00
C52    C     0.76581   0.45761   0.41196   0.00000  Uiso   1.00
C53    C     0.70093   0.38039   0.38445   0.00000  Uiso   1.00
C54    C     0.70310   0.31057   0.41578   0.00000  Uiso   1.00
C55    C     0.67771   0.17850   0.44781   0.00000  Uiso   1.00
C56    C     0.78216   0.58635   0.47734   0.00000  Uiso   1.00
C57    C     0.73101   0.61736   0.50482   0.00000  Uiso   1.00
C58    C     0.74694   0.65590   0.59121   0.00000  Uiso   1.00
C59    C     0.74693   0.72372   0.72475   0.00000  Uiso   1.00
C60    C     0.89502   0.55525   0.49034   0.00000  Uiso   1.00
C61    C     0.92590   0.59822   0.39649   0.00000  Uiso   1.00
C62    C     0.00833   0.64065   0.36709   0.00000  Uiso   1.00
C63    C     0.02374   0.67564   0.27878   0.00000  Uiso   1.00
C64    C     0.83056   0.46483   0.46875   0.00000  Uiso   1.00
C65    C     0.83282   0.39510   0.50013   0.00000  Uiso   1.00
C66    C     0.76796   0.31780   0.47267   0.00000  Uiso   1.00
C67    C     0.84691   0.59358   0.53414   0.00000  Uiso   1.00
C68    C     0.86291   0.63207   0.62050   0.00000  Uiso   1.00
C69    C     0.81180   0.66314   0.64810   0.00000  Uiso   1.00
H70    H     0.72540   0.53633   0.34157   0.00000  Uiso   1.00
H71    H     0.82632   0.62033   0.20748   0.00000  Uiso   1.00
H72    H     0.65083   0.37482   0.34051   0.00000  Uiso   1.00
H73    H     0.68092   0.61176   0.46086   0.00000  Uiso   1.00
H74    H     0.96675   0.71662   0.08384   0.00000  Uiso   1.00
H75    H     0.59672   0.19896   0.36437   0.00000  Uiso   1.00
H76    H     0.66015   0.69857   0.61815   0.00000  Uiso   1.00
H77    H     0.94543   0.56087   0.53456   0.00000  Uiso   1.00
H78    H     0.05842   0.64623   0.41106   0.00000  Uiso   1.00
H79    H     0.88293   0.40072   0.54408   0.00000  Uiso   1.00
H80    H     0.91302   0.63765   0.66443   0.00000  Uiso   1.00
H81    H     0.15513   0.73763   0.24907   0.00000  Uiso   1.00
H82    H     0.78509   0.21997   0.52960   0.00000  Uiso   1.00
H83    H     0.84853   0.71959   0.78338   0.00000  Uiso   1.00
O84    O     0.13130   0.78281   0.08172   0.00000  Uiso   1.00
O85    O     0.64582   0.10365   0.44977   0.00000  Uiso   1.00
O86    O     0.72904   0.75914   0.78272   0.00000  Uiso   1.00
N87    N     0.99558   0.70987   0.13969   0.00000  Uiso   1.00
N88    N     0.64963   0.22588   0.40195   0.00000  Uiso   1.00
N89    N     0.70892   0.69296   0.63922   0.00000  Uiso   1.00
N90    N     0.09695   0.72118   0.22860   0.00000  Uiso   1.00
N91    N     0.75099   0.23719   0.49086   0.00000  Uiso   1.00
N92    N     0.81029   0.70427   0.72813   0.00000  Uiso   1.00
C93    C     0.45804   0.23386   0.71912   0.00000  Uiso   1.00
C94    C     0.40899   0.27015   0.67303   0.00000  Uiso   1.00
C95    C     0.37406   0.25050   0.58475   0.00000  Uiso   1.00
C96    C     0.33160   0.29047   0.55522   0.00000  Uiso   1.00
C97    C     0.25657   0.33810   0.47500   0.00000  Uiso   1.00
C98    C     0.54239   0.30820   0.74530   0.00000  Uiso   1.00
C99    C     0.61961   0.32054   0.71778   0.00000  Uiso   1.00
C100   C     0.68943   0.39254   0.74911   0.00000  Uiso   1.00
C101   C     0.82150   0.49921   0.78114   0.00000  Uiso   1.00
C102   C     0.41365   0.19581   0.81068   0.00000  Uiso   1.00
C103   C     0.38264   0.11366   0.83816   0.00000  Uiso   1.00
C104   C     0.34410   0.09103   0.92454   0.00000  Uiso   1.00
C105   C     0.27628   0.02321   0.05809   0.00000  Uiso   1.00
C106   C     0.44475   0.33977   0.82368   0.00000  Uiso   1.00
C107   C     0.40178   0.32768   0.72982   0.00000  Uiso   1.00
C108   C     0.35935   0.36768   0.70043   0.00000  Uiso   1.00
C109   C     0.32436   0.34810   0.61212   0.00000  Uiso   1.00
C110   C     0.53517   0.36573   0.80209   0.00000  Uiso   1.00
C111   C     0.60490   0.43772   0.83347   0.00000  Uiso   1.00
C112   C     0.68220   0.45017   0.80600   0.00000  Uiso   1.00
C113   C     0.40642   0.25333   0.86747   0.00000  Uiso   1.00
C114   C     0.36793   0.23083   0.95384   0.00000  Uiso   1.00
C115   C     0.33686   0.14866   0.98144   0.00000  Uiso   1.00
H116   H     0.46367   0.18908   0.67490   0.00000  Uiso   1.00
H117   H     0.37967   0.20599   0.54081   0.00000  Uiso   1.00
H118   H     0.62518   0.27601   0.67384   0.00000  Uiso   1.00
H119   H     0.38824   0.06916   0.79419   0.00000  Uiso   1.00
H120   H     0.28338   0.25013   0.41718   0.00000  Uiso   1.00
H121   H     0.80104   0.39776   0.69770   0.00000  Uiso   1.00
H122   H     0.30143   0.96158   0.95149   0.00000  Uiso   1.00
H123   H     0.43913   0.38455   0.86790   0.00000  Uiso   1.00
H124   H     0.35377   0.41219   0.74439   0.00000  Uiso   1.00
H125   H     0.59928   0.48222   0.87742   0.00000  Uiso   1.00
H126   H     0.36235   0.27537   0.99777   0.00000  Uiso   1.00
H127   H     0.26237   0.41750   0.58241   0.00000  Uiso   1.00
H128   H     0.78003   0.56513   0.86294   0.00000  Uiso   1.00
H129   H     0.28041   0.12894   0.11671   0.00000  Uiso   1.00
O130   O     0.21719   0.34849   0.41505   0.00000  Uiso   1.00
O131   O     0.89635   0.54216   0.78310   0.00000  Uiso   1.00
O132   O     0.24086   0.96990   0.11606   0.00000  Uiso   1.00
N133   N     0.29013   0.28571   0.47302   0.00000  Uiso   1.00
N134   N     0.77412   0.42375   0.73528   0.00000  Uiso   1.00
N135   N     0.30704   0.01596   0.97256   0.00000  Uiso   1.00
N136   N     0.27882   0.37577   0.56193   0.00000  Uiso   1.00
N137   N     0.76281   0.51380   0.82419   0.00000  Uiso   1.00
N138   N     0.29573   0.10601   0.06147   0.00000  Uiso   1.00
C139   C     0.23386   0.77581   0.55245   0.00000  Uiso   1.00
C140   C     0.27015   0.86115   0.50636   0.00000  Uiso   1.00
C141   C     0.25050   0.87644   0.41808   0.00000  Uiso   1.00
C142   C     0.29047   0.95887   0.38855   0.00000  Uiso   1.00
C143   C     0.33810   0.08153   0.30833   0.00000  Uiso   1.00
C144   C     0.30820   0.76581   0.57863   0.00000  Uiso   1.00
C145   C     0.32054   0.70093   0.55112   0.00000  Uiso   1.00
C146   C     0.39254   0.70310   0.58244   0.00000  Uiso   1.00
C147   C     0.49921   0.67771   0.61447   0.00000  Uiso   1.00
C148   C     0.19581   0.78216   0.64401   0.00000  Uiso   1.00
C149   C     0.11366   0.73101   0.67149   0.00000  Uiso   1.00
C150   C     0.09103   0.74694   0.75788   0.00000  Uiso   1.00
C151   C     0.02321   0.74693   0.89142   0.00000  Uiso   1.00
C152   C     0.33977   0.89502   0.65701   0.00000  Uiso   1.00
C153   C     0.32768   0.92590   0.56316   0.00000  Uiso   1.00
C154   C     0.36768   0.00833   0.53376   0.00000  Uiso   1.00
C155   C     0.34810   0.02374   0.44545   0.00000  Uiso   1.00
C156   C     0.36573   0.83056   0.63542   0.00000  Uiso   1.00
C157   C     0.43772   0.83282   0.66680   0.00000  Uiso   1.00
C158   C     0.45017   0.76796   0.63934   0.00000  Uiso   1.00
C159   C     0.25333   0.84691   0.70081   0.00000  Uiso   1.00
C160   C     0.23083   0.86291   0.78717   0.00000  Uiso   1.00
C161   C     0.14866   0.81180   0.81477   0.00000  Uiso   1.00
H162   H     0.18908   0.72540   0.50824   0.00000  Uiso   1.00
H163   H     0.20599   0.82632   0.37414   0.00000  Uiso   1.00
H164   H     0.27601   0.65083   0.50717   0.00000  Uiso   1.00
H165   H     0.06916   0.68092   0.62752   0.00000  Uiso   1.00
H166   H     0.25013   0.96675   0.25051   0.00000  Uiso   1.00
H167   H     0.39776   0.59672   0.53104   0.00000  Uiso   1.00
H168   H     0.96158   0.66015   0.78482   0.00000  Uiso   1.00
H169   H     0.38455   0.94543   0.70123   0.00000  Uiso   1.00
H170   H     0.41219   0.05842   0.57772   0.00000  Uiso   1.00
H171   H     0.48222   0.88293   0.71075   0.00000  Uiso   1.00
H172   H     0.27537   0.91302   0.83110   0.00000  Uiso   1.00
H173   H     0.41750   0.15513   0.41574   0.00000  Uiso   1.00
H174   H     0.56513   0.78509   0.69627   0.00000  Uiso   1.00
H175   H     0.12894   0.84853   0.95005   0.00000  Uiso   1.00
O176   O     0.34849   0.13130   0.24839   0.00000  Uiso   1.00
O177   O     0.54216   0.64582   0.61644   0.00000  Uiso   1.00
O178   O     0.96990   0.72904   0.94939   0.00000  Uiso   1.00
N179   N     0.28571   0.99558   0.30636   0.00000  Uiso   1.00
N180   N     0.42375   0.64963   0.56862   0.00000  Uiso   1.00
N181   N     0.01596   0.70892   0.80589   0.00000  Uiso   1.00
N182   N     0.37577   0.09695   0.39526   0.00000  Uiso   1.00
N183   N     0.51380   0.75099   0.65752   0.00000  Uiso   1.00
N184   N     0.10601   0.81029   0.89480   0.00000  Uiso   1.00
C185   C     0.22419   0.45804   0.88578   0.00000  Uiso   1.00
C186   C     0.13885   0.40899   0.83969   0.00000  Uiso   1.00
C187   C     0.12356   0.37406   0.75141   0.00000  Uiso   1.00
C188   C     0.04113   0.33160   0.72189   0.00000  Uiso   1.00
C189   C     0.91847   0.25657   0.64166   0.00000  Uiso   1.00
C190   C     0.23419   0.54239   0.91196   0.00000  Uiso   1.00
C191   C     0.29907   0.61961   0.88445   0.00000  Uiso   1.00
C192   C     0.29690   0.68943   0.91578   0.00000  Uiso   1.00
C193   C     0.32229   0.82150   0.94781   0.00000  Uiso   1.00
C194   C     0.21784   0.41365   0.97734   0.00000  Uiso   1.00
C195   C     0.26899   0.38264   0.00482   0.00000  Uiso   1.00
C196   C     0.25306   0.34410   0.09121   0.00000  Uiso   1.00
C197   C     0.25307   0.27628   0.22475   0.00000  Uiso   1.00
C198   C     0.10498   0.44475   0.99034   0.00000  Uiso   1.00
C199   C     0.07410   0.40178   0.89649   0.00000  Uiso   1.00
C200   C     0.99167   0.35935   0.86709   0.00000  Uiso   1.00
C201   C     0.97626   0.32436   0.77878   0.00000  Uiso   1.00
C202   C     0.16944   0.53517   0.96875   0.00000  Uiso   1.00
C203   C     0.16718   0.60490   0.00013   0.00000  Uiso   1.00
C204   C     0.23204   0.68220   0.97267   0.00000  Uiso   1.00
C205   C     0.15309   0.40642   0.03414   0.00000  Uiso   1.00
C206   C     0.13709   0.36793   0.12050   0.00000  Uiso   1.00
C207   C     0.18820   0.33686   0.14810   0.00000  Uiso   1.00
H208   H     0.27460   0.46367   0.84157   0.00000  Uiso   1.00
H209   H     0.17368   0.37967   0.70748   0.00000  Uiso   1.00
H210   H     0.34917   0.62518   0.84051   0.00000  Uiso   1.00
H211   H     0.31908   0.38824   0.96086   0.00000  Uiso   1.00
H212   H     0.03325   0.28338   0.58384   0.00000  Uiso   1.00
H213   H     0.40328   0.80104   0.86437   0.00000  Uiso   1.00
H214   H     0.33985   0.30143   0.11815   0.00000  Uiso   1.00
H215   H     0.05457   0.43913   0.03456   0.00000  Uiso   1.00
H216   H     0.94158   0.35377   0.91106   0.00000  Uiso   1.00
H217   H     0.11707   0.59928   0.04408   0.00000  Uiso   1.00
H218   H     0.08698   0.36235   0.16443   0.00000  Uiso   1.00
H219   H     0.84487   0.26237   0.74907   0.00000  Uiso   1.00
H220   H     0.21491   0.78003   0.02960   0.00000  Uiso   1.00
H221   H     0.15147   0.28041   0.28338   0.00000  Uiso   1.00
O222   O     0.86870   0.21719   0.58172   0.00000  Uiso   1.00
O223   O     0.35418   0.89635   0.94977   0.00000  Uiso   1.00
O224   O     0.27096   0.24086   0.28272   0.00000  Uiso   1.00
N225   N     0.00442   0.29013   0.63969   0.00000  Uiso   1.00
N226   N     0.35037   0.77412   0.90195   0.00000  Uiso   1.00
N227   N     0.29108   0.30704   0.13922   0.00000  Uiso   1.00
N228   N     0.90305   0.27882   0.72860   0.00000  Uiso   1.00
N229   N     0.24901   0.76281   0.99086   0.00000  Uiso   1.00
N230   N     0.18971   0.29573   0.22813   0.00000  Uiso   1.00
C231   C     0.54196   0.76614   0.21912   0.00000  Uiso   1.00
C232   C     0.59101   0.72985   0.17303   0.00000  Uiso   1.00
C233   C     0.62594   0.74950   0.08475   0.00000  Uiso   1.00
C234   C     0.66840   0.70953   0.05522   0.00000  Uiso   1.00
C235   C     0.74343   0.66190   0.97500   0.00000  Uiso   1.00
C236   C     0.45761   0.69180   0.24530   0.00000  Uiso   1.00
C237   C     0.38039   0.67946   0.21778   0.00000  Uiso   1.00
C238   C     0.31057   0.60746   0.24911   0.00000  Uiso   1.00
C239   C     0.17850   0.50079   0.28114   0.00000  Uiso   1.00
C240   C     0.58635   0.80419   0.31068   0.00000  Uiso   1.00
C241   C     0.61736   0.88634   0.33816   0.00000  Uiso   1.00
C242   C     0.65590   0.90897   0.42454   0.00000  Uiso   1.00
C243   C     0.72372   0.97679   0.55809   0.00000  Uiso   1.00
C244   C     0.55525   0.66023   0.32368   0.00000  Uiso   1.00
C245   C     0.59822   0.67232   0.22982   0.00000  Uiso   1.00
C246   C     0.64065   0.63232   0.20043   0.00000  Uiso   1.00
C247   C     0.67564   0.65190   0.11212   0.00000  Uiso   1.00
C248   C     0.46483   0.63427   0.30209   0.00000  Uiso   1.00
C249   C     0.39510   0.56228   0.33347   0.00000  Uiso   1.00
C250   C     0.31780   0.54983   0.30600   0.00000  Uiso   1.00
C251   C     0.59358   0.74667   0.36747   0.00000  Uiso   1.00
C252   C     0.63207   0.76917   0.45384   0.00000  Uiso   1.00
C253   C     0.66314   0.85134   0.48144   0.00000  Uiso   1.00
H254   H     0.53633   0.81092   0.17490   0.00000  Uiso   1.00
H255   H     0.62033   0.79401   0.04081   0.00000  Uiso   1.00
H256   H     0.37482   0.72399   0.17384   0.00000  Uiso   1.00
H257   H     0.61176   0.93084   0.29419   0.00000  Uiso   1.00
H258   H     0.71662   0.74987   0.91718   0.00000  Uiso   1.00
H259   H     0.19896   0.60224   0.19770   0.00000  Uiso   1.00
H260   H     0.69857   0.03842   0.45149   0.00000  Uiso   1.00
H261   H     0.56087   0.61545   0.36790   0.00000  Uiso   1.00
H262   H     0.64623   0.58781   0.24439   0.00000  Uiso   1.00
H263   H     0.40072   0.51778   0.37742   0.00000  Uiso   1.00
H264   H     0.63765   0.72463   0.49777   0.00000  Uiso   1.00
H265   H     0.73763   0.58250   0.08241   0.00000  Uiso   1.00
H266   H     0.21997   0.43487   0.36294   0.00000  Uiso   1.00
H267   H     0.71959   0.87106   0.61671   0.00000  Uiso   1.00
O268   O     0.78281   0.65151   0.91505   0.00000  Uiso   1.00
O269   O     0.10365   0.45784   0.28310   0.00000  Uiso   1.00
O270   O     0.75914   0.03010   0.61606   0.00000  Uiso   1.00
N271   N     0.70987   0.71429   0.97302   0.00000  Uiso   1.00
N272   N     0.22588   0.57625   0.23528   0.00000  Uiso   1.00
N273   N     0.69296   0.98404   0.47256   0.00000  Uiso   1.00
N274   N     0.72118   0.62423   0.06193   0.00000  Uiso   1.00
N275   N     0.23719   0.48620   0.32419   0.00000  Uiso   1.00
N276   N     0.70427   0.89399   0.56147   0.00000  Uiso   1.00
