data_job_01552
_audit_creation_date              2018-12-19
_audit_creation_method            'Materials Studio'
_symmetry_space_group_name_H-M    'P1'
_symmetry_Int_Tables_number       1
_symmetry_cell_setting            triclinic
loop_
_symmetry_equiv_pos_as_xyz
  x,y,z
_cell_length_a                    32.7438
_cell_length_b                    8.7027
_cell_length_c                    21.0836
_cell_angle_alpha                 90.0000
_cell_angle_beta                  65.4863
_cell_angle_gamma                 90.0000
loop_
_atom_site_label
_atom_site_type_symbol
_atom_site_fract_x
_atom_site_fract_y
_atom_site_fract_z
_atom_site_U_iso_or_equiv
_atom_site_adp_type
_atom_site_occupancy
C1     C     0.41318   0.72292   0.91020   0.00000  Uiso   1.00
C2     C     0.39244   0.68007   0.85984   0.00000  Uiso   1.00
C3     C     0.40320   0.74533   0.79481   0.00000  Uiso   1.00
C4     C     0.38045   0.69029   0.75668   0.00000  Uiso   1.00
C5     C     0.35315   0.64147   0.67454   0.00000  Uiso   1.00
C6     C     0.37412   0.76785   0.97828   0.00000  Uiso   1.00
C7     C     0.36948   0.90690   0.01282   0.00000  Uiso   1.00
C8     C     0.33131   0.92573   0.07439   0.00000  Uiso   1.00
C9     C     0.27558   0.01315   0.17616   0.00000  Uiso   1.00
C10    C     0.43218   0.57434   0.92532   0.00000  Uiso   1.00
C11    C     0.47635   0.55070   0.91536   0.00000  Uiso   1.00
C12    C     0.48706   0.40662   0.93236   0.00000  Uiso   1.00
C13    C     0.52148   0.19359   0.95190   0.00000  Uiso   1.00
C14    C     0.35366   0.50912   0.95812   0.00000  Uiso   1.00
C15    C     0.36011   0.56394   0.88588   0.00000  Uiso   1.00
C16    C     0.33734   0.50878   0.84783   0.00000  Uiso   1.00
C17    C     0.34806   0.57394   0.78275   0.00000  Uiso   1.00
C18    C     0.34179   0.65172   0.00431   0.00000  Uiso   1.00
C19    C     0.30362   0.67035   0.06584   0.00000  Uiso   1.00
C20    C     0.29892   0.80939   0.10047   0.00000  Uiso   1.00
C21    C     0.39985   0.45821   0.95135   0.00000  Uiso   1.00
C22    C     0.41049   0.31415   0.96838   0.00000  Uiso   1.00
C23    C     0.45467   0.29029   0.95844   0.00000  Uiso   1.00
H24    H     0.43835   0.81334   0.88994   0.00000  Uiso   1.00
H25    H     0.42822   0.83521   0.77469   0.00000  Uiso   1.00
H26    H     0.39451   0.99674   0.99267   0.00000  Uiso   1.00
H27    H     0.50136   0.64059   0.89521   0.00000  Uiso   1.00
H28    H     0.40272   0.80828   0.65840   0.00000  Uiso   1.00
H29    H     0.33164   0.14886   0.11804   0.00000  Uiso   1.00
H30    H     0.55696   0.39786   0.91254   0.00000  Uiso   1.00
H31    H     0.32848   0.41870   0.97839   0.00000  Uiso   1.00
H32    H     0.31232   0.41891   0.86799   0.00000  Uiso   1.00
H33    H     0.27861   0.58045   0.08597   0.00000  Uiso   1.00
H34    H     0.38546   0.22431   0.98852   0.00000  Uiso   1.00
H35    H     0.30865   0.47041   0.73413   0.00000  Uiso   1.00
H36    H     0.23757   0.81099   0.19378   0.00000  Uiso   1.00
H37    H     0.46289   0.05998   0.98827   0.00000  Uiso   1.00
O38    O     0.34702   0.64664   0.62205   0.00000  Uiso   1.00
O39    O     0.25378   0.09346   0.22509   0.00000  Uiso   1.00
O40    O     0.54940   0.10816   0.95547   0.00000  Uiso   1.00
N41    N     0.38280   0.72871   0.69137   0.00000  Uiso   1.00
N42    N     0.31634   0.04715   0.12110   0.00000  Uiso   1.00
N43    N     0.52700   0.34503   0.92899   0.00000  Uiso   1.00
N44    N     0.33219   0.54690   0.73212   0.00000  Uiso   1.00
N45    N     0.26573   0.86534   0.16185   0.00000  Uiso   1.00
N46    N     0.47638   0.16322   0.96974   0.00000  Uiso   1.00
C47    C     0.91318   0.22292   0.91020   0.00000  Uiso   1.00
C48    C     0.89244   0.18007   0.85984   0.00000  Uiso   1.00
C49    C     0.90320   0.24533   0.79481   0.00000  Uiso   1.00
C50    C     0.88045   0.19029   0.75668   0.00000  Uiso   1.00
C51    C     0.85315   0.14147   0.67454   0.00000  Uiso   1.00
C52    C     0.87412   0.26785   0.97828   0.00000  Uiso   1.00
C53    C     0.86948   0.40690   0.01282   0.00000  Uiso   1.00
C54    C     0.83131   0.42573   0.07439   0.00000  Uiso   1.00
C55    C     0.77558   0.51315   0.17616   0.00000  Uiso   1.00
C56    C     0.93218   0.07434   0.92532   0.00000  Uiso   1.00
C57    C     0.97635   0.05070   0.91536   0.00000  Uiso   1.00
C58    C     0.98706   0.90662   0.93236   0.00000  Uiso   1.00
C59    C     0.02148   0.69359   0.95190   0.00000  Uiso   1.00
C60    C     0.85366   0.00912   0.95812   0.00000  Uiso   1.00
C61    C     0.86011   0.06394   0.88588   0.00000  Uiso   1.00
C62    C     0.83734   0.00878   0.84783   0.00000  Uiso   1.00
C63    C     0.84806   0.07394   0.78275   0.00000  Uiso   1.00
C64    C     0.84179   0.15172   0.00431   0.00000  Uiso   1.00
C65    C     0.80362   0.17035   0.06584   0.00000  Uiso   1.00
C66    C     0.79892   0.30939   0.10047   0.00000  Uiso   1.00
C67    C     0.89985   0.95821   0.95135   0.00000  Uiso   1.00
C68    C     0.91049   0.81415   0.96838   0.00000  Uiso   1.00
C69    C     0.95467   0.79029   0.95844   0.00000  Uiso   1.00
H70    H     0.93835   0.31334   0.88994   0.00000  Uiso   1.00
H71    H     0.92822   0.33521   0.77469   0.00000  Uiso   1.00
H72    H     0.89451   0.49674   0.99267   0.00000  Uiso   1.00
H73    H     0.00136   0.14059   0.89521   0.00000  Uiso   1.00
H74    H     0.90272   0.30828   0.65840   0.00000  Uiso   1.00
H75    H     0.83164   0.64886   0.11804   0.00000  Uiso   1.00
H76    H     0.05696   0.89786   0.91254   0.00000  Uiso   1.00
H77    H     0.82848   0.91870   0.97839   0.00000  Uiso   1.00
H78    H     0.81232   0.91891   0.86799   0.00000  Uiso   1.00
H79    H     0.77861   0.08045   0.08597   0.00000  Uiso   1.00
H80    H     0.88546   0.72431   0.98852   0.00000  Uiso   1.00
H81    H     0.80865   0.97041   0.73413   0.00000  Uiso   1.00
H82    H     0.73757   0.31099   0.19378   0.00000  Uiso   1.00
H83    H     0.96289   0.55998   0.98827   0.00000  Uiso   1.00
O84    O     0.84702   0.14664   0.62205   0.00000  Uiso   1.00
O85    O     0.75378   0.59346   0.22509   0.00000  Uiso   1.00
O86    O     0.04940   0.60816   0.95547   0.00000  Uiso   1.00
N87    N     0.88280   0.22871   0.69137   0.00000  Uiso   1.00
N88    N     0.81634   0.54715   0.12110   0.00000  Uiso   1.00
N89    N     0.02700   0.84503   0.92899   0.00000  Uiso   1.00
N90    N     0.83219   0.04690   0.73212   0.00000  Uiso   1.00
N91    N     0.76573   0.36534   0.16185   0.00000  Uiso   1.00
N92    N     0.97638   0.66322   0.96974   0.00000  Uiso   1.00
C93    C     0.58682   0.72292   0.58980   0.00000  Uiso   1.00
C94    C     0.60756   0.68007   0.64016   0.00000  Uiso   1.00
C95    C     0.59680   0.74533   0.70519   0.00000  Uiso   1.00
C96    C     0.61955   0.69029   0.74332   0.00000  Uiso   1.00
C97    C     0.64685   0.64147   0.82546   0.00000  Uiso   1.00
C98    C     0.62588   0.76785   0.52172   0.00000  Uiso   1.00
C99    C     0.63052   0.90690   0.48718   0.00000  Uiso   1.00
C100   C     0.66869   0.92573   0.42561   0.00000  Uiso   1.00
C101   C     0.72442   0.01315   0.32384   0.00000  Uiso   1.00
C102   C     0.56782   0.57434   0.57468   0.00000  Uiso   1.00
C103   C     0.52365   0.55070   0.58464   0.00000  Uiso   1.00
C104   C     0.51294   0.40662   0.56764   0.00000  Uiso   1.00
C105   C     0.47852   0.19359   0.54810   0.00000  Uiso   1.00
C106   C     0.64634   0.50912   0.54188   0.00000  Uiso   1.00
C107   C     0.63989   0.56394   0.61412   0.00000  Uiso   1.00
C108   C     0.66266   0.50878   0.65217   0.00000  Uiso   1.00
C109   C     0.65194   0.57394   0.71725   0.00000  Uiso   1.00
C110   C     0.65821   0.65172   0.49569   0.00000  Uiso   1.00
C111   C     0.69638   0.67035   0.43416   0.00000  Uiso   1.00
C112   C     0.70108   0.80939   0.39953   0.00000  Uiso   1.00
C113   C     0.60015   0.45821   0.54865   0.00000  Uiso   1.00
C114   C     0.58951   0.31415   0.53162   0.00000  Uiso   1.00
C115   C     0.54533   0.29029   0.54156   0.00000  Uiso   1.00
H116   H     0.56165   0.81334   0.61006   0.00000  Uiso   1.00
H117   H     0.57178   0.83521   0.72531   0.00000  Uiso   1.00
H118   H     0.60549   0.99674   0.50733   0.00000  Uiso   1.00
H119   H     0.49864   0.64059   0.60479   0.00000  Uiso   1.00
H120   H     0.59728   0.80828   0.84160   0.00000  Uiso   1.00
H121   H     0.66836   0.14886   0.38196   0.00000  Uiso   1.00
H122   H     0.44304   0.39786   0.58746   0.00000  Uiso   1.00
H123   H     0.67152   0.41870   0.52161   0.00000  Uiso   1.00
H124   H     0.68768   0.41891   0.63201   0.00000  Uiso   1.00
H125   H     0.72139   0.58045   0.41403   0.00000  Uiso   1.00
H126   H     0.61454   0.22431   0.51148   0.00000  Uiso   1.00
H127   H     0.69135   0.47041   0.76587   0.00000  Uiso   1.00
H128   H     0.76243   0.81099   0.30622   0.00000  Uiso   1.00
H129   H     0.53711   0.05998   0.51173   0.00000  Uiso   1.00
O130   O     0.65298   0.64664   0.87795   0.00000  Uiso   1.00
O131   O     0.74622   0.09346   0.27491   0.00000  Uiso   1.00
O132   O     0.45060   0.10816   0.54453   0.00000  Uiso   1.00
N133   N     0.61720   0.72871   0.80863   0.00000  Uiso   1.00
N134   N     0.68366   0.04715   0.37890   0.00000  Uiso   1.00
N135   N     0.47300   0.34503   0.57101   0.00000  Uiso   1.00
N136   N     0.66781   0.54690   0.76788   0.00000  Uiso   1.00
N137   N     0.73427   0.86534   0.33815   0.00000  Uiso   1.00
N138   N     0.52362   0.16322   0.53026   0.00000  Uiso   1.00
C139   C     0.08682   0.22292   0.58980   0.00000  Uiso   1.00
C140   C     0.10756   0.18007   0.64016   0.00000  Uiso   1.00
C141   C     0.09680   0.24533   0.70519   0.00000  Uiso   1.00
C142   C     0.11955   0.19029   0.74332   0.00000  Uiso   1.00
C143   C     0.14685   0.14147   0.82546   0.00000  Uiso   1.00
C144   C     0.12588   0.26785   0.52172   0.00000  Uiso   1.00
C145   C     0.13052   0.40690   0.48718   0.00000  Uiso   1.00
C146   C     0.16869   0.42573   0.42561   0.00000  Uiso   1.00
C147   C     0.22442   0.51315   0.32384   0.00000  Uiso   1.00
C148   C     0.06782   0.07434   0.57468   0.00000  Uiso   1.00
C149   C     0.02365   0.05070   0.58464   0.00000  Uiso   1.00
C150   C     0.01294   0.90662   0.56764   0.00000  Uiso   1.00
C151   C     0.97852   0.69359   0.54810   0.00000  Uiso   1.00
C152   C     0.14634   0.00912   0.54188   0.00000  Uiso   1.00
C153   C     0.13989   0.06394   0.61412   0.00000  Uiso   1.00
C154   C     0.16266   0.00878   0.65217   0.00000  Uiso   1.00
C155   C     0.15194   0.07394   0.71725   0.00000  Uiso   1.00
C156   C     0.15821   0.15172   0.49569   0.00000  Uiso   1.00
C157   C     0.19638   0.17035   0.43416   0.00000  Uiso   1.00
C158   C     0.20108   0.30939   0.39953   0.00000  Uiso   1.00
C159   C     0.10015   0.95821   0.54865   0.00000  Uiso   1.00
C160   C     0.08951   0.81415   0.53162   0.00000  Uiso   1.00
C161   C     0.04533   0.79029   0.54156   0.00000  Uiso   1.00
H162   H     0.06165   0.31334   0.61006   0.00000  Uiso   1.00
H163   H     0.07178   0.33521   0.72531   0.00000  Uiso   1.00
H164   H     0.10549   0.49674   0.50733   0.00000  Uiso   1.00
H165   H     0.99864   0.14059   0.60479   0.00000  Uiso   1.00
H166   H     0.09728   0.30828   0.84160   0.00000  Uiso   1.00
H167   H     0.16836   0.64886   0.38196   0.00000  Uiso   1.00
H168   H     0.94304   0.89786   0.58746   0.00000  Uiso   1.00
H169   H     0.17152   0.91870   0.52161   0.00000  Uiso   1.00
H170   H     0.18768   0.91891   0.63201   0.00000  Uiso   1.00
H171   H     0.22139   0.08045   0.41403   0.00000  Uiso   1.00
H172   H     0.11454   0.72431   0.51148   0.00000  Uiso   1.00
H173   H     0.19135   0.97041   0.76587   0.00000  Uiso   1.00
H174   H     0.26243   0.31099   0.30622   0.00000  Uiso   1.00
H175   H     0.03711   0.55998   0.51173   0.00000  Uiso   1.00
O176   O     0.15298   0.14664   0.87795   0.00000  Uiso   1.00
O177   O     0.24622   0.59346   0.27491   0.00000  Uiso   1.00
O178   O     0.95060   0.60816   0.54453   0.00000  Uiso   1.00
N179   N     0.11720   0.22871   0.80863   0.00000  Uiso   1.00
N180   N     0.18366   0.54715   0.37890   0.00000  Uiso   1.00
N181   N     0.97300   0.84503   0.57101   0.00000  Uiso   1.00
N182   N     0.16781   0.04690   0.76788   0.00000  Uiso   1.00
N183   N     0.23427   0.36534   0.33815   0.00000  Uiso   1.00
N184   N     0.02362   0.66322   0.53026   0.00000  Uiso   1.00
C185   C     0.58682   0.27708   0.08980   0.00000  Uiso   1.00
C186   C     0.60756   0.31993   0.14016   0.00000  Uiso   1.00
C187   C     0.59680   0.25467   0.20519   0.00000  Uiso   1.00
C188   C     0.61955   0.30971   0.24332   0.00000  Uiso   1.00
C189   C     0.64685   0.35853   0.32546   0.00000  Uiso   1.00
C190   C     0.62588   0.23215   0.02172   0.00000  Uiso   1.00
C191   C     0.63052   0.09310   0.98718   0.00000  Uiso   1.00
C192   C     0.66869   0.07427   0.92561   0.00000  Uiso   1.00
C193   C     0.72442   0.98685   0.82384   0.00000  Uiso   1.00
C194   C     0.56782   0.42566   0.07468   0.00000  Uiso   1.00
C195   C     0.52365   0.44930   0.08464   0.00000  Uiso   1.00
C196   C     0.51294   0.59338   0.06764   0.00000  Uiso   1.00
C197   C     0.47852   0.80641   0.04810   0.00000  Uiso   1.00
C198   C     0.64634   0.49088   0.04188   0.00000  Uiso   1.00
C199   C     0.63989   0.43606   0.11412   0.00000  Uiso   1.00
C200   C     0.66266   0.49122   0.15217   0.00000  Uiso   1.00
C201   C     0.65194   0.42606   0.21725   0.00000  Uiso   1.00
C202   C     0.65821   0.34828   0.99569   0.00000  Uiso   1.00
C203   C     0.69638   0.32965   0.93416   0.00000  Uiso   1.00
C204   C     0.70108   0.19061   0.89953   0.00000  Uiso   1.00
C205   C     0.60015   0.54179   0.04865   0.00000  Uiso   1.00
C206   C     0.58951   0.68585   0.03162   0.00000  Uiso   1.00
C207   C     0.54533   0.70971   0.04156   0.00000  Uiso   1.00
H208   H     0.56165   0.18666   0.11006   0.00000  Uiso   1.00
H209   H     0.57178   0.16479   0.22531   0.00000  Uiso   1.00
H210   H     0.60549   0.00326   0.00733   0.00000  Uiso   1.00
H211   H     0.49864   0.35941   0.10479   0.00000  Uiso   1.00
H212   H     0.59728   0.19172   0.34160   0.00000  Uiso   1.00
H213   H     0.66836   0.85114   0.88196   0.00000  Uiso   1.00
H214   H     0.44304   0.60214   0.08746   0.00000  Uiso   1.00
H215   H     0.67152   0.58130   0.02161   0.00000  Uiso   1.00
H216   H     0.68768   0.58109   0.13201   0.00000  Uiso   1.00
H217   H     0.72139   0.41955   0.91403   0.00000  Uiso   1.00
H218   H     0.61454   0.77569   0.01148   0.00000  Uiso   1.00
H219   H     0.69135   0.52959   0.26587   0.00000  Uiso   1.00
H220   H     0.76243   0.18901   0.80622   0.00000  Uiso   1.00
H221   H     0.53711   0.94002   0.01173   0.00000  Uiso   1.00
O222   O     0.65298   0.35336   0.37795   0.00000  Uiso   1.00
O223   O     0.74622   0.90654   0.77491   0.00000  Uiso   1.00
O224   O     0.45060   0.89184   0.04453   0.00000  Uiso   1.00
N225   N     0.61720   0.27129   0.30863   0.00000  Uiso   1.00
N226   N     0.68366   0.95285   0.87890   0.00000  Uiso   1.00
N227   N     0.47300   0.65497   0.07101   0.00000  Uiso   1.00
N228   N     0.66781   0.45310   0.26788   0.00000  Uiso   1.00
N229   N     0.73427   0.13466   0.83815   0.00000  Uiso   1.00
N230   N     0.52362   0.83678   0.03026   0.00000  Uiso   1.00
C231   C     0.08682   0.77708   0.08980   0.00000  Uiso   1.00
C232   C     0.10756   0.81993   0.14016   0.00000  Uiso   1.00
C233   C     0.09680   0.75467   0.20519   0.00000  Uiso   1.00
C234   C     0.11955   0.80971   0.24332   0.00000  Uiso   1.00
C235   C     0.14685   0.85853   0.32546   0.00000  Uiso   1.00
C236   C     0.12588   0.73215   0.02172   0.00000  Uiso   1.00
C237   C     0.13052   0.59310   0.98718   0.00000  Uiso   1.00
C238   C     0.16869   0.57427   0.92561   0.00000  Uiso   1.00
C239   C     0.22442   0.48685   0.82384   0.00000  Uiso   1.00
C240   C     0.06782   0.92566   0.07468   0.00000  Uiso   1.00
C241   C     0.02365   0.94930   0.08464   0.00000  Uiso   1.00
C242   C     0.01294   0.09338   0.06764   0.00000  Uiso   1.00
C243   C     0.97852   0.30641   0.04810   0.00000  Uiso   1.00
C244   C     0.14634   0.99088   0.04188   0.00000  Uiso   1.00
C245   C     0.13989   0.93606   0.11412   0.00000  Uiso   1.00
C246   C     0.16266   0.99122   0.15217   0.00000  Uiso   1.00
C247   C     0.15194   0.92606   0.21725   0.00000  Uiso   1.00
C248   C     0.15821   0.84828   0.99569   0.00000  Uiso   1.00
C249   C     0.19638   0.82965   0.93416   0.00000  Uiso   1.00
C250   C     0.20108   0.69061   0.89953   0.00000  Uiso   1.00
C251   C     0.10015   0.04179   0.04865   0.00000  Uiso   1.00
C252   C     0.08951   0.18585   0.03162   0.00000  Uiso   1.00
C253   C     0.04533   0.20971   0.04156   0.00000  Uiso   1.00
H254   H     0.06165   0.68666   0.11006   0.00000  Uiso   1.00
H255   H     0.07178   0.66479   0.22531   0.00000  Uiso   1.00
H256   H     0.10549   0.50326   0.00733   0.00000  Uiso   1.00
H257   H     0.99864   0.85941   0.10479   0.00000  Uiso   1.00
H258   H     0.09728   0.69172   0.34160   0.00000  Uiso   1.00
H259   H     0.16836   0.35114   0.88196   0.00000  Uiso   1.00
H260   H     0.94304   0.10214   0.08746   0.00000  Uiso   1.00
H261   H     0.17152   0.08130   0.02161   0.00000  Uiso   1.00
H262   H     0.18768   0.08109   0.13201   0.00000  Uiso   1.00
H263   H     0.22139   0.91955   0.91403   0.00000  Uiso   1.00
H264   H     0.11454   0.27569   0.01148   0.00000  Uiso   1.00
H265   H     0.19135   0.02959   0.26587   0.00000  Uiso   1.00
H266   H     0.26243   0.68901   0.80622   0.00000  Uiso   1.00
H267   H     0.03711   0.44002   0.01173   0.00000  Uiso   1.00
O268   O     0.15298   0.85336   0.37795   0.00000  Uiso   1.00
O269   O     0.24622   0.40654   0.77491   0.00000  Uiso   1.00
O270   O     0.95060   0.39184   0.04453   0.00000  Uiso   1.00
N271   N     0.11720   0.77129   0.30863   0.00000  Uiso   1.00
N272   N     0.18366   0.45285   0.87890   0.00000  Uiso   1.00
N273   N     0.97300   0.15497   0.07101   0.00000  Uiso   1.00
N274   N     0.16781   0.95310   0.26788   0.00000  Uiso   1.00
N275   N     0.23427   0.63466   0.83815   0.00000  Uiso   1.00
N276   N     0.02362   0.33678   0.03026   0.00000  Uiso   1.00
C277   C     0.41318   0.27708   0.41020   0.00000  Uiso   1.00
C278   C     0.39244   0.31993   0.35984   0.00000  Uiso   1.00
C279   C     0.40320   0.25467   0.29481   0.00000  Uiso   1.00
C280   C     0.38045   0.30971   0.25668   0.00000  Uiso   1.00
C281   C     0.35315   0.35853   0.17454   0.00000  Uiso   1.00
C282   C     0.37412   0.23215   0.47828   0.00000  Uiso   1.00
C283   C     0.36948   0.09310   0.51282   0.00000  Uiso   1.00
C284   C     0.33131   0.07427   0.57439   0.00000  Uiso   1.00
C285   C     0.27558   0.98685   0.67616   0.00000  Uiso   1.00
C286   C     0.43218   0.42566   0.42532   0.00000  Uiso   1.00
C287   C     0.47635   0.44930   0.41536   0.00000  Uiso   1.00
C288   C     0.48706   0.59338   0.43236   0.00000  Uiso   1.00
C289   C     0.52148   0.80641   0.45190   0.00000  Uiso   1.00
C290   C     0.35366   0.49088   0.45812   0.00000  Uiso   1.00
C291   C     0.36011   0.43606   0.38588   0.00000  Uiso   1.00
C292   C     0.33734   0.49122   0.34783   0.00000  Uiso   1.00
C293   C     0.34806   0.42606   0.28275   0.00000  Uiso   1.00
C294   C     0.34179   0.34828   0.50431   0.00000  Uiso   1.00
C295   C     0.30362   0.32965   0.56584   0.00000  Uiso   1.00
C296   C     0.29892   0.19061   0.60047   0.00000  Uiso   1.00
C297   C     0.39985   0.54179   0.45135   0.00000  Uiso   1.00
C298   C     0.41049   0.68585   0.46838   0.00000  Uiso   1.00
C299   C     0.45467   0.70971   0.45844   0.00000  Uiso   1.00
H300   H     0.43835   0.18666   0.38994   0.00000  Uiso   1.00
H301   H     0.42822   0.16479   0.27469   0.00000  Uiso   1.00
H302   H     0.39451   0.00326   0.49267   0.00000  Uiso   1.00
H303   H     0.50136   0.35941   0.39521   0.00000  Uiso   1.00
H304   H     0.40272   0.19172   0.15840   0.00000  Uiso   1.00
H305   H     0.33164   0.85114   0.61804   0.00000  Uiso   1.00
H306   H     0.55696   0.60214   0.41254   0.00000  Uiso   1.00
H307   H     0.32848   0.58130   0.47839   0.00000  Uiso   1.00
H308   H     0.31232   0.58109   0.36799   0.00000  Uiso   1.00
H309   H     0.27861   0.41955   0.58597   0.00000  Uiso   1.00
H310   H     0.38546   0.77569   0.48852   0.00000  Uiso   1.00
H311   H     0.30865   0.52959   0.23413   0.00000  Uiso   1.00
H312   H     0.23757   0.18901   0.69378   0.00000  Uiso   1.00
H313   H     0.46289   0.94002   0.48827   0.00000  Uiso   1.00
O314   O     0.34702   0.35336   0.12205   0.00000  Uiso   1.00
O315   O     0.25378   0.90654   0.72509   0.00000  Uiso   1.00
O316   O     0.54940   0.89184   0.45547   0.00000  Uiso   1.00
N317   N     0.38280   0.27129   0.19137   0.00000  Uiso   1.00
N318   N     0.31634   0.95285   0.62110   0.00000  Uiso   1.00
N319   N     0.52700   0.65497   0.42899   0.00000  Uiso   1.00
N320   N     0.33219   0.45310   0.23212   0.00000  Uiso   1.00
N321   N     0.26573   0.13466   0.66185   0.00000  Uiso   1.00
N322   N     0.47638   0.83678   0.46974   0.00000  Uiso   1.00
C323   C     0.91318   0.77708   0.41020   0.00000  Uiso   1.00
C324   C     0.89244   0.81993   0.35984   0.00000  Uiso   1.00
C325   C     0.90320   0.75467   0.29481   0.00000  Uiso   1.00
C326   C     0.88045   0.80971   0.25668   0.00000  Uiso   1.00
C327   C     0.85315   0.85853   0.17454   0.00000  Uiso   1.00
C328   C     0.87412   0.73215   0.47828   0.00000  Uiso   1.00
C329   C     0.86948   0.59310   0.51282   0.00000  Uiso   1.00
C330   C     0.83131   0.57427   0.57439   0.00000  Uiso   1.00
C331   C     0.77558   0.48685   0.67616   0.00000  Uiso   1.00
C332   C     0.93218   0.92566   0.42532   0.00000  Uiso   1.00
C333   C     0.97635   0.94930   0.41536   0.00000  Uiso   1.00
C334   C     0.98706   0.09338   0.43236   0.00000  Uiso   1.00
C335   C     0.02148   0.30641   0.45190   0.00000  Uiso   1.00
C336   C     0.85366   0.99088   0.45812   0.00000  Uiso   1.00
C337   C     0.86011   0.93606   0.38588   0.00000  Uiso   1.00
C338   C     0.83734   0.99122   0.34783   0.00000  Uiso   1.00
C339   C     0.84806   0.92606   0.28275   0.00000  Uiso   1.00
C340   C     0.84179   0.84828   0.50431   0.00000  Uiso   1.00
C341   C     0.80362   0.82965   0.56584   0.00000  Uiso   1.00
C342   C     0.79892   0.69061   0.60047   0.00000  Uiso   1.00
C343   C     0.89985   0.04179   0.45135   0.00000  Uiso   1.00
C344   C     0.91049   0.18585   0.46838   0.00000  Uiso   1.00
C345   C     0.95467   0.20971   0.45844   0.00000  Uiso   1.00
H346   H     0.93835   0.68666   0.38994   0.00000  Uiso   1.00
H347   H     0.92822   0.66479   0.27469   0.00000  Uiso   1.00
H348   H     0.89451   0.50326   0.49267   0.00000  Uiso   1.00
H349   H     0.00136   0.85941   0.39521   0.00000  Uiso   1.00
H350   H     0.90272   0.69172   0.15840   0.00000  Uiso   1.00
H351   H     0.83164   0.35114   0.61804   0.00000  Uiso   1.00
H352   H     0.05696   0.10214   0.41254   0.00000  Uiso   1.00
H353   H     0.82848   0.08130   0.47839   0.00000  Uiso   1.00
H354   H     0.81232   0.08109   0.36799   0.00000  Uiso   1.00
H355   H     0.77861   0.91955   0.58597   0.00000  Uiso   1.00
H356   H     0.88546   0.27569   0.48852   0.00000  Uiso   1.00
H357   H     0.80865   0.02959   0.23413   0.00000  Uiso   1.00
H358   H     0.73757   0.68901   0.69378   0.00000  Uiso   1.00
H359   H     0.96289   0.44002   0.48827   0.00000  Uiso   1.00
O360   O     0.84702   0.85336   0.12205   0.00000  Uiso   1.00
O361   O     0.75378   0.40654   0.72509   0.00000  Uiso   1.00
O362   O     0.04940   0.39184   0.45547   0.00000  Uiso   1.00
N363   N     0.88280   0.77129   0.19137   0.00000  Uiso   1.00
N364   N     0.81634   0.45285   0.62110   0.00000  Uiso   1.00
N365   N     0.02700   0.15497   0.42899   0.00000  Uiso   1.00
N366   N     0.83219   0.95310   0.23212   0.00000  Uiso   1.00
N367   N     0.76573   0.63466   0.66185   0.00000  Uiso   1.00
N368   N     0.97638   0.33678   0.46974   0.00000  Uiso   1.00
