data_job_01293
_audit_creation_date              2018-12-19
_audit_creation_method            'Materials Studio'
_symmetry_space_group_name_H-M    'P1'
_symmetry_Int_Tables_number       1
_symmetry_cell_setting            triclinic
loop_
_symmetry_equiv_pos_as_xyz
  x,y,z
_cell_length_a                    14.5845
_cell_length_b                    14.0072
_cell_length_c                    11.9201
_cell_angle_alpha                 90.0000
_cell_angle_beta                  91.5955
_cell_angle_gamma                 90.0000
loop_
_atom_site_label
_atom_site_type_symbol
_atom_site_fract_x
_atom_site_fract_y
_atom_site_fract_z
_atom_site_U_iso_or_equiv
_atom_site_adp_type
_atom_site_occupancy
C1     C     0.20444   0.07393   0.82257   0.00000  Uiso   1.00
C2     C     0.25787   0.01795   0.91253   0.00000  Uiso   1.00
C3     C     0.28085   0.05043   0.01965   0.00000  Uiso   1.00
C4     C     0.32996   0.98840   0.08948   0.00000  Uiso   1.00
C5     C     0.40913   0.91537   0.23464   0.00000  Uiso   1.00
C6     C     0.26520   0.07655   0.72056   0.00000  Uiso   1.00
C7     C     0.29434   0.15830   0.66625   0.00000  Uiso   1.00
C8     C     0.34961   0.14559   0.57447   0.00000  Uiso   1.00
C9     C     0.44012   0.16353   0.42153   0.00000  Uiso   1.00
C10    C     0.12202   0.01221   0.78907   0.00000  Uiso   1.00
C11    C     0.03076   0.03988   0.79234   0.00000  Uiso   1.00
C12    C     0.96547   0.97300   0.75821   0.00000  Uiso   1.00
C13    C     0.83365   0.89106   0.71165   0.00000  Uiso   1.00
C14    C     0.25078   0.90599   0.75610   0.00000  Uiso   1.00
C15    C     0.28304   0.92673   0.87642   0.00000  Uiso   1.00
C16    C     0.33212   0.86463   0.94611   0.00000  Uiso   1.00
C17    C     0.35517   0.89702   0.05331   0.00000  Uiso   1.00
C18    C     0.29038   0.98533   0.68445   0.00000  Uiso   1.00
C19    C     0.34561   0.97250   0.59272   0.00000  Uiso   1.00
C20    C     0.37483   0.05421   0.53830   0.00000  Uiso   1.00
C21    C     0.14718   0.92099   0.75297   0.00000  Uiso   1.00
C22    C     0.08203   0.85407   0.71881   0.00000  Uiso   1.00
C23    C     0.99069   0.88162   0.72204   0.00000  Uiso   1.00
H24    H     0.18485   0.14495   0.85067   0.00000  Uiso   1.00
H25    H     0.26137   0.12103   0.04755   0.00000  Uiso   1.00
H26    H     0.27485   0.22888   0.69421   0.00000  Uiso   1.00
H27    H     0.01131   0.11047   0.82029   0.00000  Uiso   1.00
H28    H     0.35734   0.05431   0.24990   0.00000  Uiso   1.00
H29    H     0.38573   0.28170   0.50483   0.00000  Uiso   1.00
H30    H     0.83000   0.03202   0.77068   0.00000  Uiso   1.00
H31    H     0.27038   0.83498   0.72799   0.00000  Uiso   1.00
H32    H     0.35159   0.79405   0.91815   0.00000  Uiso   1.00
H33    H     0.36507   0.90190   0.56480   0.00000  Uiso   1.00
H34    H     0.10153   0.78349   0.69088   0.00000  Uiso   1.00
H35    H     0.43057   0.78892   0.14487   0.00000  Uiso   1.00
H36    H     0.45896   0.01631   0.39979   0.00000  Uiso   1.00
H37    H     0.90323   0.76663   0.66565   0.00000  Uiso   1.00
O38    O     0.44586   0.90030   0.32467   0.00000  Uiso   1.00
O39    O     0.48309   0.19863   0.34716   0.00000  Uiso   1.00
O40    O     0.75399   0.87105   0.69596   0.00000  Uiso   1.00
N41    N     0.36341   0.99746   0.19909   0.00000  Uiso   1.00
N42    N     0.38997   0.21006   0.50250   0.00000  Uiso   1.00
N43    N     0.87041   0.97663   0.75103   0.00000  Uiso   1.00
N44    N     0.40282   0.85465   0.14257   0.00000  Uiso   1.00
N45    N     0.42937   0.06725   0.44599   0.00000  Uiso   1.00
N46    N     0.90981   0.83383   0.69451   0.00000  Uiso   1.00
C47    C     0.79556   0.57393   0.67743   0.00000  Uiso   1.00
C48    C     0.74213   0.51795   0.58747   0.00000  Uiso   1.00
C49    C     0.71915   0.55043   0.48035   0.00000  Uiso   1.00
C50    C     0.67004   0.48840   0.41052   0.00000  Uiso   1.00
C51    C     0.59087   0.41537   0.26536   0.00000  Uiso   1.00
C52    C     0.73480   0.57655   0.77944   0.00000  Uiso   1.00
C53    C     0.70566   0.65830   0.83375   0.00000  Uiso   1.00
C54    C     0.65039   0.64559   0.92553   0.00000  Uiso   1.00
C55    C     0.55988   0.66353   0.07847   0.00000  Uiso   1.00
C56    C     0.87798   0.51221   0.71093   0.00000  Uiso   1.00
C57    C     0.96924   0.53988   0.70766   0.00000  Uiso   1.00
C58    C     0.03453   0.47300   0.74179   0.00000  Uiso   1.00
C59    C     0.16635   0.39106   0.78835   0.00000  Uiso   1.00
C60    C     0.74922   0.40599   0.74390   0.00000  Uiso   1.00
C61    C     0.71696   0.42673   0.62358   0.00000  Uiso   1.00
C62    C     0.66788   0.36463   0.55389   0.00000  Uiso   1.00
C63    C     0.64483   0.39702   0.44669   0.00000  Uiso   1.00
C64    C     0.70962   0.48533   0.81555   0.00000  Uiso   1.00
C65    C     0.65439   0.47250   0.90728   0.00000  Uiso   1.00
C66    C     0.62517   0.55421   0.96170   0.00000  Uiso   1.00
C67    C     0.85282   0.42099   0.74703   0.00000  Uiso   1.00
C68    C     0.91797   0.35407   0.78119   0.00000  Uiso   1.00
C69    C     0.00931   0.38162   0.77796   0.00000  Uiso   1.00
H70    H     0.81515   0.64495   0.64933   0.00000  Uiso   1.00
H71    H     0.73863   0.62103   0.45245   0.00000  Uiso   1.00
H72    H     0.72515   0.72888   0.80579   0.00000  Uiso   1.00
H73    H     0.98869   0.61047   0.67971   0.00000  Uiso   1.00
H74    H     0.64266   0.55431   0.25010   0.00000  Uiso   1.00
H75    H     0.61427   0.78170   0.99517   0.00000  Uiso   1.00
H76    H     0.17000   0.53202   0.72932   0.00000  Uiso   1.00
H77    H     0.72962   0.33498   0.77201   0.00000  Uiso   1.00
H78    H     0.64841   0.29405   0.58185   0.00000  Uiso   1.00
H79    H     0.63493   0.40190   0.93520   0.00000  Uiso   1.00
H80    H     0.89847   0.28349   0.80912   0.00000  Uiso   1.00
H81    H     0.56943   0.28892   0.35513   0.00000  Uiso   1.00
H82    H     0.54104   0.51631   0.10021   0.00000  Uiso   1.00
H83    H     0.09677   0.26663   0.83435   0.00000  Uiso   1.00
O84    O     0.55414   0.40030   0.17533   0.00000  Uiso   1.00
O85    O     0.51691   0.69863   0.15284   0.00000  Uiso   1.00
O86    O     0.24601   0.37105   0.80404   0.00000  Uiso   1.00
N87    N     0.63659   0.49746   0.30091   0.00000  Uiso   1.00
N88    N     0.61003   0.71006   0.99750   0.00000  Uiso   1.00
N89    N     0.12959   0.47663   0.74897   0.00000  Uiso   1.00
N90    N     0.59718   0.35465   0.35743   0.00000  Uiso   1.00
N91    N     0.57063   0.56725   0.05401   0.00000  Uiso   1.00
N92    N     0.09019   0.33383   0.80549   0.00000  Uiso   1.00
C93    C     0.79556   0.92607   0.17743   0.00000  Uiso   1.00
C94    C     0.74213   0.98205   0.08747   0.00000  Uiso   1.00
C95    C     0.71915   0.94957   0.98035   0.00000  Uiso   1.00
C96    C     0.67004   0.01160   0.91052   0.00000  Uiso   1.00
C97    C     0.59087   0.08463   0.76536   0.00000  Uiso   1.00
C98    C     0.73480   0.92345   0.27944   0.00000  Uiso   1.00
C99    C     0.70566   0.84170   0.33375   0.00000  Uiso   1.00
C100   C     0.65039   0.85441   0.42553   0.00000  Uiso   1.00
C101   C     0.55988   0.83647   0.57847   0.00000  Uiso   1.00
C102   C     0.87798   0.98779   0.21093   0.00000  Uiso   1.00
C103   C     0.96924   0.96012   0.20766   0.00000  Uiso   1.00
C104   C     0.03453   0.02700   0.24179   0.00000  Uiso   1.00
C105   C     0.16635   0.10894   0.28835   0.00000  Uiso   1.00
C106   C     0.74922   0.09401   0.24390   0.00000  Uiso   1.00
C107   C     0.71696   0.07327   0.12358   0.00000  Uiso   1.00
C108   C     0.66788   0.13537   0.05389   0.00000  Uiso   1.00
C109   C     0.64483   0.10298   0.94669   0.00000  Uiso   1.00
C110   C     0.70962   0.01467   0.31555   0.00000  Uiso   1.00
C111   C     0.65439   0.02750   0.40728   0.00000  Uiso   1.00
C112   C     0.62517   0.94579   0.46170   0.00000  Uiso   1.00
C113   C     0.85282   0.07901   0.24703   0.00000  Uiso   1.00
C114   C     0.91797   0.14593   0.28119   0.00000  Uiso   1.00
C115   C     0.00931   0.11838   0.27796   0.00000  Uiso   1.00
H116   H     0.81515   0.85505   0.14933   0.00000  Uiso   1.00
H117   H     0.73863   0.87897   0.95245   0.00000  Uiso   1.00
H118   H     0.72515   0.77112   0.30579   0.00000  Uiso   1.00
H119   H     0.98869   0.88953   0.17971   0.00000  Uiso   1.00
H120   H     0.64266   0.94569   0.75010   0.00000  Uiso   1.00
H121   H     0.61427   0.71830   0.49517   0.00000  Uiso   1.00
H122   H     0.17000   0.96798   0.22932   0.00000  Uiso   1.00
H123   H     0.72962   0.16502   0.27201   0.00000  Uiso   1.00
H124   H     0.64841   0.20595   0.08185   0.00000  Uiso   1.00
H125   H     0.63493   0.09810   0.43520   0.00000  Uiso   1.00
H126   H     0.89847   0.21651   0.30912   0.00000  Uiso   1.00
H127   H     0.56943   0.21108   0.85513   0.00000  Uiso   1.00
H128   H     0.54104   0.98369   0.60021   0.00000  Uiso   1.00
H129   H     0.09677   0.23337   0.33435   0.00000  Uiso   1.00
O130   O     0.55414   0.09970   0.67533   0.00000  Uiso   1.00
O131   O     0.51691   0.80137   0.65284   0.00000  Uiso   1.00
O132   O     0.24601   0.12895   0.30404   0.00000  Uiso   1.00
N133   N     0.63659   0.00254   0.80091   0.00000  Uiso   1.00
N134   N     0.61003   0.78994   0.49750   0.00000  Uiso   1.00
N135   N     0.12959   0.02337   0.24897   0.00000  Uiso   1.00
N136   N     0.59718   0.14535   0.85743   0.00000  Uiso   1.00
N137   N     0.57063   0.93275   0.55401   0.00000  Uiso   1.00
N138   N     0.09019   0.16617   0.30549   0.00000  Uiso   1.00
C139   C     0.20444   0.42607   0.32257   0.00000  Uiso   1.00
C140   C     0.25787   0.48205   0.41253   0.00000  Uiso   1.00
C141   C     0.28085   0.44957   0.51965   0.00000  Uiso   1.00
C142   C     0.32996   0.51160   0.58948   0.00000  Uiso   1.00
C143   C     0.40913   0.58463   0.73464   0.00000  Uiso   1.00
C144   C     0.26520   0.42345   0.22056   0.00000  Uiso   1.00
C145   C     0.29434   0.34170   0.16625   0.00000  Uiso   1.00
C146   C     0.34961   0.35441   0.07447   0.00000  Uiso   1.00
C147   C     0.44012   0.33647   0.92153   0.00000  Uiso   1.00
C148   C     0.12202   0.48779   0.28907   0.00000  Uiso   1.00
C149   C     0.03076   0.46012   0.29234   0.00000  Uiso   1.00
C150   C     0.96547   0.52700   0.25821   0.00000  Uiso   1.00
C151   C     0.83365   0.60894   0.21165   0.00000  Uiso   1.00
C152   C     0.25078   0.59401   0.25610   0.00000  Uiso   1.00
C153   C     0.28304   0.57327   0.37642   0.00000  Uiso   1.00
C154   C     0.33212   0.63537   0.44611   0.00000  Uiso   1.00
C155   C     0.35517   0.60298   0.55331   0.00000  Uiso   1.00
C156   C     0.29038   0.51467   0.18445   0.00000  Uiso   1.00
C157   C     0.34561   0.52750   0.09272   0.00000  Uiso   1.00
C158   C     0.37483   0.44579   0.03830   0.00000  Uiso   1.00
C159   C     0.14718   0.57901   0.25297   0.00000  Uiso   1.00
C160   C     0.08203   0.64593   0.21881   0.00000  Uiso   1.00
C161   C     0.99069   0.61838   0.22204   0.00000  Uiso   1.00
H162   H     0.18485   0.35505   0.35067   0.00000  Uiso   1.00
H163   H     0.26137   0.37897   0.54755   0.00000  Uiso   1.00
H164   H     0.27485   0.27112   0.19421   0.00000  Uiso   1.00
H165   H     0.01131   0.38953   0.32029   0.00000  Uiso   1.00
H166   H     0.35734   0.44569   0.74990   0.00000  Uiso   1.00
H167   H     0.38573   0.21830   0.00483   0.00000  Uiso   1.00
H168   H     0.83000   0.46798   0.27068   0.00000  Uiso   1.00
H169   H     0.27038   0.66502   0.22799   0.00000  Uiso   1.00
H170   H     0.35159   0.70595   0.41815   0.00000  Uiso   1.00
H171   H     0.36507   0.59810   0.06480   0.00000  Uiso   1.00
H172   H     0.10153   0.71651   0.19088   0.00000  Uiso   1.00
H173   H     0.43057   0.71108   0.64487   0.00000  Uiso   1.00
H174   H     0.45896   0.48369   0.89979   0.00000  Uiso   1.00
H175   H     0.90323   0.73337   0.16565   0.00000  Uiso   1.00
O176   O     0.44586   0.59970   0.82467   0.00000  Uiso   1.00
O177   O     0.48309   0.30137   0.84716   0.00000  Uiso   1.00
O178   O     0.75399   0.62895   0.19596   0.00000  Uiso   1.00
N179   N     0.36341   0.50254   0.69909   0.00000  Uiso   1.00
N180   N     0.38997   0.28994   0.00250   0.00000  Uiso   1.00
N181   N     0.87041   0.52337   0.25103   0.00000  Uiso   1.00
N182   N     0.40282   0.64535   0.64257   0.00000  Uiso   1.00
N183   N     0.42937   0.43275   0.94599   0.00000  Uiso   1.00
N184   N     0.90981   0.66617   0.19451   0.00000  Uiso   1.00
