data_job_02197
_audit_creation_date              2018-12-19
_audit_creation_method            'Materials Studio'
_symmetry_space_group_name_H-M    'P1'
_symmetry_Int_Tables_number       1
_symmetry_cell_setting            triclinic
loop_
_symmetry_equiv_pos_as_xyz
  x,y,z
_cell_length_a                    31.4313
_cell_length_b                    8.7506
_cell_length_c                    21.1184
_cell_angle_alpha                 90.0000
_cell_angle_beta                  90.0000
_cell_angle_gamma                 90.0000
loop_
_atom_site_label
_atom_site_type_symbol
_atom_site_fract_x
_atom_site_fract_y
_atom_site_fract_z
_atom_site_U_iso_or_equiv
_atom_site_adp_type
_atom_site_occupancy
C1     C     0.59364   0.43018   0.83802   0.00000  Uiso   1.00
C2     C     0.62842   0.40326   0.88712   0.00000  Uiso   1.00
C3     C     0.63870   0.26365   0.91428   0.00000  Uiso   1.00
C4     C     0.67152   0.26292   0.95828   0.00000  Uiso   1.00
C5     C     0.72220   0.20073   0.03209   0.00000  Uiso   1.00
C6     C     0.56443   0.55186   0.86597   0.00000  Uiso   1.00
C7     C     0.52092   0.53720   0.87533   0.00000  Uiso   1.00
C8     C     0.49987   0.66158   0.90152   0.00000  Uiso   1.00
C9     C     0.45120   0.83014   0.94244   0.00000  Uiso   1.00
C10    C     0.61549   0.50465   0.78142   0.00000  Uiso   1.00
C11    C     0.61490   0.45033   0.71968   0.00000  Uiso   1.00
C12    C     0.63684   0.53499   0.67467   0.00000  Uiso   1.00
C13    C     0.66746   0.63025   0.58431   0.00000  Uiso   1.00
C14    C     0.63364   0.67713   0.86786   0.00000  Uiso   1.00
C15    C     0.65014   0.53740   0.90333   0.00000  Uiso   1.00
C16    C     0.68296   0.53688   0.94730   0.00000  Uiso   1.00
C17    C     0.69329   0.39729   0.97452   0.00000  Uiso   1.00
C18    C     0.58615   0.68600   0.88218   0.00000  Uiso   1.00
C19    C     0.56517   0.81043   0.90835   0.00000  Uiso   1.00
C20    C     0.52164   0.79596   0.91775   0.00000  Uiso   1.00
C21    C     0.63722   0.63879   0.79762   0.00000  Uiso   1.00
C22    C     0.65916   0.72355   0.75270   0.00000  Uiso   1.00
C23    C     0.65861   0.66937   0.69091   0.00000  Uiso   1.00
H24    H     0.57673   0.32575   0.82540   0.00000  Uiso   1.00
H25    H     0.62188   0.15987   0.90173   0.00000  Uiso   1.00
H26    H     0.50411   0.43339   0.86278   0.00000  Uiso   1.00
H27    H     0.59809   0.34653   0.70716   0.00000  Uiso   1.00
H28    H     0.68151   0.03513   0.99352   0.00000  Uiso   1.00
H29    H     0.43319   0.61188   0.91138   0.00000  Uiso   1.00
H30    H     0.63135   0.42870   0.58321   0.00000  Uiso   1.00
H31    H     0.65056   0.78157   0.88048   0.00000  Uiso   1.00
H32    H     0.69976   0.64070   0.95983   0.00000  Uiso   1.00
H33    H     0.58199   0.91422   0.92088   0.00000  Uiso   1.00
H34    H     0.67597   0.82735   0.76525   0.00000  Uiso   1.00
H35    H     0.74472   0.42538   0.04068   0.00000  Uiso   1.00
H36    H     0.49640   0.00213   0.95853   0.00000  Uiso   1.00
H37    H     0.69457   0.81896   0.63036   0.00000  Uiso   1.00
O38    O     0.74414   0.12937   0.06832   0.00000  Uiso   1.00
O39    O     0.41835   0.88605   0.96054   0.00000  Uiso   1.00
O40    O     0.67834   0.64573   0.52999   0.00000  Uiso   1.00
N41    N     0.68964   0.14630   0.99372   0.00000  Uiso   1.00
N42    N     0.45747   0.68552   0.91693   0.00000  Uiso   1.00
N43    N     0.64273   0.51429   0.61011   0.00000  Uiso   1.00
N44    N     0.72365   0.35630   0.01910   0.00000  Uiso   1.00
N45    N     0.49149   0.89551   0.94230   0.00000  Uiso   1.00
N46    N     0.67675   0.72428   0.63549   0.00000  Uiso   1.00
C47    C     0.90636   0.56982   0.33802   0.00000  Uiso   1.00
C48    C     0.87158   0.59674   0.38712   0.00000  Uiso   1.00
C49    C     0.86130   0.73635   0.41428   0.00000  Uiso   1.00
C50    C     0.82848   0.73708   0.45828   0.00000  Uiso   1.00
C51    C     0.77780   0.79927   0.53209   0.00000  Uiso   1.00
C52    C     0.93557   0.44814   0.36597   0.00000  Uiso   1.00
C53    C     0.97908   0.46280   0.37533   0.00000  Uiso   1.00
C54    C     0.00013   0.33842   0.40152   0.00000  Uiso   1.00
C55    C     0.04880   0.16986   0.44244   0.00000  Uiso   1.00
C56    C     0.88451   0.49535   0.28142   0.00000  Uiso   1.00
C57    C     0.88510   0.54967   0.21968   0.00000  Uiso   1.00
C58    C     0.86316   0.46501   0.17467   0.00000  Uiso   1.00
C59    C     0.83254   0.36975   0.08431   0.00000  Uiso   1.00
C60    C     0.86636   0.32287   0.36786   0.00000  Uiso   1.00
C61    C     0.84986   0.46260   0.40333   0.00000  Uiso   1.00
C62    C     0.81704   0.46312   0.44730   0.00000  Uiso   1.00
C63    C     0.80671   0.60271   0.47452   0.00000  Uiso   1.00
C64    C     0.91385   0.31400   0.38218   0.00000  Uiso   1.00
C65    C     0.93483   0.18957   0.40835   0.00000  Uiso   1.00
C66    C     0.97836   0.20404   0.41775   0.00000  Uiso   1.00
C67    C     0.86278   0.36121   0.29762   0.00000  Uiso   1.00
C68    C     0.84084   0.27645   0.25270   0.00000  Uiso   1.00
C69    C     0.84139   0.33063   0.19091   0.00000  Uiso   1.00
H70    H     0.92327   0.67425   0.32540   0.00000  Uiso   1.00
H71    H     0.87812   0.84013   0.40173   0.00000  Uiso   1.00
H72    H     0.99589   0.56661   0.36278   0.00000  Uiso   1.00
H73    H     0.90191   0.65347   0.20716   0.00000  Uiso   1.00
H74    H     0.81849   0.96487   0.49352   0.00000  Uiso   1.00
H75    H     0.06681   0.38812   0.41138   0.00000  Uiso   1.00
H76    H     0.86865   0.57130   0.08321   0.00000  Uiso   1.00
H77    H     0.84944   0.21843   0.38048   0.00000  Uiso   1.00
H78    H     0.80024   0.35930   0.45983   0.00000  Uiso   1.00
H79    H     0.91801   0.08578   0.42088   0.00000  Uiso   1.00
H80    H     0.82403   0.17265   0.26525   0.00000  Uiso   1.00
H81    H     0.75528   0.57462   0.54068   0.00000  Uiso   1.00
H82    H     0.00360   0.99787   0.45853   0.00000  Uiso   1.00
H83    H     0.80543   0.18104   0.13036   0.00000  Uiso   1.00
O84    O     0.75586   0.87063   0.56832   0.00000  Uiso   1.00
O85    O     0.08165   0.11395   0.46054   0.00000  Uiso   1.00
O86    O     0.82166   0.35427   0.02999   0.00000  Uiso   1.00
N87    N     0.81036   0.85370   0.49372   0.00000  Uiso   1.00
N88    N     0.04253   0.31448   0.41693   0.00000  Uiso   1.00
N89    N     0.85727   0.48571   0.11011   0.00000  Uiso   1.00
N90    N     0.77635   0.64370   0.51910   0.00000  Uiso   1.00
N91    N     0.00851   0.10449   0.44230   0.00000  Uiso   1.00
N92    N     0.82325   0.27572   0.13549   0.00000  Uiso   1.00
C93    C     0.40636   0.93018   0.66198   0.00000  Uiso   1.00
C94    C     0.37158   0.90326   0.61288   0.00000  Uiso   1.00
C95    C     0.36130   0.76365   0.58572   0.00000  Uiso   1.00
C96    C     0.32848   0.76292   0.54172   0.00000  Uiso   1.00
C97    C     0.27780   0.70073   0.46791   0.00000  Uiso   1.00
C98    C     0.43557   0.05186   0.63403   0.00000  Uiso   1.00
C99    C     0.47908   0.03720   0.62467   0.00000  Uiso   1.00
C100   C     0.50013   0.16158   0.59848   0.00000  Uiso   1.00
C101   C     0.54880   0.33014   0.55756   0.00000  Uiso   1.00
C102   C     0.38451   0.00465   0.71858   0.00000  Uiso   1.00
C103   C     0.38510   0.95033   0.78032   0.00000  Uiso   1.00
C104   C     0.36316   0.03499   0.82533   0.00000  Uiso   1.00
C105   C     0.33254   0.13025   0.91569   0.00000  Uiso   1.00
C106   C     0.36636   0.17713   0.63214   0.00000  Uiso   1.00
C107   C     0.34986   0.03740   0.59667   0.00000  Uiso   1.00
C108   C     0.31704   0.03688   0.55270   0.00000  Uiso   1.00
C109   C     0.30671   0.89729   0.52548   0.00000  Uiso   1.00
C110   C     0.41385   0.18600   0.61782   0.00000  Uiso   1.00
C111   C     0.43483   0.31043   0.59165   0.00000  Uiso   1.00
C112   C     0.47836   0.29596   0.58225   0.00000  Uiso   1.00
C113   C     0.36278   0.13879   0.70238   0.00000  Uiso   1.00
C114   C     0.34084   0.22355   0.74730   0.00000  Uiso   1.00
C115   C     0.34139   0.16937   0.80909   0.00000  Uiso   1.00
H116   H     0.42327   0.82575   0.67460   0.00000  Uiso   1.00
H117   H     0.37812   0.65987   0.59827   0.00000  Uiso   1.00
H118   H     0.49589   0.93339   0.63722   0.00000  Uiso   1.00
H119   H     0.40191   0.84653   0.79284   0.00000  Uiso   1.00
H120   H     0.31849   0.53513   0.50648   0.00000  Uiso   1.00
H121   H     0.56681   0.11188   0.58862   0.00000  Uiso   1.00
H122   H     0.36865   0.92870   0.91679   0.00000  Uiso   1.00
H123   H     0.34944   0.28157   0.61952   0.00000  Uiso   1.00
H124   H     0.30024   0.14070   0.54017   0.00000  Uiso   1.00
H125   H     0.41801   0.41422   0.57912   0.00000  Uiso   1.00
H126   H     0.32403   0.32735   0.73475   0.00000  Uiso   1.00
H127   H     0.25528   0.92538   0.45932   0.00000  Uiso   1.00
H128   H     0.50360   0.50213   0.54147   0.00000  Uiso   1.00
H129   H     0.30543   0.31896   0.86964   0.00000  Uiso   1.00
O130   O     0.25586   0.62937   0.43168   0.00000  Uiso   1.00
O131   O     0.58165   0.38605   0.53946   0.00000  Uiso   1.00
O132   O     0.32166   0.14573   0.97001   0.00000  Uiso   1.00
N133   N     0.31036   0.64630   0.50628   0.00000  Uiso   1.00
N134   N     0.54253   0.18552   0.58307   0.00000  Uiso   1.00
N135   N     0.35727   0.01429   0.88989   0.00000  Uiso   1.00
N136   N     0.27635   0.85630   0.48090   0.00000  Uiso   1.00
N137   N     0.50851   0.39551   0.55770   0.00000  Uiso   1.00
N138   N     0.32325   0.22428   0.86451   0.00000  Uiso   1.00
C139   C     0.09364   0.06982   0.16198   0.00000  Uiso   1.00
C140   C     0.12842   0.09674   0.11288   0.00000  Uiso   1.00
C141   C     0.13870   0.23635   0.08572   0.00000  Uiso   1.00
C142   C     0.17152   0.23708   0.04172   0.00000  Uiso   1.00
C143   C     0.22220   0.29927   0.96791   0.00000  Uiso   1.00
C144   C     0.06443   0.94814   0.13403   0.00000  Uiso   1.00
C145   C     0.02092   0.96280   0.12467   0.00000  Uiso   1.00
C146   C     0.99987   0.83842   0.09848   0.00000  Uiso   1.00
C147   C     0.95120   0.66986   0.05756   0.00000  Uiso   1.00
C148   C     0.11549   0.99535   0.21858   0.00000  Uiso   1.00
C149   C     0.11490   0.04967   0.28032   0.00000  Uiso   1.00
C150   C     0.13684   0.96501   0.32533   0.00000  Uiso   1.00
C151   C     0.16746   0.86975   0.41569   0.00000  Uiso   1.00
C152   C     0.13364   0.82287   0.13214   0.00000  Uiso   1.00
C153   C     0.15014   0.96260   0.09667   0.00000  Uiso   1.00
C154   C     0.18296   0.96312   0.05270   0.00000  Uiso   1.00
C155   C     0.19329   0.10271   0.02548   0.00000  Uiso   1.00
C156   C     0.08615   0.81400   0.11782   0.00000  Uiso   1.00
C157   C     0.06517   0.68957   0.09165   0.00000  Uiso   1.00
C158   C     0.02164   0.70404   0.08225   0.00000  Uiso   1.00
C159   C     0.13722   0.86121   0.20238   0.00000  Uiso   1.00
C160   C     0.15916   0.77645   0.24730   0.00000  Uiso   1.00
C161   C     0.15861   0.83063   0.30909   0.00000  Uiso   1.00
H162   H     0.07673   0.17425   0.17460   0.00000  Uiso   1.00
H163   H     0.12188   0.34013   0.09827   0.00000  Uiso   1.00
H164   H     0.00411   0.06661   0.13722   0.00000  Uiso   1.00
H165   H     0.09809   0.15347   0.29284   0.00000  Uiso   1.00
H166   H     0.18151   0.46487   0.00648   0.00000  Uiso   1.00
H167   H     0.93319   0.88812   0.08862   0.00000  Uiso   1.00
H168   H     0.13135   0.07130   0.41679   0.00000  Uiso   1.00
H169   H     0.15056   0.71843   0.11952   0.00000  Uiso   1.00
H170   H     0.19976   0.85930   0.04017   0.00000  Uiso   1.00
H171   H     0.08199   0.58578   0.07912   0.00000  Uiso   1.00
H172   H     0.17597   0.67265   0.23475   0.00000  Uiso   1.00
H173   H     0.24472   0.07462   0.95932   0.00000  Uiso   1.00
H174   H     0.99640   0.49787   0.04147   0.00000  Uiso   1.00
H175   H     0.19457   0.68104   0.36964   0.00000  Uiso   1.00
O176   O     0.24414   0.37063   0.93168   0.00000  Uiso   1.00
O177   O     0.91835   0.61395   0.03946   0.00000  Uiso   1.00
O178   O     0.17834   0.85427   0.47001   0.00000  Uiso   1.00
N179   N     0.18964   0.35370   0.00628   0.00000  Uiso   1.00
N180   N     0.95747   0.81448   0.08307   0.00000  Uiso   1.00
N181   N     0.14273   0.98571   0.38989   0.00000  Uiso   1.00
N182   N     0.22365   0.14370   0.98090   0.00000  Uiso   1.00
N183   N     0.99149   0.60449   0.05770   0.00000  Uiso   1.00
N184   N     0.17675   0.77572   0.36451   0.00000  Uiso   1.00
C185   C     0.40636   0.56982   0.16198   0.00000  Uiso   1.00
C186   C     0.37158   0.59674   0.11288   0.00000  Uiso   1.00
C187   C     0.36130   0.73635   0.08572   0.00000  Uiso   1.00
C188   C     0.32848   0.73708   0.04172   0.00000  Uiso   1.00
C189   C     0.27780   0.79927   0.96791   0.00000  Uiso   1.00
C190   C     0.43557   0.44814   0.13403   0.00000  Uiso   1.00
C191   C     0.47908   0.46280   0.12467   0.00000  Uiso   1.00
C192   C     0.50013   0.33842   0.09848   0.00000  Uiso   1.00
C193   C     0.54880   0.16986   0.05756   0.00000  Uiso   1.00
C194   C     0.38451   0.49535   0.21858   0.00000  Uiso   1.00
C195   C     0.38510   0.54967   0.28032   0.00000  Uiso   1.00
C196   C     0.36316   0.46501   0.32533   0.00000  Uiso   1.00
C197   C     0.33254   0.36975   0.41569   0.00000  Uiso   1.00
C198   C     0.36636   0.32287   0.13214   0.00000  Uiso   1.00
C199   C     0.34986   0.46260   0.09667   0.00000  Uiso   1.00
C200   C     0.31704   0.46312   0.05270   0.00000  Uiso   1.00
C201   C     0.30671   0.60271   0.02548   0.00000  Uiso   1.00
C202   C     0.41385   0.31400   0.11782   0.00000  Uiso   1.00
C203   C     0.43483   0.18957   0.09165   0.00000  Uiso   1.00
C204   C     0.47836   0.20404   0.08225   0.00000  Uiso   1.00
C205   C     0.36278   0.36121   0.20238   0.00000  Uiso   1.00
C206   C     0.34084   0.27645   0.24730   0.00000  Uiso   1.00
C207   C     0.34139   0.33063   0.30909   0.00000  Uiso   1.00
H208   H     0.42327   0.67425   0.17460   0.00000  Uiso   1.00
H209   H     0.37812   0.84013   0.09827   0.00000  Uiso   1.00
H210   H     0.49589   0.56661   0.13722   0.00000  Uiso   1.00
H211   H     0.40191   0.65347   0.29284   0.00000  Uiso   1.00
H212   H     0.31849   0.96487   0.00648   0.00000  Uiso   1.00
H213   H     0.56681   0.38812   0.08862   0.00000  Uiso   1.00
H214   H     0.36865   0.57130   0.41679   0.00000  Uiso   1.00
H215   H     0.34944   0.21843   0.11952   0.00000  Uiso   1.00
H216   H     0.30024   0.35930   0.04017   0.00000  Uiso   1.00
H217   H     0.41801   0.08578   0.07912   0.00000  Uiso   1.00
H218   H     0.32403   0.17265   0.23475   0.00000  Uiso   1.00
H219   H     0.25528   0.57462   0.95932   0.00000  Uiso   1.00
H220   H     0.50360   0.99787   0.04147   0.00000  Uiso   1.00
H221   H     0.30543   0.18104   0.36964   0.00000  Uiso   1.00
O222   O     0.25586   0.87063   0.93168   0.00000  Uiso   1.00
O223   O     0.58165   0.11395   0.03946   0.00000  Uiso   1.00
O224   O     0.32166   0.35427   0.47001   0.00000  Uiso   1.00
N225   N     0.31036   0.85370   0.00628   0.00000  Uiso   1.00
N226   N     0.54253   0.31448   0.08307   0.00000  Uiso   1.00
N227   N     0.35727   0.48571   0.38989   0.00000  Uiso   1.00
N228   N     0.27635   0.64370   0.98090   0.00000  Uiso   1.00
N229   N     0.50851   0.10449   0.05770   0.00000  Uiso   1.00
N230   N     0.32325   0.27572   0.36451   0.00000  Uiso   1.00
C231   C     0.09364   0.43018   0.66198   0.00000  Uiso   1.00
C232   C     0.12842   0.40326   0.61288   0.00000  Uiso   1.00
C233   C     0.13870   0.26365   0.58572   0.00000  Uiso   1.00
C234   C     0.17152   0.26292   0.54172   0.00000  Uiso   1.00
C235   C     0.22220   0.20073   0.46791   0.00000  Uiso   1.00
C236   C     0.06443   0.55186   0.63403   0.00000  Uiso   1.00
C237   C     0.02092   0.53720   0.62467   0.00000  Uiso   1.00
C238   C     0.99987   0.66158   0.59848   0.00000  Uiso   1.00
C239   C     0.95120   0.83014   0.55756   0.00000  Uiso   1.00
C240   C     0.11549   0.50465   0.71858   0.00000  Uiso   1.00
C241   C     0.11490   0.45033   0.78032   0.00000  Uiso   1.00
C242   C     0.13684   0.53499   0.82533   0.00000  Uiso   1.00
C243   C     0.16746   0.63025   0.91569   0.00000  Uiso   1.00
C244   C     0.13364   0.67713   0.63214   0.00000  Uiso   1.00
C245   C     0.15014   0.53740   0.59667   0.00000  Uiso   1.00
C246   C     0.18296   0.53688   0.55270   0.00000  Uiso   1.00
C247   C     0.19329   0.39729   0.52548   0.00000  Uiso   1.00
C248   C     0.08615   0.68600   0.61782   0.00000  Uiso   1.00
C249   C     0.06517   0.81043   0.59165   0.00000  Uiso   1.00
C250   C     0.02164   0.79596   0.58225   0.00000  Uiso   1.00
C251   C     0.13722   0.63879   0.70238   0.00000  Uiso   1.00
C252   C     0.15916   0.72355   0.74730   0.00000  Uiso   1.00
C253   C     0.15861   0.66937   0.80909   0.00000  Uiso   1.00
H254   H     0.07673   0.32575   0.67460   0.00000  Uiso   1.00
H255   H     0.12188   0.15987   0.59827   0.00000  Uiso   1.00
H256   H     0.00411   0.43339   0.63722   0.00000  Uiso   1.00
H257   H     0.09809   0.34653   0.79284   0.00000  Uiso   1.00
H258   H     0.18151   0.03513   0.50648   0.00000  Uiso   1.00
H259   H     0.93319   0.61188   0.58862   0.00000  Uiso   1.00
H260   H     0.13135   0.42870   0.91679   0.00000  Uiso   1.00
H261   H     0.15056   0.78157   0.61952   0.00000  Uiso   1.00
H262   H     0.19976   0.64070   0.54017   0.00000  Uiso   1.00
H263   H     0.08199   0.91422   0.57912   0.00000  Uiso   1.00
H264   H     0.17597   0.82735   0.73475   0.00000  Uiso   1.00
H265   H     0.24472   0.42538   0.45932   0.00000  Uiso   1.00
H266   H     0.99640   0.00213   0.54147   0.00000  Uiso   1.00
H267   H     0.19457   0.81896   0.86964   0.00000  Uiso   1.00
O268   O     0.24414   0.12937   0.43168   0.00000  Uiso   1.00
O269   O     0.91835   0.88605   0.53946   0.00000  Uiso   1.00
O270   O     0.17834   0.64573   0.97001   0.00000  Uiso   1.00
N271   N     0.18964   0.14630   0.50628   0.00000  Uiso   1.00
N272   N     0.95747   0.68552   0.58307   0.00000  Uiso   1.00
N273   N     0.14273   0.51429   0.88989   0.00000  Uiso   1.00
N274   N     0.22365   0.35630   0.48090   0.00000  Uiso   1.00
N275   N     0.99149   0.89551   0.55770   0.00000  Uiso   1.00
N276   N     0.17675   0.72428   0.86451   0.00000  Uiso   1.00
C277   C     0.59364   0.06982   0.33802   0.00000  Uiso   1.00
C278   C     0.62842   0.09674   0.38712   0.00000  Uiso   1.00
C279   C     0.63870   0.23635   0.41428   0.00000  Uiso   1.00
C280   C     0.67152   0.23708   0.45828   0.00000  Uiso   1.00
C281   C     0.72220   0.29927   0.53209   0.00000  Uiso   1.00
C282   C     0.56443   0.94814   0.36597   0.00000  Uiso   1.00
C283   C     0.52092   0.96280   0.37533   0.00000  Uiso   1.00
C284   C     0.49987   0.83842   0.40152   0.00000  Uiso   1.00
C285   C     0.45120   0.66986   0.44244   0.00000  Uiso   1.00
C286   C     0.61549   0.99535   0.28142   0.00000  Uiso   1.00
C287   C     0.61490   0.04967   0.21968   0.00000  Uiso   1.00
C288   C     0.63684   0.96501   0.17467   0.00000  Uiso   1.00
C289   C     0.66746   0.86975   0.08431   0.00000  Uiso   1.00
C290   C     0.63364   0.82287   0.36786   0.00000  Uiso   1.00
C291   C     0.65014   0.96260   0.40333   0.00000  Uiso   1.00
C292   C     0.68296   0.96312   0.44730   0.00000  Uiso   1.00
C293   C     0.69329   0.10271   0.47452   0.00000  Uiso   1.00
C294   C     0.58615   0.81400   0.38218   0.00000  Uiso   1.00
C295   C     0.56517   0.68957   0.40835   0.00000  Uiso   1.00
C296   C     0.52164   0.70404   0.41775   0.00000  Uiso   1.00
C297   C     0.63722   0.86121   0.29762   0.00000  Uiso   1.00
C298   C     0.65916   0.77645   0.25270   0.00000  Uiso   1.00
C299   C     0.65861   0.83063   0.19091   0.00000  Uiso   1.00
H300   H     0.57673   0.17425   0.32540   0.00000  Uiso   1.00
H301   H     0.62188   0.34013   0.40173   0.00000  Uiso   1.00
H302   H     0.50411   0.06661   0.36278   0.00000  Uiso   1.00
H303   H     0.59809   0.15347   0.20716   0.00000  Uiso   1.00
H304   H     0.68151   0.46487   0.49352   0.00000  Uiso   1.00
H305   H     0.43319   0.88812   0.41138   0.00000  Uiso   1.00
H306   H     0.63135   0.07130   0.08321   0.00000  Uiso   1.00
H307   H     0.65056   0.71843   0.38048   0.00000  Uiso   1.00
H308   H     0.69976   0.85930   0.45983   0.00000  Uiso   1.00
H309   H     0.58199   0.58578   0.42088   0.00000  Uiso   1.00
H310   H     0.67597   0.67265   0.26525   0.00000  Uiso   1.00
H311   H     0.74472   0.07462   0.54068   0.00000  Uiso   1.00
H312   H     0.49640   0.49787   0.45853   0.00000  Uiso   1.00
H313   H     0.69457   0.68104   0.13036   0.00000  Uiso   1.00
O314   O     0.74414   0.37063   0.56832   0.00000  Uiso   1.00
O315   O     0.41835   0.61395   0.46054   0.00000  Uiso   1.00
O316   O     0.67834   0.85427   0.02999   0.00000  Uiso   1.00
N317   N     0.68964   0.35370   0.49372   0.00000  Uiso   1.00
N318   N     0.45747   0.81448   0.41693   0.00000  Uiso   1.00
N319   N     0.64273   0.98571   0.11011   0.00000  Uiso   1.00
N320   N     0.72365   0.14370   0.51910   0.00000  Uiso   1.00
N321   N     0.49149   0.60449   0.44230   0.00000  Uiso   1.00
N322   N     0.67675   0.77572   0.13549   0.00000  Uiso   1.00
C323   C     0.90636   0.93018   0.83802   0.00000  Uiso   1.00
C324   C     0.87158   0.90326   0.88712   0.00000  Uiso   1.00
C325   C     0.86130   0.76365   0.91428   0.00000  Uiso   1.00
C326   C     0.82848   0.76292   0.95828   0.00000  Uiso   1.00
C327   C     0.77780   0.70073   0.03209   0.00000  Uiso   1.00
C328   C     0.93557   0.05186   0.86597   0.00000  Uiso   1.00
C329   C     0.97908   0.03720   0.87533   0.00000  Uiso   1.00
C330   C     0.00013   0.16158   0.90152   0.00000  Uiso   1.00
C331   C     0.04880   0.33014   0.94244   0.00000  Uiso   1.00
C332   C     0.88451   0.00465   0.78142   0.00000  Uiso   1.00
C333   C     0.88510   0.95033   0.71968   0.00000  Uiso   1.00
C334   C     0.86316   0.03499   0.67467   0.00000  Uiso   1.00
C335   C     0.83254   0.13025   0.58431   0.00000  Uiso   1.00
C336   C     0.86636   0.17713   0.86786   0.00000  Uiso   1.00
C337   C     0.84986   0.03740   0.90333   0.00000  Uiso   1.00
C338   C     0.81704   0.03688   0.94730   0.00000  Uiso   1.00
C339   C     0.80671   0.89729   0.97452   0.00000  Uiso   1.00
C340   C     0.91385   0.18600   0.88218   0.00000  Uiso   1.00
C341   C     0.93483   0.31043   0.90835   0.00000  Uiso   1.00
C342   C     0.97836   0.29596   0.91775   0.00000  Uiso   1.00
C343   C     0.86278   0.13879   0.79762   0.00000  Uiso   1.00
C344   C     0.84084   0.22355   0.75270   0.00000  Uiso   1.00
C345   C     0.84139   0.16937   0.69091   0.00000  Uiso   1.00
H346   H     0.92327   0.82575   0.82540   0.00000  Uiso   1.00
H347   H     0.87812   0.65987   0.90173   0.00000  Uiso   1.00
H348   H     0.99589   0.93339   0.86278   0.00000  Uiso   1.00
H349   H     0.90191   0.84653   0.70716   0.00000  Uiso   1.00
H350   H     0.81849   0.53513   0.99352   0.00000  Uiso   1.00
H351   H     0.06681   0.11188   0.91138   0.00000  Uiso   1.00
H352   H     0.86865   0.92870   0.58321   0.00000  Uiso   1.00
H353   H     0.84944   0.28157   0.88048   0.00000  Uiso   1.00
H354   H     0.80024   0.14070   0.95983   0.00000  Uiso   1.00
H355   H     0.91801   0.41422   0.92088   0.00000  Uiso   1.00
H356   H     0.82403   0.32735   0.76525   0.00000  Uiso   1.00
H357   H     0.75528   0.92538   0.04068   0.00000  Uiso   1.00
H358   H     0.00360   0.50213   0.95853   0.00000  Uiso   1.00
H359   H     0.80543   0.31896   0.63036   0.00000  Uiso   1.00
O360   O     0.75586   0.62937   0.06832   0.00000  Uiso   1.00
O361   O     0.08165   0.38605   0.96054   0.00000  Uiso   1.00
O362   O     0.82166   0.14573   0.52999   0.00000  Uiso   1.00
N363   N     0.81036   0.64630   0.99372   0.00000  Uiso   1.00
N364   N     0.04253   0.18552   0.91693   0.00000  Uiso   1.00
N365   N     0.85727   0.01429   0.61011   0.00000  Uiso   1.00
N366   N     0.77635   0.85630   0.01910   0.00000  Uiso   1.00
N367   N     0.00851   0.39551   0.94230   0.00000  Uiso   1.00
N368   N     0.82325   0.22428   0.63549   0.00000  Uiso   1.00
