data_job_04806
_audit_creation_date              2018-12-19
_audit_creation_method            'Materials Studio'
_symmetry_space_group_name_H-M    'P1'
_symmetry_Int_Tables_number       1
_symmetry_cell_setting            triclinic
loop_
_symmetry_equiv_pos_as_xyz
  x,y,z
_cell_length_a                    10.3632
_cell_length_b                    23.8148
_cell_length_c                    25.8758
_cell_angle_alpha                 90.0000
_cell_angle_beta                  121.9607
_cell_angle_gamma                 90.0000
loop_
_atom_site_label
_atom_site_type_symbol
_atom_site_fract_x
_atom_site_fract_y
_atom_site_fract_z
_atom_site_U_iso_or_equiv
_atom_site_adp_type
_atom_site_occupancy
C1     C     0.44025   0.09355   0.03907   0.00000  Uiso   1.00
C2     C     0.32591   0.13450   0.99153   0.00000  Uiso   1.00
C3     C     0.18344   0.12059   0.94211   0.00000  Uiso   1.00
C4     C     0.09588   0.16412   0.90385   0.00000  Uiso   1.00
C5     C     0.91028   0.21927   0.82836   0.00000  Uiso   1.00
C6     C     0.58614   0.10042   0.03876   0.00000  Uiso   1.00
C7     C     0.66247   0.05786   0.02907   0.00000  Uiso   1.00
C8     C     0.79398   0.07272   0.03058   0.00000  Uiso   1.00
C9     C     0.01245   0.07496   0.02846   0.00000  Uiso   1.00
C10    C     0.47576   0.11566   0.10057   0.00000  Uiso   1.00
C11    C     0.45933   0.08590   0.14287   0.00000  Uiso   1.00
C12    C     0.49794   0.11357   0.19642   0.00000  Uiso   1.00
C13    C     0.54504   0.13946   0.29028   0.00000  Uiso   1.00
C14    C     0.53808   0.19561   0.05899   0.00000  Uiso   1.00
C15    C     0.37906   0.18993   0.00235   0.00000  Uiso   1.00
C16    C     0.29168   0.23350   0.96415   0.00000  Uiso   1.00
C17    C     0.14910   0.21966   0.91469   0.00000  Uiso   1.00
C18    C     0.63928   0.15586   0.04958   0.00000  Uiso   1.00
C19    C     0.77071   0.17078   0.05110   0.00000  Uiso   1.00
C20    C     0.84722   0.12825   0.04141   0.00000  Uiso   1.00
C21    C     0.52890   0.17109   0.11139   0.00000  Uiso   1.00
C22    C     0.56756   0.19882   0.16490   0.00000  Uiso   1.00
C23    C     0.55118   0.16911   0.20726   0.00000  Uiso   1.00
H24    H     0.39889   0.05039   0.03065   0.00000  Uiso   1.00
H25    H     0.14237   0.07768   0.93375   0.00000  Uiso   1.00
H26    H     0.62133   0.01497   0.02071   0.00000  Uiso   1.00
H27    H     0.41821   0.04300   0.13448   0.00000  Uiso   1.00
H28    H     0.88142   0.13238   0.83108   0.00000  Uiso   1.00
H29    H     0.89136   0.00014   0.01444   0.00000  Uiso   1.00
H30    H     0.46305   0.05925   0.25436   0.00000  Uiso   1.00
H31    H     0.57946   0.23876   0.06741   0.00000  Uiso   1.00
H32    H     0.33283   0.27640   0.97253   0.00000  Uiso   1.00
H33    H     0.81180   0.21368   0.05948   0.00000  Uiso   1.00
H34    H     0.60868   0.24171   0.17325   0.00000  Uiso   1.00
H35    H     0.03601   0.29367   0.86255   0.00000  Uiso   1.00
H36    H     0.04596   0.16142   0.04592   0.00000  Uiso   1.00
H37    H     0.61764   0.22054   0.28583   0.00000  Uiso   1.00
O38    O     0.79324   0.23438   0.78373   0.00000  Uiso   1.00
O39    O     0.11826   0.06088   0.02430   0.00000  Uiso   1.00
O40    O     0.55631   0.13844   0.33906   0.00000  Uiso   1.00
N41    N     0.95163   0.16518   0.85152   0.00000  Uiso   1.00
N42    N     0.89586   0.04154   0.02294   0.00000  Uiso   1.00
N43    N     0.49546   0.09680   0.24725   0.00000  Uiso   1.00
N44    N     0.03482   0.25196   0.86845   0.00000  Uiso   1.00
N45    N     0.97905   0.12833   0.03987   0.00000  Uiso   1.00
N46    N     0.57864   0.18359   0.26418   0.00000  Uiso   1.00
C47    C     0.76601   0.57580   0.78852   0.00000  Uiso   1.00
C48    C     0.65994   0.61961   0.74261   0.00000  Uiso   1.00
C49    C     0.51135   0.61027   0.69520   0.00000  Uiso   1.00
C50    C     0.43320   0.65580   0.65819   0.00000  Uiso   1.00
C51    C     0.25816   0.71577   0.58536   0.00000  Uiso   1.00
C52    C     0.90752   0.57514   0.78445   0.00000  Uiso   1.00
C53    C     0.96709   0.52842   0.77222   0.00000  Uiso   1.00
C54    C     0.09737   0.53653   0.77044   0.00000  Uiso   1.00
C55    C     0.30677   0.52745   0.76261   0.00000  Uiso   1.00
C56    C     0.81655   0.59944   0.85124   0.00000  Uiso   1.00
C57    C     0.79967   0.57313   0.89517   0.00000  Uiso   1.00
C58    C     0.85339   0.60169   0.94964   0.00000  Uiso   1.00
C59    C     0.92153   0.63033   0.04550   0.00000  Uiso   1.00
C60    C     0.89147   0.67327   0.80712   0.00000  Uiso   1.00
C61    C     0.72809   0.67255   0.75271   0.00000  Uiso   1.00
C62    C     0.65014   0.71811   0.71578   0.00000  Uiso   1.00
C63    C     0.50146   0.70884   0.66832   0.00000  Uiso   1.00
C64    C     0.97566   0.62808   0.79455   0.00000  Uiso   1.00
C65    C     0.10589   0.63626   0.79280   0.00000  Uiso   1.00
C66    C     0.16564   0.58956   0.78057   0.00000  Uiso   1.00
C67    C     0.88469   0.65238   0.86134   0.00000  Uiso   1.00
C68    C     0.93846   0.68098   0.91575   0.00000  Uiso   1.00
C69    C     0.92165   0.65472   0.95976   0.00000  Uiso   1.00
H70    H     0.71297   0.53458   0.78065   0.00000  Uiso   1.00
H71    H     0.45866   0.56929   0.68739   0.00000  Uiso   1.00
H72    H     0.91434   0.48746   0.76441   0.00000  Uiso   1.00
H73    H     0.74693   0.53216   0.88734   0.00000  Uiso   1.00
H74    H     0.20678   0.63112   0.58843   0.00000  Uiso   1.00
H75    H     0.16764   0.45856   0.75085   0.00000  Uiso   1.00
H76    H     0.81463   0.55283   0.01008   0.00000  Uiso   1.00
H77    H     0.94452   0.71449   0.81499   0.00000  Uiso   1.00
H78    H     0.70291   0.75907   0.72361   0.00000  Uiso   1.00
H79    H     0.15860   0.67724   0.80062   0.00000  Uiso   1.00
H80    H     0.99118   0.72194   0.92355   0.00000  Uiso   1.00
H81    H     0.40502   0.78515   0.61782   0.00000  Uiso   1.00
H82    H     0.36589   0.61259   0.78025   0.00000  Uiso   1.00
H83    H     0.01287   0.70687   0.03947   0.00000  Uiso   1.00
O84    O     0.14280   0.73421   0.54238   0.00000  Uiso   1.00
O85    O     0.40343   0.50782   0.75548   0.00000  Uiso   1.00
O86    O     0.94027   0.63151   0.09558   0.00000  Uiso   1.00
N87    N     0.28658   0.66125   0.60790   0.00000  Uiso   1.00
N88    N     0.18492   0.49992   0.75974   0.00000  Uiso   1.00
N89    N     0.85492   0.58806   0.00210   0.00000  Uiso   1.00
N90    N     0.39325   0.74414   0.62371   0.00000  Uiso   1.00
N91    N     0.29159   0.58281   0.77556   0.00000  Uiso   1.00
N92    N     0.96159   0.67094   0.01792   0.00000  Uiso   1.00
C93    C     0.55975   0.59355   0.46093   0.00000  Uiso   1.00
C94    C     0.67409   0.63450   0.50847   0.00000  Uiso   1.00
C95    C     0.81656   0.62059   0.55789   0.00000  Uiso   1.00
C96    C     0.90412   0.66412   0.59615   0.00000  Uiso   1.00
C97    C     0.08972   0.71927   0.67164   0.00000  Uiso   1.00
C98    C     0.41386   0.60042   0.46124   0.00000  Uiso   1.00
C99    C     0.33753   0.55786   0.47093   0.00000  Uiso   1.00
C100   C     0.20602   0.57272   0.46942   0.00000  Uiso   1.00
C101   C     0.98755   0.57496   0.47154   0.00000  Uiso   1.00
C102   C     0.52424   0.61566   0.39943   0.00000  Uiso   1.00
C103   C     0.54067   0.58590   0.35713   0.00000  Uiso   1.00
C104   C     0.50206   0.61357   0.30358   0.00000  Uiso   1.00
C105   C     0.45496   0.63946   0.20972   0.00000  Uiso   1.00
C106   C     0.46192   0.69561   0.44101   0.00000  Uiso   1.00
C107   C     0.62094   0.68993   0.49765   0.00000  Uiso   1.00
C108   C     0.70832   0.73350   0.53585   0.00000  Uiso   1.00
C109   C     0.85090   0.71966   0.58531   0.00000  Uiso   1.00
C110   C     0.36072   0.65586   0.45042   0.00000  Uiso   1.00
C111   C     0.22929   0.67078   0.44890   0.00000  Uiso   1.00
C112   C     0.15278   0.62825   0.45859   0.00000  Uiso   1.00
C113   C     0.47110   0.67109   0.38861   0.00000  Uiso   1.00
C114   C     0.43244   0.69882   0.33510   0.00000  Uiso   1.00
C115   C     0.44882   0.66911   0.29274   0.00000  Uiso   1.00
H116   H     0.60111   0.55039   0.46935   0.00000  Uiso   1.00
H117   H     0.85763   0.57768   0.56625   0.00000  Uiso   1.00
H118   H     0.37867   0.51497   0.47929   0.00000  Uiso   1.00
H119   H     0.58179   0.54300   0.36552   0.00000  Uiso   1.00
H120   H     0.11858   0.63238   0.66892   0.00000  Uiso   1.00
H121   H     0.10864   0.50014   0.48556   0.00000  Uiso   1.00
H122   H     0.53695   0.55925   0.24564   0.00000  Uiso   1.00
H123   H     0.42054   0.73876   0.43259   0.00000  Uiso   1.00
H124   H     0.66717   0.77640   0.52747   0.00000  Uiso   1.00
H125   H     0.18820   0.71368   0.44052   0.00000  Uiso   1.00
H126   H     0.39132   0.74171   0.32675   0.00000  Uiso   1.00
H127   H     0.96399   0.79367   0.63745   0.00000  Uiso   1.00
H128   H     0.95404   0.66142   0.45408   0.00000  Uiso   1.00
H129   H     0.38236   0.72054   0.21417   0.00000  Uiso   1.00
O130   O     0.20676   0.73438   0.71627   0.00000  Uiso   1.00
O131   O     0.88174   0.56088   0.47570   0.00000  Uiso   1.00
O132   O     0.44369   0.63844   0.16094   0.00000  Uiso   1.00
N133   N     0.04837   0.66518   0.64848   0.00000  Uiso   1.00
N134   N     0.10414   0.54154   0.47706   0.00000  Uiso   1.00
N135   N     0.50454   0.59680   0.25275   0.00000  Uiso   1.00
N136   N     0.96518   0.75196   0.63155   0.00000  Uiso   1.00
N137   N     0.02095   0.62833   0.46013   0.00000  Uiso   1.00
N138   N     0.42136   0.68359   0.23582   0.00000  Uiso   1.00
C139   C     0.23399   0.07580   0.71148   0.00000  Uiso   1.00
C140   C     0.34006   0.11961   0.75739   0.00000  Uiso   1.00
C141   C     0.48865   0.11027   0.80480   0.00000  Uiso   1.00
C142   C     0.56680   0.15580   0.84181   0.00000  Uiso   1.00
C143   C     0.74184   0.21577   0.91464   0.00000  Uiso   1.00
C144   C     0.09248   0.07514   0.71555   0.00000  Uiso   1.00
C145   C     0.03291   0.02842   0.72778   0.00000  Uiso   1.00
C146   C     0.90263   0.03653   0.72956   0.00000  Uiso   1.00
C147   C     0.69323   0.02745   0.73739   0.00000  Uiso   1.00
C148   C     0.18345   0.09944   0.64876   0.00000  Uiso   1.00
C149   C     0.20033   0.07313   0.60483   0.00000  Uiso   1.00
C150   C     0.14661   0.10169   0.55036   0.00000  Uiso   1.00
C151   C     0.07847   0.13033   0.45450   0.00000  Uiso   1.00
C152   C     0.10853   0.17327   0.69288   0.00000  Uiso   1.00
C153   C     0.27191   0.17255   0.74729   0.00000  Uiso   1.00
C154   C     0.34986   0.21811   0.78422   0.00000  Uiso   1.00
C155   C     0.49854   0.20884   0.83168   0.00000  Uiso   1.00
C156   C     0.02434   0.12808   0.70545   0.00000  Uiso   1.00
C157   C     0.89411   0.13626   0.70720   0.00000  Uiso   1.00
C158   C     0.83436   0.08956   0.71943   0.00000  Uiso   1.00
C159   C     0.11531   0.15238   0.63866   0.00000  Uiso   1.00
C160   C     0.06154   0.18098   0.58425   0.00000  Uiso   1.00
C161   C     0.07835   0.15472   0.54024   0.00000  Uiso   1.00
H162   H     0.28703   0.03458   0.71935   0.00000  Uiso   1.00
H163   H     0.54134   0.06929   0.81261   0.00000  Uiso   1.00
H164   H     0.08566   0.98746   0.73559   0.00000  Uiso   1.00
H165   H     0.25307   0.03216   0.61266   0.00000  Uiso   1.00
H166   H     0.79322   0.13112   0.91157   0.00000  Uiso   1.00
H167   H     0.83236   0.95856   0.74915   0.00000  Uiso   1.00
H168   H     0.18537   0.05283   0.48992   0.00000  Uiso   1.00
H169   H     0.05548   0.21449   0.68501   0.00000  Uiso   1.00
H170   H     0.29709   0.25907   0.77639   0.00000  Uiso   1.00
H171   H     0.84140   0.17724   0.69938   0.00000  Uiso   1.00
H172   H     0.00882   0.22194   0.57645   0.00000  Uiso   1.00
H173   H     0.59498   0.28515   0.88218   0.00000  Uiso   1.00
H174   H     0.63411   0.11259   0.71975   0.00000  Uiso   1.00
H175   H     0.98713   0.20687   0.46053   0.00000  Uiso   1.00
O176   O     0.85720   0.23421   0.95762   0.00000  Uiso   1.00
O177   O     0.59657   0.00782   0.74452   0.00000  Uiso   1.00
O178   O     0.05973   0.13151   0.40442   0.00000  Uiso   1.00
N179   N     0.71342   0.16125   0.89210   0.00000  Uiso   1.00
N180   N     0.81508   0.99992   0.74026   0.00000  Uiso   1.00
N181   N     0.14508   0.08806   0.49790   0.00000  Uiso   1.00
N182   N     0.60675   0.24414   0.87629   0.00000  Uiso   1.00
N183   N     0.70841   0.08281   0.72444   0.00000  Uiso   1.00
N184   N     0.03841   0.17094   0.48208   0.00000  Uiso   1.00
C185   C     0.55975   0.90645   0.96093   0.00000  Uiso   1.00
C186   C     0.67409   0.86550   0.00847   0.00000  Uiso   1.00
C187   C     0.81656   0.87941   0.05789   0.00000  Uiso   1.00
C188   C     0.90412   0.83588   0.09615   0.00000  Uiso   1.00
C189   C     0.08972   0.78073   0.17164   0.00000  Uiso   1.00
C190   C     0.41386   0.89958   0.96124   0.00000  Uiso   1.00
C191   C     0.33753   0.94214   0.97093   0.00000  Uiso   1.00
C192   C     0.20602   0.92728   0.96942   0.00000  Uiso   1.00
C193   C     0.98755   0.92504   0.97154   0.00000  Uiso   1.00
C194   C     0.52424   0.88434   0.89943   0.00000  Uiso   1.00
C195   C     0.54067   0.91410   0.85713   0.00000  Uiso   1.00
C196   C     0.50206   0.88643   0.80358   0.00000  Uiso   1.00
C197   C     0.45496   0.86054   0.70972   0.00000  Uiso   1.00
C198   C     0.46192   0.80439   0.94101   0.00000  Uiso   1.00
C199   C     0.62094   0.81007   0.99765   0.00000  Uiso   1.00
C200   C     0.70832   0.76650   0.03585   0.00000  Uiso   1.00
C201   C     0.85090   0.78034   0.08531   0.00000  Uiso   1.00
C202   C     0.36072   0.84414   0.95042   0.00000  Uiso   1.00
C203   C     0.22929   0.82922   0.94890   0.00000  Uiso   1.00
C204   C     0.15278   0.87175   0.95859   0.00000  Uiso   1.00
C205   C     0.47110   0.82891   0.88861   0.00000  Uiso   1.00
C206   C     0.43244   0.80118   0.83510   0.00000  Uiso   1.00
C207   C     0.44882   0.83089   0.79274   0.00000  Uiso   1.00
H208   H     0.60111   0.94961   0.96935   0.00000  Uiso   1.00
H209   H     0.85763   0.92232   0.06625   0.00000  Uiso   1.00
H210   H     0.37867   0.98503   0.97929   0.00000  Uiso   1.00
H211   H     0.58179   0.95700   0.86552   0.00000  Uiso   1.00
H212   H     0.11858   0.86762   0.16892   0.00000  Uiso   1.00
H213   H     0.10864   0.99986   0.98556   0.00000  Uiso   1.00
H214   H     0.53695   0.94075   0.74564   0.00000  Uiso   1.00
H215   H     0.42054   0.76124   0.93259   0.00000  Uiso   1.00
H216   H     0.66717   0.72360   0.02747   0.00000  Uiso   1.00
H217   H     0.18820   0.78632   0.94052   0.00000  Uiso   1.00
H218   H     0.39132   0.75829   0.82675   0.00000  Uiso   1.00
H219   H     0.96399   0.70633   0.13745   0.00000  Uiso   1.00
H220   H     0.95404   0.83858   0.95408   0.00000  Uiso   1.00
H221   H     0.38236   0.77946   0.71417   0.00000  Uiso   1.00
O222   O     0.20676   0.76562   0.21627   0.00000  Uiso   1.00
O223   O     0.88174   0.93912   0.97570   0.00000  Uiso   1.00
O224   O     0.44369   0.86156   0.66094   0.00000  Uiso   1.00
N225   N     0.04837   0.83482   0.14848   0.00000  Uiso   1.00
N226   N     0.10414   0.95846   0.97706   0.00000  Uiso   1.00
N227   N     0.50454   0.90320   0.75275   0.00000  Uiso   1.00
N228   N     0.96518   0.74804   0.13155   0.00000  Uiso   1.00
N229   N     0.02095   0.87167   0.96013   0.00000  Uiso   1.00
N230   N     0.42136   0.81641   0.73582   0.00000  Uiso   1.00
C231   C     0.23399   0.42420   0.21148   0.00000  Uiso   1.00
C232   C     0.34006   0.38039   0.25739   0.00000  Uiso   1.00
C233   C     0.48865   0.38973   0.30480   0.00000  Uiso   1.00
C234   C     0.56680   0.34420   0.34181   0.00000  Uiso   1.00
C235   C     0.74184   0.28423   0.41464   0.00000  Uiso   1.00
C236   C     0.09248   0.42486   0.21555   0.00000  Uiso   1.00
C237   C     0.03291   0.47158   0.22778   0.00000  Uiso   1.00
C238   C     0.90263   0.46347   0.22956   0.00000  Uiso   1.00
C239   C     0.69323   0.47255   0.23739   0.00000  Uiso   1.00
C240   C     0.18345   0.40056   0.14876   0.00000  Uiso   1.00
C241   C     0.20033   0.42687   0.10483   0.00000  Uiso   1.00
C242   C     0.14661   0.39831   0.05036   0.00000  Uiso   1.00
C243   C     0.07847   0.36967   0.95450   0.00000  Uiso   1.00
C244   C     0.10853   0.32673   0.19288   0.00000  Uiso   1.00
C245   C     0.27191   0.32745   0.24729   0.00000  Uiso   1.00
C246   C     0.34986   0.28189   0.28422   0.00000  Uiso   1.00
C247   C     0.49854   0.29116   0.33168   0.00000  Uiso   1.00
C248   C     0.02434   0.37192   0.20545   0.00000  Uiso   1.00
C249   C     0.89411   0.36374   0.20720   0.00000  Uiso   1.00
C250   C     0.83436   0.41044   0.21943   0.00000  Uiso   1.00
C251   C     0.11531   0.34762   0.13866   0.00000  Uiso   1.00
C252   C     0.06154   0.31902   0.08425   0.00000  Uiso   1.00
C253   C     0.07835   0.34528   0.04024   0.00000  Uiso   1.00
H254   H     0.28703   0.46542   0.21935   0.00000  Uiso   1.00
H255   H     0.54134   0.43071   0.31261   0.00000  Uiso   1.00
H256   H     0.08566   0.51254   0.23559   0.00000  Uiso   1.00
H257   H     0.25307   0.46784   0.11266   0.00000  Uiso   1.00
H258   H     0.79322   0.36888   0.41157   0.00000  Uiso   1.00
H259   H     0.83236   0.54144   0.24915   0.00000  Uiso   1.00
H260   H     0.18537   0.44717   0.98992   0.00000  Uiso   1.00
H261   H     0.05548   0.28551   0.18501   0.00000  Uiso   1.00
H262   H     0.29709   0.24093   0.27639   0.00000  Uiso   1.00
H263   H     0.84140   0.32276   0.19938   0.00000  Uiso   1.00
H264   H     0.00882   0.27806   0.07645   0.00000  Uiso   1.00
H265   H     0.59498   0.21485   0.38218   0.00000  Uiso   1.00
H266   H     0.63411   0.38741   0.21975   0.00000  Uiso   1.00
H267   H     0.98713   0.29313   0.96053   0.00000  Uiso   1.00
O268   O     0.85720   0.26579   0.45762   0.00000  Uiso   1.00
O269   O     0.59657   0.49218   0.24452   0.00000  Uiso   1.00
O270   O     0.05973   0.36849   0.90442   0.00000  Uiso   1.00
N271   N     0.71342   0.33875   0.39210   0.00000  Uiso   1.00
N272   N     0.81508   0.50008   0.24026   0.00000  Uiso   1.00
N273   N     0.14508   0.41194   0.99790   0.00000  Uiso   1.00
N274   N     0.60675   0.25586   0.37629   0.00000  Uiso   1.00
N275   N     0.70841   0.41719   0.22444   0.00000  Uiso   1.00
N276   N     0.03841   0.32906   0.98208   0.00000  Uiso   1.00
C277   C     0.44025   0.40645   0.53907   0.00000  Uiso   1.00
C278   C     0.32591   0.36550   0.49153   0.00000  Uiso   1.00
C279   C     0.18344   0.37941   0.44211   0.00000  Uiso   1.00
C280   C     0.09588   0.33588   0.40385   0.00000  Uiso   1.00
C281   C     0.91028   0.28073   0.32836   0.00000  Uiso   1.00
C282   C     0.58614   0.39958   0.53876   0.00000  Uiso   1.00
C283   C     0.66247   0.44214   0.52907   0.00000  Uiso   1.00
C284   C     0.79398   0.42728   0.53058   0.00000  Uiso   1.00
C285   C     0.01245   0.42504   0.52846   0.00000  Uiso   1.00
C286   C     0.47576   0.38434   0.60057   0.00000  Uiso   1.00
C287   C     0.45933   0.41410   0.64287   0.00000  Uiso   1.00
C288   C     0.49794   0.38643   0.69642   0.00000  Uiso   1.00
C289   C     0.54504   0.36054   0.79028   0.00000  Uiso   1.00
C290   C     0.53808   0.30439   0.55899   0.00000  Uiso   1.00
C291   C     0.37906   0.31007   0.50235   0.00000  Uiso   1.00
C292   C     0.29168   0.26650   0.46415   0.00000  Uiso   1.00
C293   C     0.14910   0.28034   0.41469   0.00000  Uiso   1.00
C294   C     0.63928   0.34414   0.54958   0.00000  Uiso   1.00
C295   C     0.77071   0.32922   0.55110   0.00000  Uiso   1.00
C296   C     0.84722   0.37175   0.54141   0.00000  Uiso   1.00
C297   C     0.52890   0.32891   0.61139   0.00000  Uiso   1.00
C298   C     0.56756   0.30118   0.66490   0.00000  Uiso   1.00
C299   C     0.55118   0.33089   0.70726   0.00000  Uiso   1.00
H300   H     0.39889   0.44961   0.53065   0.00000  Uiso   1.00
H301   H     0.14237   0.42232   0.43375   0.00000  Uiso   1.00
H302   H     0.62133   0.48503   0.52071   0.00000  Uiso   1.00
H303   H     0.41821   0.45700   0.63448   0.00000  Uiso   1.00
H304   H     0.88142   0.36762   0.33108   0.00000  Uiso   1.00
H305   H     0.89136   0.49986   0.51444   0.00000  Uiso   1.00
H306   H     0.46305   0.44075   0.75436   0.00000  Uiso   1.00
H307   H     0.57946   0.26124   0.56741   0.00000  Uiso   1.00
H308   H     0.33283   0.22360   0.47253   0.00000  Uiso   1.00
H309   H     0.81180   0.28632   0.55948   0.00000  Uiso   1.00
H310   H     0.60868   0.25829   0.67325   0.00000  Uiso   1.00
H311   H     0.03601   0.20633   0.36255   0.00000  Uiso   1.00
H312   H     0.04596   0.33858   0.54592   0.00000  Uiso   1.00
H313   H     0.61764   0.27946   0.78583   0.00000  Uiso   1.00
O314   O     0.79324   0.26562   0.28373   0.00000  Uiso   1.00
O315   O     0.11826   0.43912   0.52430   0.00000  Uiso   1.00
O316   O     0.55631   0.36156   0.83906   0.00000  Uiso   1.00
N317   N     0.95163   0.33482   0.35152   0.00000  Uiso   1.00
N318   N     0.89586   0.45846   0.52294   0.00000  Uiso   1.00
N319   N     0.49546   0.40320   0.74725   0.00000  Uiso   1.00
N320   N     0.03482   0.24804   0.36845   0.00000  Uiso   1.00
N321   N     0.97905   0.37167   0.53987   0.00000  Uiso   1.00
N322   N     0.57864   0.31641   0.76418   0.00000  Uiso   1.00
C323   C     0.76601   0.92420   0.28852   0.00000  Uiso   1.00
C324   C     0.65994   0.88039   0.24261   0.00000  Uiso   1.00
C325   C     0.51135   0.88973   0.19520   0.00000  Uiso   1.00
C326   C     0.43320   0.84420   0.15819   0.00000  Uiso   1.00
C327   C     0.25816   0.78423   0.08536   0.00000  Uiso   1.00
C328   C     0.90752   0.92486   0.28445   0.00000  Uiso   1.00
C329   C     0.96709   0.97158   0.27222   0.00000  Uiso   1.00
C330   C     0.09737   0.96347   0.27044   0.00000  Uiso   1.00
C331   C     0.30677   0.97255   0.26261   0.00000  Uiso   1.00
C332   C     0.81655   0.90056   0.35124   0.00000  Uiso   1.00
C333   C     0.79967   0.92687   0.39517   0.00000  Uiso   1.00
C334   C     0.85339   0.89831   0.44964   0.00000  Uiso   1.00
C335   C     0.92153   0.86967   0.54550   0.00000  Uiso   1.00
C336   C     0.89147   0.82673   0.30712   0.00000  Uiso   1.00
C337   C     0.72809   0.82745   0.25271   0.00000  Uiso   1.00
C338   C     0.65014   0.78189   0.21578   0.00000  Uiso   1.00
C339   C     0.50146   0.79116   0.16832   0.00000  Uiso   1.00
C340   C     0.97566   0.87192   0.29455   0.00000  Uiso   1.00
C341   C     0.10589   0.86374   0.29280   0.00000  Uiso   1.00
C342   C     0.16564   0.91044   0.28057   0.00000  Uiso   1.00
C343   C     0.88469   0.84762   0.36134   0.00000  Uiso   1.00
C344   C     0.93846   0.81902   0.41575   0.00000  Uiso   1.00
C345   C     0.92165   0.84528   0.45976   0.00000  Uiso   1.00
H346   H     0.71297   0.96542   0.28065   0.00000  Uiso   1.00
H347   H     0.45866   0.93071   0.18739   0.00000  Uiso   1.00
H348   H     0.91434   0.01254   0.26441   0.00000  Uiso   1.00
H349   H     0.74693   0.96784   0.38734   0.00000  Uiso   1.00
H350   H     0.20678   0.86888   0.08843   0.00000  Uiso   1.00
H351   H     0.16764   0.04144   0.25085   0.00000  Uiso   1.00
H352   H     0.81463   0.94717   0.51008   0.00000  Uiso   1.00
H353   H     0.94452   0.78551   0.31499   0.00000  Uiso   1.00
H354   H     0.70291   0.74093   0.22361   0.00000  Uiso   1.00
H355   H     0.15860   0.82276   0.30062   0.00000  Uiso   1.00
H356   H     0.99118   0.77806   0.42355   0.00000  Uiso   1.00
H357   H     0.40502   0.71485   0.11782   0.00000  Uiso   1.00
H358   H     0.36589   0.88741   0.28025   0.00000  Uiso   1.00
H359   H     0.01287   0.79313   0.53947   0.00000  Uiso   1.00
O360   O     0.14280   0.76579   0.04238   0.00000  Uiso   1.00
O361   O     0.40343   0.99218   0.25548   0.00000  Uiso   1.00
O362   O     0.94027   0.86849   0.59558   0.00000  Uiso   1.00
N363   N     0.28658   0.83875   0.10790   0.00000  Uiso   1.00
N364   N     0.18492   0.00008   0.25974   0.00000  Uiso   1.00
N365   N     0.85492   0.91194   0.50210   0.00000  Uiso   1.00
N366   N     0.39325   0.75586   0.12371   0.00000  Uiso   1.00
N367   N     0.29159   0.91719   0.27556   0.00000  Uiso   1.00
N368   N     0.96159   0.82906   0.51792   0.00000  Uiso   1.00
