data_job_01558
_audit_creation_date              2018-12-19
_audit_creation_method            'Materials Studio'
_symmetry_space_group_name_H-M    'P1'
_symmetry_Int_Tables_number       1
_symmetry_cell_setting            triclinic
loop_
_symmetry_equiv_pos_as_xyz
  x,y,z
_cell_length_a                    13.0742
_cell_length_b                    12.5544
_cell_length_c                    17.6208
_cell_angle_alpha                 90.0000
_cell_angle_beta                  90.0000
_cell_angle_gamma                 90.0000
loop_
_atom_site_label
_atom_site_type_symbol
_atom_site_fract_x
_atom_site_fract_y
_atom_site_fract_z
_atom_site_U_iso_or_equiv
_atom_site_adp_type
_atom_site_occupancy
C1     C     0.63513   0.93547   0.95618   0.00000  Uiso   1.00
C2     C     0.65408   0.90986   0.03960   0.00000  Uiso   1.00
C3     C     0.74790   0.91442   0.07629   0.00000  Uiso   1.00
C4     C     0.74925   0.88794   0.15279   0.00000  Uiso   1.00
C5     C     0.79227   0.85267   0.27647   0.00000  Uiso   1.00
C6     C     0.58518   0.83659   0.92221   0.00000  Uiso   1.00
C7     C     0.62106   0.77958   0.86021   0.00000  Uiso   1.00
C8     C     0.56441   0.69144   0.83789   0.00000  Uiso   1.00
C9     C     0.50042   0.54248   0.77930   0.00000  Uiso   1.00
C10    C     0.55345   0.02216   0.95510   0.00000  Uiso   1.00
C11    C     0.56264   0.12116   0.92072   0.00000  Uiso   1.00
C12    C     0.47926   0.18925   0.92607   0.00000  Uiso   1.00
C13    C     0.36601   0.32841   0.91854   0.00000  Uiso   1.00
C14    C     0.47071   0.88033   0.02677   0.00000  Uiso   1.00
C15    C     0.56477   0.87990   0.07794   0.00000  Uiso   1.00
C16    C     0.56598   0.85342   0.15440   0.00000  Uiso   1.00
C17    C     0.65979   0.85795   0.19120   0.00000  Uiso   1.00
C18    C     0.49588   0.80665   0.96056   0.00000  Uiso   1.00
C19    C     0.43915   0.71857   0.93832   0.00000  Uiso   1.00
C20    C     0.47494   0.66143   0.87630   0.00000  Uiso   1.00
C21    C     0.46414   0.99222   0.99344   0.00000  Uiso   1.00
C22    C     0.38073   0.06016   0.99883   0.00000  Uiso   1.00
C23    C     0.38979   0.15925   0.96448   0.00000  Uiso   1.00
H24    H     0.70466   0.95878   0.92632   0.00000  Uiso   1.00
H25    H     0.81699   0.93759   0.04660   0.00000  Uiso   1.00
H26    H     0.69017   0.80278   0.83055   0.00000  Uiso   1.00
H27    H     0.63176   0.14431   0.89106   0.00000  Uiso   1.00
H28    H     0.90216   0.90085   0.19685   0.00000  Uiso   1.00
H29    H     0.63473   0.61661   0.74128   0.00000  Uiso   1.00
H30    H     0.51157   0.33680   0.86887   0.00000  Uiso   1.00
H31    H     0.40117   0.85701   0.05662   0.00000  Uiso   1.00
H32    H     0.49686   0.83024   0.18405   0.00000  Uiso   1.00
H33    H     0.37004   0.69543   0.96800   0.00000  Uiso   1.00
H34    H     0.31163   0.03696   0.02851   0.00000  Uiso   1.00
H35    H     0.64233   0.81372   0.30841   0.00000  Uiso   1.00
H36    H     0.37490   0.52948   0.85284   0.00000  Uiso   1.00
H37    H     0.25174   0.24967   0.98043   0.00000  Uiso   1.00
O38    O     0.84068   0.84148   0.33410   0.00000  Uiso   1.00
O39    O     0.48981   0.46858   0.73640   0.00000  Uiso   1.00
O40    O     0.32822   0.41345   0.90380   0.00000  Uiso   1.00
N41    N     0.82788   0.88404   0.20562   0.00000  Uiso   1.00
N42    N     0.57786   0.61828   0.77970   0.00000  Uiso   1.00
N43    N     0.46269   0.29159   0.89896   0.00000  Uiso   1.00
N44    N     0.68806   0.83716   0.26565   0.00000  Uiso   1.00
N45    N     0.43804   0.57140   0.83973   0.00000  Uiso   1.00
N46    N     0.32288   0.24470   0.95900   0.00000  Uiso   1.00
C47    C     0.36487   0.06453   0.45618   0.00000  Uiso   1.00
C48    C     0.34592   0.09014   0.53960   0.00000  Uiso   1.00
C49    C     0.25210   0.08558   0.57629   0.00000  Uiso   1.00
C50    C     0.25075   0.11206   0.65279   0.00000  Uiso   1.00
C51    C     0.20773   0.14733   0.77647   0.00000  Uiso   1.00
C52    C     0.41482   0.16341   0.42221   0.00000  Uiso   1.00
C53    C     0.37894   0.22042   0.36021   0.00000  Uiso   1.00
C54    C     0.43559   0.30856   0.33789   0.00000  Uiso   1.00
C55    C     0.49958   0.45752   0.27930   0.00000  Uiso   1.00
C56    C     0.44655   0.97784   0.45510   0.00000  Uiso   1.00
C57    C     0.43736   0.87884   0.42072   0.00000  Uiso   1.00
C58    C     0.52074   0.81075   0.42607   0.00000  Uiso   1.00
C59    C     0.63399   0.67159   0.41854   0.00000  Uiso   1.00
C60    C     0.52929   0.11967   0.52677   0.00000  Uiso   1.00
C61    C     0.43523   0.12010   0.57794   0.00000  Uiso   1.00
C62    C     0.43402   0.14658   0.65440   0.00000  Uiso   1.00
C63    C     0.34021   0.14205   0.69120   0.00000  Uiso   1.00
C64    C     0.50412   0.19335   0.46056   0.00000  Uiso   1.00
C65    C     0.56085   0.28143   0.43832   0.00000  Uiso   1.00
C66    C     0.52506   0.33857   0.37630   0.00000  Uiso   1.00
C67    C     0.53586   0.00778   0.49344   0.00000  Uiso   1.00
C68    C     0.61927   0.93984   0.49883   0.00000  Uiso   1.00
C69    C     0.61021   0.84075   0.46448   0.00000  Uiso   1.00
H70    H     0.29534   0.04122   0.42632   0.00000  Uiso   1.00
H71    H     0.18301   0.06241   0.54660   0.00000  Uiso   1.00
H72    H     0.30983   0.19722   0.33055   0.00000  Uiso   1.00
H73    H     0.36824   0.85569   0.39106   0.00000  Uiso   1.00
H74    H     0.09784   0.09915   0.69685   0.00000  Uiso   1.00
H75    H     0.36527   0.38339   0.24128   0.00000  Uiso   1.00
H76    H     0.48843   0.66320   0.36887   0.00000  Uiso   1.00
H77    H     0.59883   0.14299   0.55662   0.00000  Uiso   1.00
H78    H     0.50314   0.16976   0.68405   0.00000  Uiso   1.00
H79    H     0.62996   0.30457   0.46800   0.00000  Uiso   1.00
H80    H     0.68837   0.96304   0.52851   0.00000  Uiso   1.00
H81    H     0.35767   0.18628   0.80841   0.00000  Uiso   1.00
H82    H     0.62510   0.47052   0.35284   0.00000  Uiso   1.00
H83    H     0.74826   0.75033   0.48043   0.00000  Uiso   1.00
O84    O     0.15932   0.15852   0.83410   0.00000  Uiso   1.00
O85    O     0.51019   0.53142   0.23640   0.00000  Uiso   1.00
O86    O     0.67178   0.58655   0.40380   0.00000  Uiso   1.00
N87    N     0.17212   0.11596   0.70562   0.00000  Uiso   1.00
N88    N     0.42214   0.38172   0.27970   0.00000  Uiso   1.00
N89    N     0.53731   0.70841   0.39896   0.00000  Uiso   1.00
N90    N     0.31194   0.16284   0.76565   0.00000  Uiso   1.00
N91    N     0.56196   0.42860   0.33973   0.00000  Uiso   1.00
N92    N     0.67712   0.75530   0.45900   0.00000  Uiso   1.00
C93    C     0.13513   0.56453   0.95618   0.00000  Uiso   1.00
C94    C     0.15408   0.59014   0.03960   0.00000  Uiso   1.00
C95    C     0.24790   0.58558   0.07629   0.00000  Uiso   1.00
C96    C     0.24925   0.61206   0.15279   0.00000  Uiso   1.00
C97    C     0.29227   0.64733   0.27647   0.00000  Uiso   1.00
C98    C     0.08518   0.66341   0.92221   0.00000  Uiso   1.00
C99    C     0.12106   0.72042   0.86021   0.00000  Uiso   1.00
C100   C     0.06441   0.80856   0.83789   0.00000  Uiso   1.00
C101   C     0.00042   0.95752   0.77930   0.00000  Uiso   1.00
C102   C     0.05345   0.47784   0.95510   0.00000  Uiso   1.00
C103   C     0.06264   0.37884   0.92072   0.00000  Uiso   1.00
C104   C     0.97926   0.31075   0.92607   0.00000  Uiso   1.00
C105   C     0.86601   0.17159   0.91854   0.00000  Uiso   1.00
C106   C     0.97071   0.61967   0.02677   0.00000  Uiso   1.00
C107   C     0.06477   0.62010   0.07794   0.00000  Uiso   1.00
C108   C     0.06598   0.64658   0.15440   0.00000  Uiso   1.00
C109   C     0.15979   0.64205   0.19120   0.00000  Uiso   1.00
C110   C     0.99588   0.69335   0.96056   0.00000  Uiso   1.00
C111   C     0.93915   0.78143   0.93832   0.00000  Uiso   1.00
C112   C     0.97494   0.83857   0.87630   0.00000  Uiso   1.00
C113   C     0.96414   0.50778   0.99344   0.00000  Uiso   1.00
C114   C     0.88073   0.43984   0.99883   0.00000  Uiso   1.00
C115   C     0.88979   0.34075   0.96448   0.00000  Uiso   1.00
H116   H     0.20466   0.54122   0.92632   0.00000  Uiso   1.00
H117   H     0.31699   0.56241   0.04660   0.00000  Uiso   1.00
H118   H     0.19017   0.69722   0.83055   0.00000  Uiso   1.00
H119   H     0.13176   0.35569   0.89106   0.00000  Uiso   1.00
H120   H     0.40216   0.59915   0.19685   0.00000  Uiso   1.00
H121   H     0.13473   0.88339   0.74128   0.00000  Uiso   1.00
H122   H     0.01157   0.16320   0.86887   0.00000  Uiso   1.00
H123   H     0.90117   0.64299   0.05662   0.00000  Uiso   1.00
H124   H     0.99686   0.66976   0.18405   0.00000  Uiso   1.00
H125   H     0.87004   0.80457   0.96800   0.00000  Uiso   1.00
H126   H     0.81163   0.46304   0.02851   0.00000  Uiso   1.00
H127   H     0.14233   0.68628   0.30841   0.00000  Uiso   1.00
H128   H     0.87490   0.97052   0.85284   0.00000  Uiso   1.00
H129   H     0.75174   0.25033   0.98043   0.00000  Uiso   1.00
O130   O     0.34068   0.65852   0.33410   0.00000  Uiso   1.00
O131   O     0.98981   0.03142   0.73640   0.00000  Uiso   1.00
O132   O     0.82822   0.08655   0.90380   0.00000  Uiso   1.00
N133   N     0.32788   0.61596   0.20562   0.00000  Uiso   1.00
N134   N     0.07786   0.88172   0.77970   0.00000  Uiso   1.00
N135   N     0.96269   0.20841   0.89896   0.00000  Uiso   1.00
N136   N     0.18806   0.66284   0.26565   0.00000  Uiso   1.00
N137   N     0.93804   0.92860   0.83973   0.00000  Uiso   1.00
N138   N     0.82288   0.25530   0.95900   0.00000  Uiso   1.00
C139   C     0.86487   0.43547   0.45618   0.00000  Uiso   1.00
C140   C     0.84592   0.40986   0.53960   0.00000  Uiso   1.00
C141   C     0.75210   0.41442   0.57629   0.00000  Uiso   1.00
C142   C     0.75075   0.38794   0.65279   0.00000  Uiso   1.00
C143   C     0.70773   0.35267   0.77647   0.00000  Uiso   1.00
C144   C     0.91482   0.33659   0.42221   0.00000  Uiso   1.00
C145   C     0.87894   0.27958   0.36021   0.00000  Uiso   1.00
C146   C     0.93559   0.19144   0.33789   0.00000  Uiso   1.00
C147   C     0.99958   0.04248   0.27930   0.00000  Uiso   1.00
C148   C     0.94655   0.52216   0.45510   0.00000  Uiso   1.00
C149   C     0.93736   0.62116   0.42072   0.00000  Uiso   1.00
C150   C     0.02074   0.68925   0.42607   0.00000  Uiso   1.00
C151   C     0.13399   0.82841   0.41854   0.00000  Uiso   1.00
C152   C     0.02929   0.38033   0.52677   0.00000  Uiso   1.00
C153   C     0.93523   0.37990   0.57794   0.00000  Uiso   1.00
C154   C     0.93402   0.35342   0.65440   0.00000  Uiso   1.00
C155   C     0.84021   0.35795   0.69120   0.00000  Uiso   1.00
C156   C     0.00412   0.30665   0.46056   0.00000  Uiso   1.00
C157   C     0.06085   0.21857   0.43832   0.00000  Uiso   1.00
C158   C     0.02506   0.16143   0.37630   0.00000  Uiso   1.00
C159   C     0.03586   0.49222   0.49344   0.00000  Uiso   1.00
C160   C     0.11927   0.56016   0.49883   0.00000  Uiso   1.00
C161   C     0.11021   0.65925   0.46448   0.00000  Uiso   1.00
H162   H     0.79534   0.45878   0.42632   0.00000  Uiso   1.00
H163   H     0.68301   0.43759   0.54660   0.00000  Uiso   1.00
H164   H     0.80983   0.30278   0.33055   0.00000  Uiso   1.00
H165   H     0.86824   0.64431   0.39106   0.00000  Uiso   1.00
H166   H     0.59784   0.40085   0.69685   0.00000  Uiso   1.00
H167   H     0.86527   0.11661   0.24128   0.00000  Uiso   1.00
H168   H     0.98843   0.83680   0.36887   0.00000  Uiso   1.00
H169   H     0.09883   0.35701   0.55662   0.00000  Uiso   1.00
H170   H     0.00314   0.33024   0.68405   0.00000  Uiso   1.00
H171   H     0.12996   0.19543   0.46800   0.00000  Uiso   1.00
H172   H     0.18837   0.53696   0.52851   0.00000  Uiso   1.00
H173   H     0.85767   0.31372   0.80841   0.00000  Uiso   1.00
H174   H     0.12510   0.02948   0.35284   0.00000  Uiso   1.00
H175   H     0.24826   0.74967   0.48043   0.00000  Uiso   1.00
O176   O     0.65932   0.34148   0.83410   0.00000  Uiso   1.00
O177   O     0.01019   0.96858   0.23640   0.00000  Uiso   1.00
O178   O     0.17178   0.91345   0.40380   0.00000  Uiso   1.00
N179   N     0.67212   0.38404   0.70562   0.00000  Uiso   1.00
N180   N     0.92214   0.11828   0.27970   0.00000  Uiso   1.00
N181   N     0.03731   0.79159   0.39896   0.00000  Uiso   1.00
N182   N     0.81194   0.33716   0.76565   0.00000  Uiso   1.00
N183   N     0.06196   0.07140   0.33973   0.00000  Uiso   1.00
N184   N     0.17712   0.74470   0.45900   0.00000  Uiso   1.00
