data_job_03627
_audit_creation_date              2018-12-19
_audit_creation_method            'Materials Studio'
_symmetry_space_group_name_H-M    'P1'
_symmetry_Int_Tables_number       1
_symmetry_cell_setting            triclinic
loop_
_symmetry_equiv_pos_as_xyz
  x,y,z
_cell_length_a                    25.1726
_cell_length_b                    25.1726
_cell_length_c                    21.0764
_cell_angle_alpha                 90.0000
_cell_angle_beta                  90.0000
_cell_angle_gamma                 120.0000
loop_
_atom_site_label
_atom_site_type_symbol
_atom_site_fract_x
_atom_site_fract_y
_atom_site_fract_z
_atom_site_U_iso_or_equiv
_atom_site_adp_type
_atom_site_occupancy
C1     C     0.21435   0.82498   0.34253   0.00000  Uiso   1.00
C2     C     0.18614   0.86482   0.35778   0.00000  Uiso   1.00
C3     C     0.18203   0.90551   0.31640   0.00000  Uiso   1.00
C4     C     0.15462   0.93771   0.33940   0.00000  Uiso   1.00
C5     C     0.11426   0.00084   0.35363   0.00000  Uiso   1.00
C6     C     0.26404   0.84067   0.39227   0.00000  Uiso   1.00
C7     C     0.32542   0.86104   0.37990   0.00000  Uiso   1.00
C8     C     0.36358   0.87290   0.43194   0.00000  Uiso   1.00
C9     C     0.44415   0.89850   0.49972   0.00000  Uiso   1.00
C10    C     0.16452   0.75907   0.35595   0.00000  Uiso   1.00
C11    C     0.14224   0.71082   0.31305   0.00000  Uiso   1.00
C12    C     0.09662   0.65397   0.33452   0.00000  Uiso   1.00
C13    C     0.02268   0.55287   0.34590   0.00000  Uiso   1.00
C14    C     0.17297   0.80981   0.45694   0.00000  Uiso   1.00
C15    C     0.16367   0.85658   0.41992   0.00000  Uiso   1.00
C16    C     0.13624   0.88873   0.44298   0.00000  Uiso   1.00
C17    C     0.13209   0.92945   0.40165   0.00000  Uiso   1.00
C18    C     0.24156   0.83243   0.45441   0.00000  Uiso   1.00
C19    C     0.27964   0.84426   0.50648   0.00000  Uiso   1.00
C20    C     0.34106   0.86465   0.49420   0.00000  Uiso   1.00
C21    C     0.14204   0.75083   0.41809   0.00000  Uiso   1.00
C22    C     0.09645   0.69404   0.43963   0.00000  Uiso   1.00
C23    C     0.07410   0.64572   0.39677   0.00000  Uiso   1.00
H24    H     0.23186   0.83139   0.29416   0.00000  Uiso   1.00
H25    H     0.19944   0.91187   0.26832   0.00000  Uiso   1.00
H26    H     0.34280   0.86740   0.33181   0.00000  Uiso   1.00
H27    H     0.15965   0.71721   0.26497   0.00000  Uiso   1.00
H28    H     0.15361   0.99748   0.26709   0.00000  Uiso   1.00
H29    H     0.45589   0.90370   0.40096   0.00000  Uiso   1.00
H30    H     0.06968   0.58698   0.26001   0.00000  Uiso   1.00
H31    H     0.15547   0.80340   0.50532   0.00000  Uiso   1.00
H32    H     0.11885   0.88234   0.49107   0.00000  Uiso   1.00
H33    H     0.26222   0.83788   0.55456   0.00000  Uiso   1.00
H34    H     0.07907   0.68768   0.48772   0.00000  Uiso   1.00
H35    H     0.08820   0.97352   0.44788   0.00000  Uiso   1.00
H36    H     0.39049   0.87973   0.58176   0.00000  Uiso   1.00
H37    H     0.00428   0.56302   0.44081   0.00000  Uiso   1.00
O38    O     0.09822   0.03795   0.34431   0.00000  Uiso   1.00
O39    O     0.49480   0.91490   0.51994   0.00000  Uiso   1.00
O40    O     0.98810   0.49938   0.33502   0.00000  Uiso   1.00
N41    N     0.14323   0.98100   0.31159   0.00000  Uiso   1.00
N42    N     0.42585   0.89333   0.43675   0.00000  Uiso   1.00
N43    N     0.06478   0.59722   0.30498   0.00000  Uiso   1.00
N44    N     0.10803   0.96810   0.40887   0.00000  Uiso   1.00
N45    N     0.39066   0.88043   0.53404   0.00000  Uiso   1.00
N46    N     0.02959   0.58432   0.40227   0.00000  Uiso   1.00
C47    C     0.17502   0.38937   0.00920   0.00000  Uiso   1.00
C48    C     0.13518   0.32132   0.02444   0.00000  Uiso   1.00
C49    C     0.09449   0.27653   0.98307   0.00000  Uiso   1.00
C50    C     0.06229   0.21691   0.00607   0.00000  Uiso   1.00
C51    C     0.99916   0.11342   0.02029   0.00000  Uiso   1.00
C52    C     0.15933   0.42337   0.05894   0.00000  Uiso   1.00
C53    C     0.13896   0.46438   0.04657   0.00000  Uiso   1.00
C54    C     0.12710   0.49068   0.09861   0.00000  Uiso   1.00
C55    C     0.10150   0.54565   0.16639   0.00000  Uiso   1.00
C56    C     0.24093   0.40546   0.02262   0.00000  Uiso   1.00
C57    C     0.28918   0.43143   0.97972   0.00000  Uiso   1.00
C58    C     0.34603   0.44265   0.00118   0.00000  Uiso   1.00
C59    C     0.44713   0.46981   0.01257   0.00000  Uiso   1.00
C60    C     0.19019   0.36315   0.12361   0.00000  Uiso   1.00
C61    C     0.14342   0.30708   0.08659   0.00000  Uiso   1.00
C62    C     0.11127   0.24752   0.10965   0.00000  Uiso   1.00
C63    C     0.07055   0.20264   0.06832   0.00000  Uiso   1.00
C64    C     0.16757   0.40913   0.12108   0.00000  Uiso   1.00
C65    C     0.15574   0.43537   0.17315   0.00000  Uiso   1.00
C66    C     0.13535   0.47641   0.16086   0.00000  Uiso   1.00
C67    C     0.24917   0.39122   0.08476   0.00000  Uiso   1.00
C68    C     0.30596   0.40241   0.10630   0.00000  Uiso   1.00
C69    C     0.35428   0.42839   0.06344   0.00000  Uiso   1.00
H70    H     0.16861   0.40046   0.96082   0.00000  Uiso   1.00
H71    H     0.08813   0.28757   0.93499   0.00000  Uiso   1.00
H72    H     0.13260   0.47540   0.99848   0.00000  Uiso   1.00
H73    H     0.28279   0.44244   0.93163   0.00000  Uiso   1.00
H74    H     0.00252   0.15612   0.93375   0.00000  Uiso   1.00
H75    H     0.09630   0.55219   0.06763   0.00000  Uiso   1.00
H76    H     0.41302   0.48270   0.92668   0.00000  Uiso   1.00
H77    H     0.19660   0.35207   0.17199   0.00000  Uiso   1.00
H78    H     0.11766   0.23651   0.15774   0.00000  Uiso   1.00
H79    H     0.16212   0.42434   0.22123   0.00000  Uiso   1.00
H80    H     0.31232   0.39139   0.15439   0.00000  Uiso   1.00
H81    H     0.02648   0.11469   0.11455   0.00000  Uiso   1.00
H82    H     0.12027   0.51076   0.24842   0.00000  Uiso   1.00
H83    H     0.43698   0.44126   0.10747   0.00000  Uiso   1.00
O84    O     0.96205   0.06027   0.01098   0.00000  Uiso   1.00
O85    O     0.08510   0.57990   0.18661   0.00000  Uiso   1.00
O86    O     0.50062   0.48872   0.00169   0.00000  Uiso   1.00
N87    N     0.01900   0.16223   0.97826   0.00000  Uiso   1.00
N88    N     0.10667   0.53252   0.10342   0.00000  Uiso   1.00
N89    N     0.40278   0.46756   0.97165   0.00000  Uiso   1.00
N90    N     0.03190   0.13993   0.07554   0.00000  Uiso   1.00
N91    N     0.11957   0.51022   0.20070   0.00000  Uiso   1.00
N92    N     0.41568   0.44527   0.06893   0.00000  Uiso   1.00
C93    C     0.61063   0.78565   0.67587   0.00000  Uiso   1.00
C94    C     0.67868   0.81386   0.69111   0.00000  Uiso   1.00
C95    C     0.72347   0.81797   0.64974   0.00000  Uiso   1.00
C96    C     0.78309   0.84538   0.67273   0.00000  Uiso   1.00
C97    C     0.88658   0.88574   0.68696   0.00000  Uiso   1.00
C98    C     0.57663   0.73596   0.72561   0.00000  Uiso   1.00
C99    C     0.53562   0.67458   0.71324   0.00000  Uiso   1.00
C100   C     0.50932   0.63642   0.76528   0.00000  Uiso   1.00
C101   C     0.45435   0.55585   0.83306   0.00000  Uiso   1.00
C102   C     0.59454   0.83548   0.68929   0.00000  Uiso   1.00
C103   C     0.56857   0.85776   0.64639   0.00000  Uiso   1.00
C104   C     0.55735   0.90338   0.66785   0.00000  Uiso   1.00
C105   C     0.53019   0.97732   0.67924   0.00000  Uiso   1.00
C106   C     0.63685   0.82703   0.79027   0.00000  Uiso   1.00
C107   C     0.69292   0.83633   0.75325   0.00000  Uiso   1.00
C108   C     0.75248   0.86376   0.77632   0.00000  Uiso   1.00
C109   C     0.79736   0.86791   0.73499   0.00000  Uiso   1.00
C110   C     0.59087   0.75844   0.78775   0.00000  Uiso   1.00
C111   C     0.56463   0.72036   0.83982   0.00000  Uiso   1.00
C112   C     0.52359   0.65894   0.82753   0.00000  Uiso   1.00
C113   C     0.60878   0.85796   0.75143   0.00000  Uiso   1.00
C114   C     0.59759   0.90355   0.77296   0.00000  Uiso   1.00
C115   C     0.57161   0.92590   0.73010   0.00000  Uiso   1.00
H116   H     0.59954   0.76814   0.62749   0.00000  Uiso   1.00
H117   H     0.71243   0.80056   0.60165   0.00000  Uiso   1.00
H118   H     0.52460   0.65720   0.66514   0.00000  Uiso   1.00
H119   H     0.55756   0.84035   0.59830   0.00000  Uiso   1.00
H120   H     0.84388   0.84639   0.60042   0.00000  Uiso   1.00
H121   H     0.44781   0.54411   0.73429   0.00000  Uiso   1.00
H122   H     0.51730   0.93032   0.59334   0.00000  Uiso   1.00
H123   H     0.64793   0.84453   0.83866   0.00000  Uiso   1.00
H124   H     0.76349   0.88115   0.82441   0.00000  Uiso   1.00
H125   H     0.57566   0.73778   0.88790   0.00000  Uiso   1.00
H126   H     0.60861   0.92093   0.82106   0.00000  Uiso   1.00
H127   H     0.88531   0.91180   0.78122   0.00000  Uiso   1.00
H128   H     0.48924   0.60951   0.91509   0.00000  Uiso   1.00
H129   H     0.55874   0.99572   0.77414   0.00000  Uiso   1.00
O130   O     0.93973   0.90178   0.67764   0.00000  Uiso   1.00
O131   O     0.42010   0.50520   0.85328   0.00000  Uiso   1.00
O132   O     0.51128   0.01190   0.66835   0.00000  Uiso   1.00
N133   N     0.83777   0.85677   0.64492   0.00000  Uiso   1.00
N134   N     0.46748   0.57415   0.77009   0.00000  Uiso   1.00
N135   N     0.53244   0.93522   0.63831   0.00000  Uiso   1.00
N136   N     0.86007   0.89197   0.74221   0.00000  Uiso   1.00
N137   N     0.48978   0.60934   0.86737   0.00000  Uiso   1.00
N138   N     0.55473   0.97041   0.73560   0.00000  Uiso   1.00
C139   C     0.78565   0.17502   0.84253   0.00000  Uiso   1.00
C140   C     0.81386   0.13518   0.85778   0.00000  Uiso   1.00
C141   C     0.81797   0.09449   0.81640   0.00000  Uiso   1.00
C142   C     0.84538   0.06229   0.83940   0.00000  Uiso   1.00
C143   C     0.88574   0.99916   0.85363   0.00000  Uiso   1.00
C144   C     0.73596   0.15933   0.89227   0.00000  Uiso   1.00
C145   C     0.67458   0.13896   0.87990   0.00000  Uiso   1.00
C146   C     0.63642   0.12710   0.93194   0.00000  Uiso   1.00
C147   C     0.55585   0.10150   0.99972   0.00000  Uiso   1.00
C148   C     0.83548   0.24093   0.85595   0.00000  Uiso   1.00
C149   C     0.85776   0.28918   0.81305   0.00000  Uiso   1.00
C150   C     0.90338   0.34603   0.83452   0.00000  Uiso   1.00
C151   C     0.97732   0.44713   0.84590   0.00000  Uiso   1.00
C152   C     0.82703   0.19019   0.95694   0.00000  Uiso   1.00
C153   C     0.83633   0.14342   0.91992   0.00000  Uiso   1.00
C154   C     0.86376   0.11127   0.94298   0.00000  Uiso   1.00
C155   C     0.86791   0.07055   0.90165   0.00000  Uiso   1.00
C156   C     0.75844   0.16757   0.95441   0.00000  Uiso   1.00
C157   C     0.72036   0.15574   0.00648   0.00000  Uiso   1.00
C158   C     0.65894   0.13535   0.99420   0.00000  Uiso   1.00
C159   C     0.85796   0.24917   0.91809   0.00000  Uiso   1.00
C160   C     0.90355   0.30596   0.93963   0.00000  Uiso   1.00
C161   C     0.92590   0.35428   0.89677   0.00000  Uiso   1.00
H162   H     0.76814   0.16861   0.79416   0.00000  Uiso   1.00
H163   H     0.80056   0.08813   0.76832   0.00000  Uiso   1.00
H164   H     0.65720   0.13260   0.83181   0.00000  Uiso   1.00
H165   H     0.84035   0.28279   0.76497   0.00000  Uiso   1.00
H166   H     0.84639   0.00252   0.76709   0.00000  Uiso   1.00
H167   H     0.54411   0.09630   0.90096   0.00000  Uiso   1.00
H168   H     0.93032   0.41302   0.76001   0.00000  Uiso   1.00
H169   H     0.84453   0.19660   0.00532   0.00000  Uiso   1.00
H170   H     0.88115   0.11766   0.99107   0.00000  Uiso   1.00
H171   H     0.73778   0.16212   0.05456   0.00000  Uiso   1.00
H172   H     0.92093   0.31232   0.98772   0.00000  Uiso   1.00
H173   H     0.91180   0.02648   0.94788   0.00000  Uiso   1.00
H174   H     0.60951   0.12027   0.08176   0.00000  Uiso   1.00
H175   H     0.99572   0.43698   0.94081   0.00000  Uiso   1.00
O176   O     0.90178   0.96205   0.84431   0.00000  Uiso   1.00
O177   O     0.50520   0.08510   0.01994   0.00000  Uiso   1.00
O178   O     0.01190   0.50062   0.83502   0.00000  Uiso   1.00
N179   N     0.85677   0.01900   0.81159   0.00000  Uiso   1.00
N180   N     0.57415   0.10667   0.93675   0.00000  Uiso   1.00
N181   N     0.93522   0.40278   0.80498   0.00000  Uiso   1.00
N182   N     0.89197   0.03190   0.90887   0.00000  Uiso   1.00
N183   N     0.60934   0.11957   0.03404   0.00000  Uiso   1.00
N184   N     0.97041   0.41568   0.90227   0.00000  Uiso   1.00
C185   C     0.82498   0.61063   0.50920   0.00000  Uiso   1.00
C186   C     0.86482   0.67868   0.52444   0.00000  Uiso   1.00
C187   C     0.90551   0.72347   0.48307   0.00000  Uiso   1.00
C188   C     0.93771   0.78309   0.50607   0.00000  Uiso   1.00
C189   C     0.00084   0.88658   0.52029   0.00000  Uiso   1.00
C190   C     0.84067   0.57663   0.55894   0.00000  Uiso   1.00
C191   C     0.86104   0.53562   0.54657   0.00000  Uiso   1.00
C192   C     0.87290   0.50932   0.59861   0.00000  Uiso   1.00
C193   C     0.89850   0.45435   0.66639   0.00000  Uiso   1.00
C194   C     0.75907   0.59454   0.52262   0.00000  Uiso   1.00
C195   C     0.71082   0.56857   0.47972   0.00000  Uiso   1.00
C196   C     0.65397   0.55735   0.50118   0.00000  Uiso   1.00
C197   C     0.55287   0.53019   0.51257   0.00000  Uiso   1.00
C198   C     0.80981   0.63685   0.62361   0.00000  Uiso   1.00
C199   C     0.85658   0.69292   0.58659   0.00000  Uiso   1.00
C200   C     0.88873   0.75248   0.60965   0.00000  Uiso   1.00
C201   C     0.92945   0.79736   0.56832   0.00000  Uiso   1.00
C202   C     0.83243   0.59087   0.62108   0.00000  Uiso   1.00
C203   C     0.84426   0.56463   0.67315   0.00000  Uiso   1.00
C204   C     0.86465   0.52359   0.66086   0.00000  Uiso   1.00
C205   C     0.75083   0.60878   0.58476   0.00000  Uiso   1.00
C206   C     0.69404   0.59759   0.60630   0.00000  Uiso   1.00
C207   C     0.64572   0.57161   0.56344   0.00000  Uiso   1.00
H208   H     0.83139   0.59954   0.46082   0.00000  Uiso   1.00
H209   H     0.91187   0.71243   0.43499   0.00000  Uiso   1.00
H210   H     0.86740   0.52460   0.49848   0.00000  Uiso   1.00
H211   H     0.71721   0.55756   0.43163   0.00000  Uiso   1.00
H212   H     0.99748   0.84388   0.43375   0.00000  Uiso   1.00
H213   H     0.90370   0.44781   0.56763   0.00000  Uiso   1.00
H214   H     0.58698   0.51730   0.42668   0.00000  Uiso   1.00
H215   H     0.80340   0.64793   0.67199   0.00000  Uiso   1.00
H216   H     0.88234   0.76349   0.65774   0.00000  Uiso   1.00
H217   H     0.83788   0.57566   0.72123   0.00000  Uiso   1.00
H218   H     0.68768   0.60861   0.65439   0.00000  Uiso   1.00
H219   H     0.97352   0.88531   0.61455   0.00000  Uiso   1.00
H220   H     0.87973   0.48924   0.74842   0.00000  Uiso   1.00
H221   H     0.56302   0.55874   0.60747   0.00000  Uiso   1.00
O222   O     0.03795   0.93973   0.51098   0.00000  Uiso   1.00
O223   O     0.91490   0.42010   0.68661   0.00000  Uiso   1.00
O224   O     0.49938   0.51128   0.50169   0.00000  Uiso   1.00
N225   N     0.98100   0.83777   0.47826   0.00000  Uiso   1.00
N226   N     0.89333   0.46748   0.60342   0.00000  Uiso   1.00
N227   N     0.59722   0.53244   0.47165   0.00000  Uiso   1.00
N228   N     0.96810   0.86007   0.57554   0.00000  Uiso   1.00
N229   N     0.88043   0.48978   0.70070   0.00000  Uiso   1.00
N230   N     0.58432   0.55473   0.56893   0.00000  Uiso   1.00
C231   C     0.38937   0.21435   0.17587   0.00000  Uiso   1.00
C232   C     0.32132   0.18614   0.19111   0.00000  Uiso   1.00
C233   C     0.27653   0.18203   0.14974   0.00000  Uiso   1.00
C234   C     0.21691   0.15462   0.17273   0.00000  Uiso   1.00
C235   C     0.11342   0.11426   0.18696   0.00000  Uiso   1.00
C236   C     0.42337   0.26404   0.22561   0.00000  Uiso   1.00
C237   C     0.46438   0.32542   0.21324   0.00000  Uiso   1.00
C238   C     0.49068   0.36358   0.26528   0.00000  Uiso   1.00
C239   C     0.54565   0.44415   0.33306   0.00000  Uiso   1.00
C240   C     0.40546   0.16452   0.18929   0.00000  Uiso   1.00
C241   C     0.43143   0.14224   0.14639   0.00000  Uiso   1.00
C242   C     0.44265   0.09662   0.16785   0.00000  Uiso   1.00
C243   C     0.46981   0.02268   0.17924   0.00000  Uiso   1.00
C244   C     0.36315   0.17297   0.29027   0.00000  Uiso   1.00
C245   C     0.30708   0.16367   0.25325   0.00000  Uiso   1.00
C246   C     0.24752   0.13624   0.27632   0.00000  Uiso   1.00
C247   C     0.20264   0.13209   0.23499   0.00000  Uiso   1.00
C248   C     0.40913   0.24156   0.28775   0.00000  Uiso   1.00
C249   C     0.43537   0.27964   0.33982   0.00000  Uiso   1.00
C250   C     0.47641   0.34106   0.32753   0.00000  Uiso   1.00
C251   C     0.39122   0.14204   0.25143   0.00000  Uiso   1.00
C252   C     0.40241   0.09645   0.27296   0.00000  Uiso   1.00
C253   C     0.42839   0.07410   0.23010   0.00000  Uiso   1.00
H254   H     0.40046   0.23186   0.12749   0.00000  Uiso   1.00
H255   H     0.28757   0.19944   0.10165   0.00000  Uiso   1.00
H256   H     0.47540   0.34280   0.16514   0.00000  Uiso   1.00
H257   H     0.44244   0.15965   0.09830   0.00000  Uiso   1.00
H258   H     0.15612   0.15361   0.10042   0.00000  Uiso   1.00
H259   H     0.55219   0.45589   0.23429   0.00000  Uiso   1.00
H260   H     0.48270   0.06968   0.09334   0.00000  Uiso   1.00
H261   H     0.35207   0.15547   0.33866   0.00000  Uiso   1.00
H262   H     0.23651   0.11885   0.32441   0.00000  Uiso   1.00
H263   H     0.42434   0.26222   0.38790   0.00000  Uiso   1.00
H264   H     0.39139   0.07907   0.32106   0.00000  Uiso   1.00
H265   H     0.11469   0.08820   0.28122   0.00000  Uiso   1.00
H266   H     0.51076   0.39049   0.41509   0.00000  Uiso   1.00
H267   H     0.44126   0.00428   0.27414   0.00000  Uiso   1.00
O268   O     0.06027   0.09822   0.17764   0.00000  Uiso   1.00
O269   O     0.57990   0.49480   0.35328   0.00000  Uiso   1.00
O270   O     0.48872   0.98810   0.16835   0.00000  Uiso   1.00
N271   N     0.16223   0.14323   0.14492   0.00000  Uiso   1.00
N272   N     0.53252   0.42585   0.27009   0.00000  Uiso   1.00
N273   N     0.46756   0.06478   0.13831   0.00000  Uiso   1.00
N274   N     0.13993   0.10803   0.24221   0.00000  Uiso   1.00
N275   N     0.51022   0.39066   0.36737   0.00000  Uiso   1.00
N276   N     0.44527   0.02959   0.23560   0.00000  Uiso   1.00
C277   C     0.82498   0.21435   0.32413   0.00000  Uiso   1.00
C278   C     0.86482   0.18614   0.30889   0.00000  Uiso   1.00
C279   C     0.90551   0.18203   0.35026   0.00000  Uiso   1.00
C280   C     0.93771   0.15462   0.32727   0.00000  Uiso   1.00
C281   C     0.00084   0.11426   0.31304   0.00000  Uiso   1.00
C282   C     0.84067   0.26404   0.27439   0.00000  Uiso   1.00
C283   C     0.86104   0.32542   0.28676   0.00000  Uiso   1.00
C284   C     0.87290   0.36358   0.23472   0.00000  Uiso   1.00
C285   C     0.89850   0.44415   0.16694   0.00000  Uiso   1.00
C286   C     0.75907   0.16452   0.31071   0.00000  Uiso   1.00
C287   C     0.71082   0.14224   0.35361   0.00000  Uiso   1.00
C288   C     0.65397   0.09662   0.33215   0.00000  Uiso   1.00
C289   C     0.55287   0.02268   0.32076   0.00000  Uiso   1.00
C290   C     0.80981   0.17297   0.20973   0.00000  Uiso   1.00
C291   C     0.85658   0.16367   0.24675   0.00000  Uiso   1.00
C292   C     0.88873   0.13624   0.22368   0.00000  Uiso   1.00
C293   C     0.92945   0.13209   0.26501   0.00000  Uiso   1.00
C294   C     0.83243   0.24156   0.21225   0.00000  Uiso   1.00
C295   C     0.84426   0.27964   0.16018   0.00000  Uiso   1.00
C296   C     0.86465   0.34106   0.17247   0.00000  Uiso   1.00
C297   C     0.75083   0.14204   0.24857   0.00000  Uiso   1.00
C298   C     0.69404   0.09645   0.22704   0.00000  Uiso   1.00
C299   C     0.64572   0.07410   0.26990   0.00000  Uiso   1.00
H300   H     0.83139   0.23186   0.37251   0.00000  Uiso   1.00
H301   H     0.91187   0.19944   0.39835   0.00000  Uiso   1.00
H302   H     0.86740   0.34280   0.33486   0.00000  Uiso   1.00
H303   H     0.71721   0.15965   0.40170   0.00000  Uiso   1.00
H304   H     0.99748   0.15361   0.39958   0.00000  Uiso   1.00
H305   H     0.90370   0.45589   0.26571   0.00000  Uiso   1.00
H306   H     0.58698   0.06968   0.40666   0.00000  Uiso   1.00
H307   H     0.80340   0.15547   0.16134   0.00000  Uiso   1.00
H308   H     0.88234   0.11885   0.17559   0.00000  Uiso   1.00
H309   H     0.83788   0.26222   0.11210   0.00000  Uiso   1.00
H310   H     0.68768   0.07907   0.17894   0.00000  Uiso   1.00
H311   H     0.97352   0.08820   0.21878   0.00000  Uiso   1.00
H312   H     0.87973   0.39049   0.08491   0.00000  Uiso   1.00
H313   H     0.56302   0.00428   0.22586   0.00000  Uiso   1.00
O314   O     0.03795   0.09822   0.32236   0.00000  Uiso   1.00
O315   O     0.91490   0.49480   0.14672   0.00000  Uiso   1.00
O316   O     0.49938   0.98810   0.33165   0.00000  Uiso   1.00
N317   N     0.98100   0.14323   0.35508   0.00000  Uiso   1.00
N318   N     0.89333   0.42585   0.22991   0.00000  Uiso   1.00
N319   N     0.59722   0.06478   0.36169   0.00000  Uiso   1.00
N320   N     0.96810   0.10803   0.25779   0.00000  Uiso   1.00
N321   N     0.88043   0.39066   0.13263   0.00000  Uiso   1.00
N322   N     0.58432   0.02959   0.26440   0.00000  Uiso   1.00
C323   C     0.38937   0.17502   0.65747   0.00000  Uiso   1.00
C324   C     0.32132   0.13518   0.64222   0.00000  Uiso   1.00
C325   C     0.27653   0.09449   0.68360   0.00000  Uiso   1.00
C326   C     0.21691   0.06229   0.66060   0.00000  Uiso   1.00
C327   C     0.11342   0.99916   0.64637   0.00000  Uiso   1.00
C328   C     0.42337   0.15933   0.60773   0.00000  Uiso   1.00
C329   C     0.46438   0.13896   0.62010   0.00000  Uiso   1.00
C330   C     0.49068   0.12710   0.56806   0.00000  Uiso   1.00
C331   C     0.54565   0.10150   0.50028   0.00000  Uiso   1.00
C332   C     0.40546   0.24093   0.64405   0.00000  Uiso   1.00
C333   C     0.43143   0.28918   0.68695   0.00000  Uiso   1.00
C334   C     0.44265   0.34603   0.66548   0.00000  Uiso   1.00
C335   C     0.46981   0.44713   0.65410   0.00000  Uiso   1.00
C336   C     0.36315   0.19019   0.54306   0.00000  Uiso   1.00
C337   C     0.30708   0.14342   0.58008   0.00000  Uiso   1.00
C338   C     0.24752   0.11127   0.55702   0.00000  Uiso   1.00
C339   C     0.20264   0.07055   0.59835   0.00000  Uiso   1.00
C340   C     0.40913   0.16757   0.54559   0.00000  Uiso   1.00
C341   C     0.43537   0.15574   0.49352   0.00000  Uiso   1.00
C342   C     0.47641   0.13535   0.50580   0.00000  Uiso   1.00
C343   C     0.39122   0.24917   0.58191   0.00000  Uiso   1.00
C344   C     0.40241   0.30596   0.56037   0.00000  Uiso   1.00
C345   C     0.42839   0.35428   0.60323   0.00000  Uiso   1.00
H346   H     0.40046   0.16861   0.70584   0.00000  Uiso   1.00
H347   H     0.28757   0.08813   0.73168   0.00000  Uiso   1.00
H348   H     0.47540   0.13260   0.66819   0.00000  Uiso   1.00
H349   H     0.44244   0.28279   0.73503   0.00000  Uiso   1.00
H350   H     0.15612   0.00252   0.73291   0.00000  Uiso   1.00
H351   H     0.55219   0.09630   0.59904   0.00000  Uiso   1.00
H352   H     0.48270   0.41302   0.73999   0.00000  Uiso   1.00
H353   H     0.35207   0.19660   0.49468   0.00000  Uiso   1.00
H354   H     0.23651   0.11766   0.50893   0.00000  Uiso   1.00
H355   H     0.42434   0.16212   0.44544   0.00000  Uiso   1.00
H356   H     0.39139   0.31232   0.51228   0.00000  Uiso   1.00
H357   H     0.11469   0.02648   0.55212   0.00000  Uiso   1.00
H358   H     0.51076   0.12027   0.41824   0.00000  Uiso   1.00
H359   H     0.44126   0.43698   0.55919   0.00000  Uiso   1.00
O360   O     0.06027   0.96205   0.65569   0.00000  Uiso   1.00
O361   O     0.57990   0.08510   0.48006   0.00000  Uiso   1.00
O362   O     0.48872   0.50062   0.66498   0.00000  Uiso   1.00
N363   N     0.16223   0.01900   0.68841   0.00000  Uiso   1.00
N364   N     0.53252   0.10667   0.56325   0.00000  Uiso   1.00
N365   N     0.46756   0.40278   0.69502   0.00000  Uiso   1.00
N366   N     0.13993   0.03190   0.59113   0.00000  Uiso   1.00
N367   N     0.51022   0.11957   0.46596   0.00000  Uiso   1.00
N368   N     0.44527   0.41568   0.59773   0.00000  Uiso   1.00
C369   C     0.78565   0.61063   0.99080   0.00000  Uiso   1.00
C370   C     0.81386   0.67868   0.97556   0.00000  Uiso   1.00
C371   C     0.81797   0.72347   0.01693   0.00000  Uiso   1.00
C372   C     0.84538   0.78309   0.99393   0.00000  Uiso   1.00
C373   C     0.88574   0.88658   0.97971   0.00000  Uiso   1.00
C374   C     0.73596   0.57663   0.94106   0.00000  Uiso   1.00
C375   C     0.67458   0.53562   0.95343   0.00000  Uiso   1.00
C376   C     0.63642   0.50932   0.90139   0.00000  Uiso   1.00
C377   C     0.55585   0.45435   0.83361   0.00000  Uiso   1.00
C378   C     0.83548   0.59454   0.97738   0.00000  Uiso   1.00
C379   C     0.85776   0.56857   0.02028   0.00000  Uiso   1.00
C380   C     0.90338   0.55735   0.99882   0.00000  Uiso   1.00
C381   C     0.97732   0.53019   0.98743   0.00000  Uiso   1.00
C382   C     0.82703   0.63685   0.87639   0.00000  Uiso   1.00
C383   C     0.83633   0.69292   0.91341   0.00000  Uiso   1.00
C384   C     0.86376   0.75248   0.89035   0.00000  Uiso   1.00
C385   C     0.86791   0.79736   0.93168   0.00000  Uiso   1.00
C386   C     0.75844   0.59087   0.87892   0.00000  Uiso   1.00
C387   C     0.72036   0.56463   0.82685   0.00000  Uiso   1.00
C388   C     0.65894   0.52359   0.83914   0.00000  Uiso   1.00
C389   C     0.85796   0.60878   0.91524   0.00000  Uiso   1.00
C390   C     0.90355   0.59759   0.89370   0.00000  Uiso   1.00
C391   C     0.92590   0.57161   0.93656   0.00000  Uiso   1.00
H392   H     0.76814   0.59954   0.03918   0.00000  Uiso   1.00
H393   H     0.80056   0.71243   0.06501   0.00000  Uiso   1.00
H394   H     0.65720   0.52460   0.00152   0.00000  Uiso   1.00
H395   H     0.84035   0.55756   0.06837   0.00000  Uiso   1.00
H396   H     0.84639   0.84388   0.06625   0.00000  Uiso   1.00
H397   H     0.54411   0.44781   0.93237   0.00000  Uiso   1.00
H398   H     0.93032   0.51730   0.07332   0.00000  Uiso   1.00
H399   H     0.84453   0.64793   0.82801   0.00000  Uiso   1.00
H400   H     0.88115   0.76349   0.84226   0.00000  Uiso   1.00
H401   H     0.73778   0.57566   0.77877   0.00000  Uiso   1.00
H402   H     0.92093   0.60861   0.84561   0.00000  Uiso   1.00
H403   H     0.91180   0.88531   0.88545   0.00000  Uiso   1.00
H404   H     0.60951   0.48924   0.75158   0.00000  Uiso   1.00
H405   H     0.99572   0.55874   0.89253   0.00000  Uiso   1.00
O406   O     0.90178   0.93973   0.98902   0.00000  Uiso   1.00
O407   O     0.50520   0.42010   0.81339   0.00000  Uiso   1.00
O408   O     0.01190   0.51128   0.99831   0.00000  Uiso   1.00
N409   N     0.85677   0.83777   0.02174   0.00000  Uiso   1.00
N410   N     0.57415   0.46748   0.89658   0.00000  Uiso   1.00
N411   N     0.93522   0.53244   0.02835   0.00000  Uiso   1.00
N412   N     0.89197   0.86007   0.92446   0.00000  Uiso   1.00
N413   N     0.60934   0.48978   0.79930   0.00000  Uiso   1.00
N414   N     0.97041   0.55473   0.93107   0.00000  Uiso   1.00
C415   C     0.17502   0.78565   0.82413   0.00000  Uiso   1.00
C416   C     0.13518   0.81386   0.80889   0.00000  Uiso   1.00
C417   C     0.09449   0.81797   0.85026   0.00000  Uiso   1.00
C418   C     0.06229   0.84538   0.82727   0.00000  Uiso   1.00
C419   C     0.99916   0.88574   0.81304   0.00000  Uiso   1.00
C420   C     0.15933   0.73596   0.77439   0.00000  Uiso   1.00
C421   C     0.13896   0.67458   0.78676   0.00000  Uiso   1.00
C422   C     0.12710   0.63642   0.73472   0.00000  Uiso   1.00
C423   C     0.10150   0.55585   0.66694   0.00000  Uiso   1.00
C424   C     0.24093   0.83548   0.81071   0.00000  Uiso   1.00
C425   C     0.28918   0.85776   0.85361   0.00000  Uiso   1.00
C426   C     0.34603   0.90338   0.83215   0.00000  Uiso   1.00
C427   C     0.44713   0.97732   0.82076   0.00000  Uiso   1.00
C428   C     0.19019   0.82703   0.70973   0.00000  Uiso   1.00
C429   C     0.14342   0.83633   0.74675   0.00000  Uiso   1.00
C430   C     0.11127   0.86376   0.72368   0.00000  Uiso   1.00
C431   C     0.07055   0.86791   0.76501   0.00000  Uiso   1.00
C432   C     0.16757   0.75844   0.71225   0.00000  Uiso   1.00
C433   C     0.15574   0.72036   0.66018   0.00000  Uiso   1.00
C434   C     0.13535   0.65894   0.67247   0.00000  Uiso   1.00
C435   C     0.24917   0.85796   0.74857   0.00000  Uiso   1.00
C436   C     0.30596   0.90355   0.72704   0.00000  Uiso   1.00
C437   C     0.35428   0.92590   0.76990   0.00000  Uiso   1.00
H438   H     0.16861   0.76814   0.87251   0.00000  Uiso   1.00
H439   H     0.08813   0.80056   0.89835   0.00000  Uiso   1.00
H440   H     0.13260   0.65720   0.83486   0.00000  Uiso   1.00
H441   H     0.28279   0.84035   0.90170   0.00000  Uiso   1.00
H442   H     0.00252   0.84639   0.89958   0.00000  Uiso   1.00
H443   H     0.09630   0.54411   0.76571   0.00000  Uiso   1.00
H444   H     0.41302   0.93032   0.90666   0.00000  Uiso   1.00
H445   H     0.19660   0.84453   0.66134   0.00000  Uiso   1.00
H446   H     0.11766   0.88115   0.67559   0.00000  Uiso   1.00
H447   H     0.16212   0.73778   0.61210   0.00000  Uiso   1.00
H448   H     0.31232   0.92093   0.67894   0.00000  Uiso   1.00
H449   H     0.02648   0.91180   0.71878   0.00000  Uiso   1.00
H450   H     0.12027   0.60951   0.58491   0.00000  Uiso   1.00
H451   H     0.43698   0.99572   0.72586   0.00000  Uiso   1.00
O452   O     0.96205   0.90178   0.82236   0.00000  Uiso   1.00
O453   O     0.08510   0.50520   0.64672   0.00000  Uiso   1.00
O454   O     0.50062   0.01190   0.83165   0.00000  Uiso   1.00
N455   N     0.01900   0.85677   0.85508   0.00000  Uiso   1.00
N456   N     0.10667   0.57415   0.72991   0.00000  Uiso   1.00
N457   N     0.40278   0.93522   0.86169   0.00000  Uiso   1.00
N458   N     0.03190   0.89197   0.75779   0.00000  Uiso   1.00
N459   N     0.11957   0.60934   0.63263   0.00000  Uiso   1.00
N460   N     0.41568   0.97041   0.76440   0.00000  Uiso   1.00
C461   C     0.61063   0.82498   0.15747   0.00000  Uiso   1.00
C462   C     0.67868   0.86482   0.14222   0.00000  Uiso   1.00
C463   C     0.72347   0.90551   0.18360   0.00000  Uiso   1.00
C464   C     0.78309   0.93771   0.16060   0.00000  Uiso   1.00
C465   C     0.88658   0.00084   0.14637   0.00000  Uiso   1.00
C466   C     0.57663   0.84067   0.10773   0.00000  Uiso   1.00
C467   C     0.53562   0.86104   0.12010   0.00000  Uiso   1.00
C468   C     0.50932   0.87290   0.06806   0.00000  Uiso   1.00
C469   C     0.45435   0.89850   0.00028   0.00000  Uiso   1.00
C470   C     0.59454   0.75907   0.14405   0.00000  Uiso   1.00
C471   C     0.56857   0.71082   0.18695   0.00000  Uiso   1.00
C472   C     0.55735   0.65397   0.16548   0.00000  Uiso   1.00
C473   C     0.53019   0.55287   0.15410   0.00000  Uiso   1.00
C474   C     0.63685   0.80981   0.04306   0.00000  Uiso   1.00
C475   C     0.69292   0.85658   0.08008   0.00000  Uiso   1.00
C476   C     0.75248   0.88873   0.05702   0.00000  Uiso   1.00
C477   C     0.79736   0.92945   0.09835   0.00000  Uiso   1.00
C478   C     0.59087   0.83243   0.04559   0.00000  Uiso   1.00
C479   C     0.56463   0.84426   0.99352   0.00000  Uiso   1.00
C480   C     0.52359   0.86465   0.00580   0.00000  Uiso   1.00
C481   C     0.60878   0.75083   0.08191   0.00000  Uiso   1.00
C482   C     0.59759   0.69404   0.06037   0.00000  Uiso   1.00
C483   C     0.57161   0.64572   0.10323   0.00000  Uiso   1.00
H484   H     0.59954   0.83139   0.20584   0.00000  Uiso   1.00
H485   H     0.71243   0.91187   0.23168   0.00000  Uiso   1.00
H486   H     0.52460   0.86740   0.16819   0.00000  Uiso   1.00
H487   H     0.55756   0.71721   0.23503   0.00000  Uiso   1.00
H488   H     0.84388   0.99748   0.23291   0.00000  Uiso   1.00
H489   H     0.44781   0.90370   0.09904   0.00000  Uiso   1.00
H490   H     0.51730   0.58698   0.23999   0.00000  Uiso   1.00
H491   H     0.64793   0.80340   0.99468   0.00000  Uiso   1.00
H492   H     0.76349   0.88234   0.00893   0.00000  Uiso   1.00
H493   H     0.57566   0.83788   0.94544   0.00000  Uiso   1.00
H494   H     0.60861   0.68768   0.01228   0.00000  Uiso   1.00
H495   H     0.88531   0.97352   0.05212   0.00000  Uiso   1.00
H496   H     0.48924   0.87973   0.91824   0.00000  Uiso   1.00
H497   H     0.55874   0.56302   0.05919   0.00000  Uiso   1.00
O498   O     0.93973   0.03795   0.15569   0.00000  Uiso   1.00
O499   O     0.42010   0.91490   0.98006   0.00000  Uiso   1.00
O500   O     0.51128   0.49938   0.16498   0.00000  Uiso   1.00
N501   N     0.83777   0.98100   0.18841   0.00000  Uiso   1.00
N502   N     0.46748   0.89333   0.06325   0.00000  Uiso   1.00
N503   N     0.53244   0.59722   0.19502   0.00000  Uiso   1.00
N504   N     0.86007   0.96810   0.09113   0.00000  Uiso   1.00
N505   N     0.48978   0.88043   0.96596   0.00000  Uiso   1.00
N506   N     0.55473   0.58432   0.09773   0.00000  Uiso   1.00
C507   C     0.21435   0.38937   0.49080   0.00000  Uiso   1.00
C508   C     0.18614   0.32132   0.47556   0.00000  Uiso   1.00
C509   C     0.18203   0.27653   0.51693   0.00000  Uiso   1.00
C510   C     0.15462   0.21691   0.49393   0.00000  Uiso   1.00
C511   C     0.11426   0.11342   0.47971   0.00000  Uiso   1.00
C512   C     0.26404   0.42337   0.44106   0.00000  Uiso   1.00
C513   C     0.32542   0.46438   0.45343   0.00000  Uiso   1.00
C514   C     0.36358   0.49068   0.40139   0.00000  Uiso   1.00
C515   C     0.44415   0.54565   0.33361   0.00000  Uiso   1.00
C516   C     0.16452   0.40546   0.47738   0.00000  Uiso   1.00
C517   C     0.14224   0.43143   0.52028   0.00000  Uiso   1.00
C518   C     0.09662   0.44265   0.49882   0.00000  Uiso   1.00
C519   C     0.02268   0.46981   0.48743   0.00000  Uiso   1.00
C520   C     0.17297   0.36315   0.37639   0.00000  Uiso   1.00
C521   C     0.16367   0.30708   0.41341   0.00000  Uiso   1.00
C522   C     0.13624   0.24752   0.39035   0.00000  Uiso   1.00
C523   C     0.13209   0.20264   0.43168   0.00000  Uiso   1.00
C524   C     0.24156   0.40913   0.37892   0.00000  Uiso   1.00
C525   C     0.27964   0.43537   0.32685   0.00000  Uiso   1.00
C526   C     0.34106   0.47641   0.33914   0.00000  Uiso   1.00
C527   C     0.14204   0.39122   0.41524   0.00000  Uiso   1.00
C528   C     0.09645   0.40241   0.39370   0.00000  Uiso   1.00
C529   C     0.07410   0.42839   0.43656   0.00000  Uiso   1.00
H530   H     0.23186   0.40046   0.53918   0.00000  Uiso   1.00
H531   H     0.19944   0.28757   0.56501   0.00000  Uiso   1.00
H532   H     0.34280   0.47540   0.50152   0.00000  Uiso   1.00
H533   H     0.15965   0.44244   0.56837   0.00000  Uiso   1.00
H534   H     0.15361   0.15612   0.56625   0.00000  Uiso   1.00
H535   H     0.45589   0.55219   0.43237   0.00000  Uiso   1.00
H536   H     0.06968   0.48270   0.57332   0.00000  Uiso   1.00
H537   H     0.15547   0.35207   0.32801   0.00000  Uiso   1.00
H538   H     0.11885   0.23651   0.34226   0.00000  Uiso   1.00
H539   H     0.26222   0.42434   0.27877   0.00000  Uiso   1.00
H540   H     0.07907   0.39139   0.34561   0.00000  Uiso   1.00
H541   H     0.08820   0.11469   0.38545   0.00000  Uiso   1.00
H542   H     0.39049   0.51076   0.25158   0.00000  Uiso   1.00
H543   H     0.00428   0.44126   0.39253   0.00000  Uiso   1.00
O544   O     0.09822   0.06027   0.48902   0.00000  Uiso   1.00
O545   O     0.49480   0.57990   0.31339   0.00000  Uiso   1.00
O546   O     0.98810   0.48872   0.49831   0.00000  Uiso   1.00
N547   N     0.14323   0.16223   0.52174   0.00000  Uiso   1.00
N548   N     0.42585   0.53252   0.39658   0.00000  Uiso   1.00
N549   N     0.06478   0.46756   0.52835   0.00000  Uiso   1.00
N550   N     0.10803   0.13993   0.42446   0.00000  Uiso   1.00
N551   N     0.39066   0.51022   0.29930   0.00000  Uiso   1.00
N552   N     0.02959   0.44527   0.43107   0.00000  Uiso   1.00
