data_job_01432
_audit_creation_date              2018-12-19
_audit_creation_method            'Materials Studio'
_symmetry_space_group_name_H-M    'P1'
_symmetry_Int_Tables_number       1
_symmetry_cell_setting            triclinic
loop_
_symmetry_equiv_pos_as_xyz
  x,y,z
_cell_length_a                    31.1018
_cell_length_b                    19.0132
_cell_length_c                    9.8451
_cell_angle_alpha                 90.0000
_cell_angle_beta                  90.0000
_cell_angle_gamma                 90.0000
loop_
_atom_site_label
_atom_site_type_symbol
_atom_site_fract_x
_atom_site_fract_y
_atom_site_fract_z
_atom_site_U_iso_or_equiv
_atom_site_adp_type
_atom_site_occupancy
C1     C     0.12296   0.75007   0.79700   0.00000  Uiso   1.00
C2     C     0.10329   0.70230   0.90478   0.00000  Uiso   1.00
C3     C     0.10730   0.71067   0.04423   0.00000  Uiso   1.00
C4     C     0.08689   0.66135   0.12582   0.00000  Uiso   1.00
C5     C     0.05995   0.59561   0.30170   0.00000  Uiso   1.00
C6     C     0.15023   0.70258   0.70666   0.00000  Uiso   1.00
C7     C     0.19370   0.71121   0.67954   0.00000  Uiso   1.00
C8     C     0.21280   0.66212   0.59433   0.00000  Uiso   1.00
C9     C     0.25872   0.59685   0.46255   0.00000  Uiso   1.00
C10    C     0.08565   0.77510   0.70889   0.00000  Uiso   1.00
C11    C     0.07483   0.84469   0.68360   0.00000  Uiso   1.00
C12    C     0.03957   0.85665   0.60025   0.00000  Uiso   1.00
C13    C     0.98523   0.90398   0.47193   0.00000  Uiso   1.00
C14    C     0.07959   0.64758   0.69390   0.00000  Uiso   1.00
C15    C     0.07974   0.64662   0.84877   0.00000  Uiso   1.00
C16    C     0.05932   0.59727   0.93017   0.00000  Uiso   1.00
C17    C     0.06329   0.60557   0.06972   0.00000  Uiso   1.00
C18    C     0.12667   0.64691   0.65066   0.00000  Uiso   1.00
C19    C     0.14572   0.59780   0.56547   0.00000  Uiso   1.00
C20    C     0.18920   0.60634   0.53823   0.00000  Uiso   1.00
C21    C     0.06209   0.71942   0.65289   0.00000  Uiso   1.00
C22    C     0.02685   0.73128   0.56955   0.00000  Uiso   1.00
C23    C     0.01597   0.80088   0.54414   0.00000  Uiso   1.00
H24    H     0.14130   0.79342   0.84059   0.00000  Uiso   1.00
H25    H     0.12553   0.75376   0.08753   0.00000  Uiso   1.00
H26    H     0.21192   0.75430   0.72288   0.00000  Uiso   1.00
H27    H     0.09307   0.88776   0.72696   0.00000  Uiso   1.00
H28    H     0.09768   0.68523   0.33662   0.00000  Uiso   1.00
H29    H     0.27982   0.68637   0.56769   0.00000  Uiso   1.00
H30    H     0.02920   0.96780   0.57628   0.00000  Uiso   1.00
H31    H     0.06125   0.60423   0.65029   0.00000  Uiso   1.00
H32    H     0.04109   0.55419   0.88680   0.00000  Uiso   1.00
H33    H     0.12748   0.55473   0.52215   0.00000  Uiso   1.00
H34    H     0.00863   0.68819   0.52623   0.00000  Uiso   1.00
H35    H     0.02914   0.52325   0.17370   0.00000  Uiso   1.00
H36    H     0.21128   0.52439   0.40476   0.00000  Uiso   1.00
H37    H     0.96066   0.80582   0.41336   0.00000  Uiso   1.00
O38    O     0.05160   0.57473   0.41417   0.00000  Uiso   1.00
O39    O     0.29056   0.57623   0.40535   0.00000  Uiso   1.00
O40    O     0.96176   0.94546   0.41664   0.00000  Uiso   1.00
N41    N     0.08430   0.65399   0.26582   0.00000  Uiso   1.00
N42    N     0.25460   0.65504   0.54693   0.00000  Uiso   1.00
N43    N     0.02030   0.91816   0.55494   0.00000  Uiso   1.00
N44    N     0.04743   0.56683   0.17815   0.00000  Uiso   1.00
N45    N     0.21772   0.56788   0.45927   0.00000  Uiso   1.00
N46    N     0.98342   0.83100   0.46727   0.00000  Uiso   1.00
C47    C     0.37704   0.24993   0.79700   0.00000  Uiso   1.00
C48    C     0.39671   0.29770   0.90478   0.00000  Uiso   1.00
C49    C     0.39270   0.28933   0.04423   0.00000  Uiso   1.00
C50    C     0.41311   0.33865   0.12582   0.00000  Uiso   1.00
C51    C     0.44005   0.40439   0.30170   0.00000  Uiso   1.00
C52    C     0.34977   0.29742   0.70666   0.00000  Uiso   1.00
C53    C     0.30630   0.28879   0.67954   0.00000  Uiso   1.00
C54    C     0.28720   0.33788   0.59433   0.00000  Uiso   1.00
C55    C     0.24128   0.40315   0.46255   0.00000  Uiso   1.00
C56    C     0.41435   0.22490   0.70889   0.00000  Uiso   1.00
C57    C     0.42517   0.15531   0.68360   0.00000  Uiso   1.00
C58    C     0.46043   0.14335   0.60025   0.00000  Uiso   1.00
C59    C     0.51477   0.09602   0.47193   0.00000  Uiso   1.00
C60    C     0.42041   0.35242   0.69390   0.00000  Uiso   1.00
C61    C     0.42026   0.35338   0.84877   0.00000  Uiso   1.00
C62    C     0.44068   0.40273   0.93017   0.00000  Uiso   1.00
C63    C     0.43671   0.39443   0.06972   0.00000  Uiso   1.00
C64    C     0.37333   0.35309   0.65066   0.00000  Uiso   1.00
C65    C     0.35428   0.40220   0.56547   0.00000  Uiso   1.00
C66    C     0.31080   0.39366   0.53823   0.00000  Uiso   1.00
C67    C     0.43791   0.28058   0.65289   0.00000  Uiso   1.00
C68    C     0.47315   0.26872   0.56955   0.00000  Uiso   1.00
C69    C     0.48403   0.19912   0.54414   0.00000  Uiso   1.00
H70    H     0.35870   0.20658   0.84059   0.00000  Uiso   1.00
H71    H     0.37447   0.24624   0.08753   0.00000  Uiso   1.00
H72    H     0.28808   0.24570   0.72288   0.00000  Uiso   1.00
H73    H     0.40693   0.11224   0.72696   0.00000  Uiso   1.00
H74    H     0.40232   0.31477   0.33662   0.00000  Uiso   1.00
H75    H     0.22018   0.31363   0.56769   0.00000  Uiso   1.00
H76    H     0.47080   0.03220   0.57628   0.00000  Uiso   1.00
H77    H     0.43875   0.39577   0.65029   0.00000  Uiso   1.00
H78    H     0.45891   0.44581   0.88680   0.00000  Uiso   1.00
H79    H     0.37252   0.44527   0.52215   0.00000  Uiso   1.00
H80    H     0.49137   0.31181   0.52623   0.00000  Uiso   1.00
H81    H     0.47086   0.47675   0.17370   0.00000  Uiso   1.00
H82    H     0.28872   0.47561   0.40476   0.00000  Uiso   1.00
H83    H     0.53934   0.19418   0.41336   0.00000  Uiso   1.00
O84    O     0.44840   0.42527   0.41417   0.00000  Uiso   1.00
O85    O     0.20944   0.42377   0.40535   0.00000  Uiso   1.00
O86    O     0.53824   0.05454   0.41664   0.00000  Uiso   1.00
N87    N     0.41570   0.34601   0.26582   0.00000  Uiso   1.00
N88    N     0.24540   0.34496   0.54693   0.00000  Uiso   1.00
N89    N     0.47970   0.08184   0.55494   0.00000  Uiso   1.00
N90    N     0.45257   0.43317   0.17815   0.00000  Uiso   1.00
N91    N     0.28228   0.43212   0.45927   0.00000  Uiso   1.00
N92    N     0.51658   0.16900   0.46727   0.00000  Uiso   1.00
C93    C     0.87704   0.75007   0.70300   0.00000  Uiso   1.00
C94    C     0.89671   0.70230   0.59522   0.00000  Uiso   1.00
C95    C     0.89270   0.71067   0.45577   0.00000  Uiso   1.00
C96    C     0.91311   0.66135   0.37418   0.00000  Uiso   1.00
C97    C     0.94005   0.59561   0.19830   0.00000  Uiso   1.00
C98    C     0.84977   0.70258   0.79334   0.00000  Uiso   1.00
C99    C     0.80630   0.71121   0.82046   0.00000  Uiso   1.00
C100   C     0.78720   0.66212   0.90567   0.00000  Uiso   1.00
C101   C     0.74128   0.59685   0.03745   0.00000  Uiso   1.00
C102   C     0.91435   0.77510   0.79111   0.00000  Uiso   1.00
C103   C     0.92517   0.84469   0.81640   0.00000  Uiso   1.00
C104   C     0.96043   0.85665   0.89975   0.00000  Uiso   1.00
C105   C     0.01477   0.90398   0.02807   0.00000  Uiso   1.00
C106   C     0.92041   0.64758   0.80610   0.00000  Uiso   1.00
C107   C     0.92026   0.64662   0.65123   0.00000  Uiso   1.00
C108   C     0.94068   0.59727   0.56983   0.00000  Uiso   1.00
C109   C     0.93671   0.60557   0.43028   0.00000  Uiso   1.00
C110   C     0.87333   0.64691   0.84934   0.00000  Uiso   1.00
C111   C     0.85428   0.59780   0.93453   0.00000  Uiso   1.00
C112   C     0.81080   0.60634   0.96177   0.00000  Uiso   1.00
C113   C     0.93791   0.71942   0.84711   0.00000  Uiso   1.00
C114   C     0.97315   0.73128   0.93045   0.00000  Uiso   1.00
C115   C     0.98403   0.80088   0.95586   0.00000  Uiso   1.00
H116   H     0.85870   0.79342   0.65941   0.00000  Uiso   1.00
H117   H     0.87447   0.75376   0.41247   0.00000  Uiso   1.00
H118   H     0.78808   0.75430   0.77712   0.00000  Uiso   1.00
H119   H     0.90693   0.88776   0.77304   0.00000  Uiso   1.00
H120   H     0.90232   0.68523   0.16338   0.00000  Uiso   1.00
H121   H     0.72018   0.68637   0.93231   0.00000  Uiso   1.00
H122   H     0.97080   0.96780   0.92372   0.00000  Uiso   1.00
H123   H     0.93875   0.60423   0.84971   0.00000  Uiso   1.00
H124   H     0.95891   0.55419   0.61320   0.00000  Uiso   1.00
H125   H     0.87252   0.55473   0.97785   0.00000  Uiso   1.00
H126   H     0.99137   0.68819   0.97377   0.00000  Uiso   1.00
H127   H     0.97086   0.52325   0.32630   0.00000  Uiso   1.00
H128   H     0.78872   0.52439   0.09524   0.00000  Uiso   1.00
H129   H     0.03934   0.80582   0.08664   0.00000  Uiso   1.00
O130   O     0.94840   0.57473   0.08583   0.00000  Uiso   1.00
O131   O     0.70944   0.57623   0.09465   0.00000  Uiso   1.00
O132   O     0.03824   0.94546   0.08336   0.00000  Uiso   1.00
N133   N     0.91570   0.65399   0.23418   0.00000  Uiso   1.00
N134   N     0.74540   0.65504   0.95307   0.00000  Uiso   1.00
N135   N     0.97970   0.91816   0.94506   0.00000  Uiso   1.00
N136   N     0.95257   0.56683   0.32185   0.00000  Uiso   1.00
N137   N     0.78228   0.56788   0.04073   0.00000  Uiso   1.00
N138   N     0.01658   0.83100   0.03273   0.00000  Uiso   1.00
C139   C     0.62296   0.24993   0.70300   0.00000  Uiso   1.00
C140   C     0.60329   0.29770   0.59522   0.00000  Uiso   1.00
C141   C     0.60730   0.28933   0.45577   0.00000  Uiso   1.00
C142   C     0.58689   0.33865   0.37418   0.00000  Uiso   1.00
C143   C     0.55995   0.40439   0.19830   0.00000  Uiso   1.00
C144   C     0.65023   0.29742   0.79334   0.00000  Uiso   1.00
C145   C     0.69370   0.28879   0.82046   0.00000  Uiso   1.00
C146   C     0.71280   0.33788   0.90567   0.00000  Uiso   1.00
C147   C     0.75872   0.40315   0.03745   0.00000  Uiso   1.00
C148   C     0.58565   0.22490   0.79111   0.00000  Uiso   1.00
C149   C     0.57483   0.15531   0.81640   0.00000  Uiso   1.00
C150   C     0.53957   0.14335   0.89975   0.00000  Uiso   1.00
C151   C     0.48523   0.09602   0.02807   0.00000  Uiso   1.00
C152   C     0.57959   0.35242   0.80610   0.00000  Uiso   1.00
C153   C     0.57974   0.35338   0.65123   0.00000  Uiso   1.00
C154   C     0.55932   0.40273   0.56983   0.00000  Uiso   1.00
C155   C     0.56329   0.39443   0.43028   0.00000  Uiso   1.00
C156   C     0.62667   0.35309   0.84934   0.00000  Uiso   1.00
C157   C     0.64572   0.40220   0.93453   0.00000  Uiso   1.00
C158   C     0.68920   0.39366   0.96177   0.00000  Uiso   1.00
C159   C     0.56209   0.28058   0.84711   0.00000  Uiso   1.00
C160   C     0.52685   0.26872   0.93045   0.00000  Uiso   1.00
C161   C     0.51597   0.19912   0.95586   0.00000  Uiso   1.00
H162   H     0.64130   0.20658   0.65941   0.00000  Uiso   1.00
H163   H     0.62553   0.24624   0.41247   0.00000  Uiso   1.00
H164   H     0.71192   0.24570   0.77712   0.00000  Uiso   1.00
H165   H     0.59307   0.11224   0.77304   0.00000  Uiso   1.00
H166   H     0.59768   0.31477   0.16338   0.00000  Uiso   1.00
H167   H     0.77982   0.31363   0.93231   0.00000  Uiso   1.00
H168   H     0.52920   0.03220   0.92372   0.00000  Uiso   1.00
H169   H     0.56125   0.39577   0.84971   0.00000  Uiso   1.00
H170   H     0.54109   0.44581   0.61320   0.00000  Uiso   1.00
H171   H     0.62748   0.44527   0.97785   0.00000  Uiso   1.00
H172   H     0.50863   0.31181   0.97377   0.00000  Uiso   1.00
H173   H     0.52914   0.47675   0.32630   0.00000  Uiso   1.00
H174   H     0.71128   0.47561   0.09524   0.00000  Uiso   1.00
H175   H     0.46066   0.19418   0.08664   0.00000  Uiso   1.00
O176   O     0.55160   0.42527   0.08583   0.00000  Uiso   1.00
O177   O     0.79056   0.42377   0.09465   0.00000  Uiso   1.00
O178   O     0.46176   0.05454   0.08336   0.00000  Uiso   1.00
N179   N     0.58430   0.34601   0.23418   0.00000  Uiso   1.00
N180   N     0.75460   0.34496   0.95307   0.00000  Uiso   1.00
N181   N     0.52030   0.08184   0.94506   0.00000  Uiso   1.00
N182   N     0.54743   0.43317   0.32185   0.00000  Uiso   1.00
N183   N     0.71772   0.43212   0.04073   0.00000  Uiso   1.00
N184   N     0.48342   0.16900   0.03273   0.00000  Uiso   1.00
C185   C     0.87704   0.24993   0.20300   0.00000  Uiso   1.00
C186   C     0.89671   0.29770   0.09522   0.00000  Uiso   1.00
C187   C     0.89270   0.28933   0.95577   0.00000  Uiso   1.00
C188   C     0.91311   0.33865   0.87418   0.00000  Uiso   1.00
C189   C     0.94005   0.40439   0.69830   0.00000  Uiso   1.00
C190   C     0.84977   0.29742   0.29334   0.00000  Uiso   1.00
C191   C     0.80630   0.28879   0.32046   0.00000  Uiso   1.00
C192   C     0.78720   0.33788   0.40567   0.00000  Uiso   1.00
C193   C     0.74128   0.40315   0.53745   0.00000  Uiso   1.00
C194   C     0.91435   0.22490   0.29111   0.00000  Uiso   1.00
C195   C     0.92517   0.15531   0.31640   0.00000  Uiso   1.00
C196   C     0.96043   0.14335   0.39975   0.00000  Uiso   1.00
C197   C     0.01477   0.09602   0.52807   0.00000  Uiso   1.00
C198   C     0.92041   0.35242   0.30610   0.00000  Uiso   1.00
C199   C     0.92026   0.35338   0.15123   0.00000  Uiso   1.00
C200   C     0.94068   0.40273   0.06983   0.00000  Uiso   1.00
C201   C     0.93671   0.39443   0.93028   0.00000  Uiso   1.00
C202   C     0.87333   0.35309   0.34934   0.00000  Uiso   1.00
C203   C     0.85428   0.40220   0.43453   0.00000  Uiso   1.00
C204   C     0.81080   0.39366   0.46177   0.00000  Uiso   1.00
C205   C     0.93791   0.28058   0.34711   0.00000  Uiso   1.00
C206   C     0.97315   0.26872   0.43045   0.00000  Uiso   1.00
C207   C     0.98403   0.19912   0.45586   0.00000  Uiso   1.00
H208   H     0.85870   0.20658   0.15941   0.00000  Uiso   1.00
H209   H     0.87447   0.24624   0.91247   0.00000  Uiso   1.00
H210   H     0.78808   0.24570   0.27712   0.00000  Uiso   1.00
H211   H     0.90693   0.11224   0.27304   0.00000  Uiso   1.00
H212   H     0.90232   0.31477   0.66338   0.00000  Uiso   1.00
H213   H     0.72018   0.31363   0.43231   0.00000  Uiso   1.00
H214   H     0.97080   0.03220   0.42372   0.00000  Uiso   1.00
H215   H     0.93875   0.39577   0.34971   0.00000  Uiso   1.00
H216   H     0.95891   0.44581   0.11320   0.00000  Uiso   1.00
H217   H     0.87252   0.44527   0.47785   0.00000  Uiso   1.00
H218   H     0.99137   0.31181   0.47377   0.00000  Uiso   1.00
H219   H     0.97086   0.47675   0.82630   0.00000  Uiso   1.00
H220   H     0.78872   0.47561   0.59524   0.00000  Uiso   1.00
H221   H     0.03934   0.19418   0.58664   0.00000  Uiso   1.00
O222   O     0.94840   0.42527   0.58583   0.00000  Uiso   1.00
O223   O     0.70944   0.42377   0.59465   0.00000  Uiso   1.00
O224   O     0.03824   0.05454   0.58336   0.00000  Uiso   1.00
N225   N     0.91570   0.34601   0.73418   0.00000  Uiso   1.00
N226   N     0.74540   0.34496   0.45307   0.00000  Uiso   1.00
N227   N     0.97970   0.08184   0.44506   0.00000  Uiso   1.00
N228   N     0.95257   0.43317   0.82185   0.00000  Uiso   1.00
N229   N     0.78228   0.43212   0.54073   0.00000  Uiso   1.00
N230   N     0.01658   0.16900   0.53273   0.00000  Uiso   1.00
C231   C     0.62296   0.75007   0.20300   0.00000  Uiso   1.00
C232   C     0.60329   0.70230   0.09522   0.00000  Uiso   1.00
C233   C     0.60730   0.71067   0.95577   0.00000  Uiso   1.00
C234   C     0.58689   0.66135   0.87418   0.00000  Uiso   1.00
C235   C     0.55995   0.59561   0.69830   0.00000  Uiso   1.00
C236   C     0.65023   0.70258   0.29334   0.00000  Uiso   1.00
C237   C     0.69370   0.71121   0.32046   0.00000  Uiso   1.00
C238   C     0.71280   0.66212   0.40567   0.00000  Uiso   1.00
C239   C     0.75872   0.59685   0.53745   0.00000  Uiso   1.00
C240   C     0.58565   0.77510   0.29111   0.00000  Uiso   1.00
C241   C     0.57483   0.84469   0.31640   0.00000  Uiso   1.00
C242   C     0.53957   0.85665   0.39975   0.00000  Uiso   1.00
C243   C     0.48523   0.90398   0.52807   0.00000  Uiso   1.00
C244   C     0.57959   0.64758   0.30610   0.00000  Uiso   1.00
C245   C     0.57974   0.64662   0.15123   0.00000  Uiso   1.00
C246   C     0.55932   0.59727   0.06983   0.00000  Uiso   1.00
C247   C     0.56329   0.60557   0.93028   0.00000  Uiso   1.00
C248   C     0.62667   0.64691   0.34934   0.00000  Uiso   1.00
C249   C     0.64572   0.59780   0.43453   0.00000  Uiso   1.00
C250   C     0.68920   0.60634   0.46177   0.00000  Uiso   1.00
C251   C     0.56209   0.71942   0.34711   0.00000  Uiso   1.00
C252   C     0.52685   0.73128   0.43045   0.00000  Uiso   1.00
C253   C     0.51597   0.80088   0.45586   0.00000  Uiso   1.00
H254   H     0.64130   0.79342   0.15941   0.00000  Uiso   1.00
H255   H     0.62553   0.75376   0.91247   0.00000  Uiso   1.00
H256   H     0.71192   0.75430   0.27712   0.00000  Uiso   1.00
H257   H     0.59307   0.88776   0.27304   0.00000  Uiso   1.00
H258   H     0.59768   0.68523   0.66338   0.00000  Uiso   1.00
H259   H     0.77982   0.68637   0.43231   0.00000  Uiso   1.00
H260   H     0.52920   0.96780   0.42372   0.00000  Uiso   1.00
H261   H     0.56125   0.60423   0.34971   0.00000  Uiso   1.00
H262   H     0.54109   0.55419   0.11320   0.00000  Uiso   1.00
H263   H     0.62748   0.55473   0.47785   0.00000  Uiso   1.00
H264   H     0.50863   0.68819   0.47377   0.00000  Uiso   1.00
H265   H     0.52914   0.52325   0.82630   0.00000  Uiso   1.00
H266   H     0.71128   0.52439   0.59524   0.00000  Uiso   1.00
H267   H     0.46066   0.80582   0.58664   0.00000  Uiso   1.00
O268   O     0.55160   0.57473   0.58583   0.00000  Uiso   1.00
O269   O     0.79056   0.57623   0.59465   0.00000  Uiso   1.00
O270   O     0.46176   0.94546   0.58336   0.00000  Uiso   1.00
N271   N     0.58430   0.65399   0.73418   0.00000  Uiso   1.00
N272   N     0.75460   0.65504   0.45307   0.00000  Uiso   1.00
N273   N     0.52030   0.91816   0.44506   0.00000  Uiso   1.00
N274   N     0.54743   0.56683   0.82185   0.00000  Uiso   1.00
N275   N     0.71772   0.56788   0.54073   0.00000  Uiso   1.00
N276   N     0.48342   0.83100   0.53273   0.00000  Uiso   1.00
C277   C     0.12296   0.24993   0.29700   0.00000  Uiso   1.00
C278   C     0.10329   0.29770   0.40478   0.00000  Uiso   1.00
C279   C     0.10730   0.28933   0.54423   0.00000  Uiso   1.00
C280   C     0.08689   0.33865   0.62582   0.00000  Uiso   1.00
C281   C     0.05995   0.40439   0.80170   0.00000  Uiso   1.00
C282   C     0.15023   0.29742   0.20666   0.00000  Uiso   1.00
C283   C     0.19370   0.28879   0.17954   0.00000  Uiso   1.00
C284   C     0.21280   0.33788   0.09433   0.00000  Uiso   1.00
C285   C     0.25872   0.40315   0.96255   0.00000  Uiso   1.00
C286   C     0.08565   0.22490   0.20889   0.00000  Uiso   1.00
C287   C     0.07483   0.15531   0.18360   0.00000  Uiso   1.00
C288   C     0.03957   0.14335   0.10025   0.00000  Uiso   1.00
C289   C     0.98523   0.09602   0.97193   0.00000  Uiso   1.00
C290   C     0.07959   0.35242   0.19390   0.00000  Uiso   1.00
C291   C     0.07974   0.35338   0.34877   0.00000  Uiso   1.00
C292   C     0.05932   0.40273   0.43017   0.00000  Uiso   1.00
C293   C     0.06329   0.39443   0.56972   0.00000  Uiso   1.00
C294   C     0.12667   0.35309   0.15066   0.00000  Uiso   1.00
C295   C     0.14572   0.40220   0.06547   0.00000  Uiso   1.00
C296   C     0.18920   0.39366   0.03823   0.00000  Uiso   1.00
C297   C     0.06209   0.28058   0.15289   0.00000  Uiso   1.00
C298   C     0.02685   0.26872   0.06955   0.00000  Uiso   1.00
C299   C     0.01597   0.19912   0.04414   0.00000  Uiso   1.00
H300   H     0.14130   0.20658   0.34059   0.00000  Uiso   1.00
H301   H     0.12553   0.24624   0.58753   0.00000  Uiso   1.00
H302   H     0.21192   0.24570   0.22288   0.00000  Uiso   1.00
H303   H     0.09307   0.11224   0.22696   0.00000  Uiso   1.00
H304   H     0.09768   0.31477   0.83662   0.00000  Uiso   1.00
H305   H     0.27982   0.31363   0.06769   0.00000  Uiso   1.00
H306   H     0.02920   0.03220   0.07628   0.00000  Uiso   1.00
H307   H     0.06125   0.39577   0.15029   0.00000  Uiso   1.00
H308   H     0.04109   0.44581   0.38680   0.00000  Uiso   1.00
H309   H     0.12748   0.44527   0.02215   0.00000  Uiso   1.00
H310   H     0.00863   0.31181   0.02623   0.00000  Uiso   1.00
H311   H     0.02914   0.47675   0.67370   0.00000  Uiso   1.00
H312   H     0.21128   0.47561   0.90476   0.00000  Uiso   1.00
H313   H     0.96066   0.19418   0.91336   0.00000  Uiso   1.00
O314   O     0.05160   0.42527   0.91417   0.00000  Uiso   1.00
O315   O     0.29056   0.42377   0.90535   0.00000  Uiso   1.00
O316   O     0.96176   0.05454   0.91664   0.00000  Uiso   1.00
N317   N     0.08430   0.34601   0.76582   0.00000  Uiso   1.00
N318   N     0.25460   0.34496   0.04693   0.00000  Uiso   1.00
N319   N     0.02030   0.08184   0.05494   0.00000  Uiso   1.00
N320   N     0.04743   0.43317   0.67815   0.00000  Uiso   1.00
N321   N     0.21772   0.43212   0.95927   0.00000  Uiso   1.00
N322   N     0.98342   0.16900   0.96727   0.00000  Uiso   1.00
C323   C     0.37704   0.75007   0.29700   0.00000  Uiso   1.00
C324   C     0.39671   0.70230   0.40478   0.00000  Uiso   1.00
C325   C     0.39270   0.71067   0.54423   0.00000  Uiso   1.00
C326   C     0.41311   0.66135   0.62582   0.00000  Uiso   1.00
C327   C     0.44005   0.59561   0.80170   0.00000  Uiso   1.00
C328   C     0.34977   0.70258   0.20666   0.00000  Uiso   1.00
C329   C     0.30630   0.71121   0.17954   0.00000  Uiso   1.00
C330   C     0.28720   0.66212   0.09433   0.00000  Uiso   1.00
C331   C     0.24128   0.59685   0.96255   0.00000  Uiso   1.00
C332   C     0.41435   0.77510   0.20889   0.00000  Uiso   1.00
C333   C     0.42517   0.84469   0.18360   0.00000  Uiso   1.00
C334   C     0.46043   0.85665   0.10025   0.00000  Uiso   1.00
C335   C     0.51477   0.90398   0.97193   0.00000  Uiso   1.00
C336   C     0.42041   0.64758   0.19390   0.00000  Uiso   1.00
C337   C     0.42026   0.64662   0.34877   0.00000  Uiso   1.00
C338   C     0.44068   0.59727   0.43017   0.00000  Uiso   1.00
C339   C     0.43671   0.60557   0.56972   0.00000  Uiso   1.00
C340   C     0.37333   0.64691   0.15066   0.00000  Uiso   1.00
C341   C     0.35428   0.59780   0.06547   0.00000  Uiso   1.00
C342   C     0.31080   0.60634   0.03823   0.00000  Uiso   1.00
C343   C     0.43791   0.71942   0.15289   0.00000  Uiso   1.00
C344   C     0.47315   0.73128   0.06955   0.00000  Uiso   1.00
C345   C     0.48403   0.80088   0.04414   0.00000  Uiso   1.00
H346   H     0.35870   0.79342   0.34059   0.00000  Uiso   1.00
H347   H     0.37447   0.75376   0.58753   0.00000  Uiso   1.00
H348   H     0.28808   0.75430   0.22288   0.00000  Uiso   1.00
H349   H     0.40693   0.88776   0.22696   0.00000  Uiso   1.00
H350   H     0.40232   0.68523   0.83662   0.00000  Uiso   1.00
H351   H     0.22018   0.68637   0.06769   0.00000  Uiso   1.00
H352   H     0.47080   0.96780   0.07628   0.00000  Uiso   1.00
H353   H     0.43875   0.60423   0.15029   0.00000  Uiso   1.00
H354   H     0.45891   0.55419   0.38680   0.00000  Uiso   1.00
H355   H     0.37252   0.55473   0.02215   0.00000  Uiso   1.00
H356   H     0.49137   0.68819   0.02623   0.00000  Uiso   1.00
H357   H     0.47086   0.52325   0.67370   0.00000  Uiso   1.00
H358   H     0.28872   0.52439   0.90476   0.00000  Uiso   1.00
H359   H     0.53934   0.80582   0.91336   0.00000  Uiso   1.00
O360   O     0.44840   0.57473   0.91417   0.00000  Uiso   1.00
O361   O     0.20944   0.57623   0.90535   0.00000  Uiso   1.00
O362   O     0.53824   0.94546   0.91664   0.00000  Uiso   1.00
N363   N     0.41570   0.65399   0.76582   0.00000  Uiso   1.00
N364   N     0.24540   0.65504   0.04693   0.00000  Uiso   1.00
N365   N     0.47970   0.91816   0.05494   0.00000  Uiso   1.00
N366   N     0.45257   0.56683   0.67815   0.00000  Uiso   1.00
N367   N     0.28228   0.56788   0.95927   0.00000  Uiso   1.00
N368   N     0.51658   0.83100   0.96727   0.00000  Uiso   1.00
