data_job_05397
_audit_creation_date              2018-12-19
_audit_creation_method            'Materials Studio'
_symmetry_space_group_name_H-M    'P1'
_symmetry_Int_Tables_number       1
_symmetry_cell_setting            triclinic
loop_
_symmetry_equiv_pos_as_xyz
  x,y,z
_cell_length_a                    9.7791
_cell_length_b                    45.9613
_cell_length_c                    13.6617
_cell_angle_alpha                 90.0000
_cell_angle_beta                  90.0000
_cell_angle_gamma                 90.0000
loop_
_atom_site_label
_atom_site_type_symbol
_atom_site_fract_x
_atom_site_fract_y
_atom_site_fract_z
_atom_site_U_iso_or_equiv
_atom_site_adp_type
_atom_site_occupancy
C1     C     0.24858   0.87881   0.71812   0.00000  Uiso   1.00
C2     C     0.28952   0.84904   0.67851   0.00000  Uiso   1.00
C3     C     0.39053   0.83117   0.71689   0.00000  Uiso   1.00
C4     C     0.41254   0.80477   0.67009   0.00000  Uiso   1.00
C5     C     0.48777   0.75979   0.62106   0.00000  Uiso   1.00
C6     C     0.26423   0.90001   0.63299   0.00000  Uiso   1.00
C7     C     0.34398   0.92499   0.63310   0.00000  Uiso   1.00
C8     C     0.34468   0.94149   0.54798   0.00000  Uiso   1.00
C9     C     0.38058   0.97566   0.42830   0.00000  Uiso   1.00
C10    C     0.09566   0.87704   0.73914   0.00000  Uiso   1.00
C11    C     0.03365   0.88271   0.82850   0.00000  Uiso   1.00
C12    C     0.89241   0.87989   0.83274   0.00000  Uiso   1.00
C13    C     0.66658   0.87839   0.87787   0.00000  Uiso   1.00
C14    C     0.10801   0.86371   0.56675   0.00000  Uiso   1.00
C15    C     0.21317   0.84084   0.59629   0.00000  Uiso   1.00
C16    C     0.23501   0.81446   0.54942   0.00000  Uiso   1.00
C17    C     0.33605   0.79655   0.58773   0.00000  Uiso   1.00
C18    C     0.18789   0.89181   0.55077   0.00000  Uiso   1.00
C19    C     0.18846   0.90828   0.46563   0.00000  Uiso   1.00
C20    C     0.26819   0.93328   0.46561   0.00000  Uiso   1.00
C21    C     0.01930   0.86884   0.65692   0.00000  Uiso   1.00
C22    C     0.87813   0.86601   0.66102   0.00000  Uiso   1.00
C23    C     0.81593   0.87167   0.75037   0.00000  Uiso   1.00
H24    H     0.30802   0.88520   0.78213   0.00000  Uiso   1.00
H25    H     0.44961   0.83752   0.78052   0.00000  Uiso   1.00
H26    H     0.40304   0.93133   0.69674   0.00000  Uiso   1.00
H27    H     0.09277   0.88906   0.89210   0.00000  Uiso   1.00
H28    H     0.57295   0.78105   0.74245   0.00000  Uiso   1.00
H29    H     0.47473   0.97886   0.56581   0.00000  Uiso   1.00
H30    H     0.82045   0.88972   0.97778   0.00000  Uiso   1.00
H31    H     0.04856   0.85733   0.50274   0.00000  Uiso   1.00
H32    H     0.17592   0.80812   0.48580   0.00000  Uiso   1.00
H33    H     0.12936   0.90193   0.40202   0.00000  Uiso   1.00
H34    H     0.81908   0.85966   0.59739   0.00000  Uiso   1.00
H35    H     0.35082   0.75719   0.50324   0.00000  Uiso   1.00
H36    H     0.25259   0.95499   0.32661   0.00000  Uiso   1.00
H37    H     0.59832   0.86586   0.73857   0.00000  Uiso   1.00
O38    O     0.55037   0.73725   0.61672   0.00000  Uiso   1.00
O39    O     0.42149   0.99677   0.38499   0.00000  Uiso   1.00
O40    O     0.56310   0.87983   0.92548   0.00000  Uiso   1.00
N41    N     0.50317   0.78219   0.68849   0.00000  Uiso   1.00
N42    N     0.41136   0.96712   0.52334   0.00000  Uiso   1.00
N43    N     0.79967   0.88379   0.90849   0.00000  Uiso   1.00
N44    N     0.38364   0.76934   0.55978   0.00000  Uiso   1.00
N45    N     0.29183   0.95428   0.39463   0.00000  Uiso   1.00
N46    N     0.68014   0.87095   0.77977   0.00000  Uiso   1.00
C47    C     0.25142   0.12119   0.71812   0.00000  Uiso   1.00
C48    C     0.21048   0.15096   0.67851   0.00000  Uiso   1.00
C49    C     0.10947   0.16883   0.71689   0.00000  Uiso   1.00
C50    C     0.08746   0.19523   0.67009   0.00000  Uiso   1.00
C51    C     0.01223   0.24021   0.62106   0.00000  Uiso   1.00
C52    C     0.23577   0.09999   0.63299   0.00000  Uiso   1.00
C53    C     0.15602   0.07501   0.63310   0.00000  Uiso   1.00
C54    C     0.15532   0.05851   0.54798   0.00000  Uiso   1.00
C55    C     0.11942   0.02434   0.42830   0.00000  Uiso   1.00
C56    C     0.40434   0.12296   0.73914   0.00000  Uiso   1.00
C57    C     0.46635   0.11729   0.82850   0.00000  Uiso   1.00
C58    C     0.60759   0.12011   0.83274   0.00000  Uiso   1.00
C59    C     0.83342   0.12161   0.87787   0.00000  Uiso   1.00
C60    C     0.39199   0.13629   0.56675   0.00000  Uiso   1.00
C61    C     0.28683   0.15916   0.59629   0.00000  Uiso   1.00
C62    C     0.26499   0.18554   0.54942   0.00000  Uiso   1.00
C63    C     0.16395   0.20345   0.58773   0.00000  Uiso   1.00
C64    C     0.31211   0.10819   0.55077   0.00000  Uiso   1.00
C65    C     0.31154   0.09172   0.46563   0.00000  Uiso   1.00
C66    C     0.23181   0.06672   0.46561   0.00000  Uiso   1.00
C67    C     0.48070   0.13116   0.65692   0.00000  Uiso   1.00
C68    C     0.62187   0.13399   0.66102   0.00000  Uiso   1.00
C69    C     0.68407   0.12833   0.75037   0.00000  Uiso   1.00
H70    H     0.19198   0.11480   0.78213   0.00000  Uiso   1.00
H71    H     0.05039   0.16248   0.78052   0.00000  Uiso   1.00
H72    H     0.09696   0.06867   0.69674   0.00000  Uiso   1.00
H73    H     0.40723   0.11094   0.89210   0.00000  Uiso   1.00
H74    H     0.92705   0.21895   0.74245   0.00000  Uiso   1.00
H75    H     0.02527   0.02114   0.56581   0.00000  Uiso   1.00
H76    H     0.67955   0.11028   0.97778   0.00000  Uiso   1.00
H77    H     0.45144   0.14267   0.50274   0.00000  Uiso   1.00
H78    H     0.32408   0.19188   0.48580   0.00000  Uiso   1.00
H79    H     0.37064   0.09807   0.40202   0.00000  Uiso   1.00
H80    H     0.68092   0.14034   0.59739   0.00000  Uiso   1.00
H81    H     0.14918   0.24281   0.50324   0.00000  Uiso   1.00
H82    H     0.24741   0.04501   0.32661   0.00000  Uiso   1.00
H83    H     0.90168   0.13414   0.73857   0.00000  Uiso   1.00
O84    O     0.94963   0.26275   0.61672   0.00000  Uiso   1.00
O85    O     0.07851   0.00323   0.38499   0.00000  Uiso   1.00
O86    O     0.93690   0.12017   0.92548   0.00000  Uiso   1.00
N87    N     0.99683   0.21781   0.68849   0.00000  Uiso   1.00
N88    N     0.08864   0.03288   0.52334   0.00000  Uiso   1.00
N89    N     0.70033   0.11621   0.90849   0.00000  Uiso   1.00
N90    N     0.11636   0.23066   0.55978   0.00000  Uiso   1.00
N91    N     0.20817   0.04572   0.39463   0.00000  Uiso   1.00
N92    N     0.81986   0.12905   0.77977   0.00000  Uiso   1.00
C93    C     0.25142   0.37881   0.78188   0.00000  Uiso   1.00
C94    C     0.21048   0.34904   0.82149   0.00000  Uiso   1.00
C95    C     0.10947   0.33117   0.78311   0.00000  Uiso   1.00
C96    C     0.08746   0.30477   0.82991   0.00000  Uiso   1.00
C97    C     0.01223   0.25979   0.87894   0.00000  Uiso   1.00
C98    C     0.23577   0.40001   0.86701   0.00000  Uiso   1.00
C99    C     0.15602   0.42499   0.86690   0.00000  Uiso   1.00
C100   C     0.15532   0.44149   0.95202   0.00000  Uiso   1.00
C101   C     0.11942   0.47566   0.07170   0.00000  Uiso   1.00
C102   C     0.40434   0.37704   0.76086   0.00000  Uiso   1.00
C103   C     0.46635   0.38271   0.67150   0.00000  Uiso   1.00
C104   C     0.60759   0.37989   0.66726   0.00000  Uiso   1.00
C105   C     0.83342   0.37839   0.62213   0.00000  Uiso   1.00
C106   C     0.39199   0.36371   0.93325   0.00000  Uiso   1.00
C107   C     0.28683   0.34084   0.90371   0.00000  Uiso   1.00
C108   C     0.26499   0.31446   0.95058   0.00000  Uiso   1.00
C109   C     0.16395   0.29655   0.91227   0.00000  Uiso   1.00
C110   C     0.31211   0.39181   0.94923   0.00000  Uiso   1.00
C111   C     0.31154   0.40828   0.03437   0.00000  Uiso   1.00
C112   C     0.23181   0.43328   0.03439   0.00000  Uiso   1.00
C113   C     0.48070   0.36884   0.84308   0.00000  Uiso   1.00
C114   C     0.62187   0.36601   0.83898   0.00000  Uiso   1.00
C115   C     0.68407   0.37167   0.74963   0.00000  Uiso   1.00
H116   H     0.19198   0.38520   0.71787   0.00000  Uiso   1.00
H117   H     0.05039   0.33752   0.71948   0.00000  Uiso   1.00
H118   H     0.09696   0.43133   0.80326   0.00000  Uiso   1.00
H119   H     0.40723   0.38906   0.60790   0.00000  Uiso   1.00
H120   H     0.92705   0.28105   0.75755   0.00000  Uiso   1.00
H121   H     0.02527   0.47886   0.93419   0.00000  Uiso   1.00
H122   H     0.67955   0.38972   0.52222   0.00000  Uiso   1.00
H123   H     0.45144   0.35733   0.99726   0.00000  Uiso   1.00
H124   H     0.32408   0.30812   0.01420   0.00000  Uiso   1.00
H125   H     0.37064   0.40193   0.09798   0.00000  Uiso   1.00
H126   H     0.68092   0.35966   0.90261   0.00000  Uiso   1.00
H127   H     0.14918   0.25719   0.99676   0.00000  Uiso   1.00
H128   H     0.24741   0.45499   0.17339   0.00000  Uiso   1.00
H129   H     0.90168   0.36586   0.76143   0.00000  Uiso   1.00
O130   O     0.94963   0.23725   0.88328   0.00000  Uiso   1.00
O131   O     0.07851   0.49677   0.11501   0.00000  Uiso   1.00
O132   O     0.93690   0.37983   0.57452   0.00000  Uiso   1.00
N133   N     0.99683   0.28219   0.81151   0.00000  Uiso   1.00
N134   N     0.08864   0.46712   0.97666   0.00000  Uiso   1.00
N135   N     0.70033   0.38379   0.59151   0.00000  Uiso   1.00
N136   N     0.11636   0.26934   0.94022   0.00000  Uiso   1.00
N137   N     0.20817   0.45428   0.10537   0.00000  Uiso   1.00
N138   N     0.81986   0.37095   0.72023   0.00000  Uiso   1.00
C139   C     0.24858   0.62119   0.78188   0.00000  Uiso   1.00
C140   C     0.28952   0.65096   0.82149   0.00000  Uiso   1.00
C141   C     0.39053   0.66883   0.78311   0.00000  Uiso   1.00
C142   C     0.41254   0.69523   0.82991   0.00000  Uiso   1.00
C143   C     0.48777   0.74021   0.87894   0.00000  Uiso   1.00
C144   C     0.26423   0.59999   0.86701   0.00000  Uiso   1.00
C145   C     0.34398   0.57501   0.86690   0.00000  Uiso   1.00
C146   C     0.34468   0.55851   0.95202   0.00000  Uiso   1.00
C147   C     0.38058   0.52434   0.07170   0.00000  Uiso   1.00
C148   C     0.09566   0.62296   0.76086   0.00000  Uiso   1.00
C149   C     0.03365   0.61729   0.67150   0.00000  Uiso   1.00
C150   C     0.89241   0.62011   0.66726   0.00000  Uiso   1.00
C151   C     0.66658   0.62161   0.62213   0.00000  Uiso   1.00
C152   C     0.10801   0.63629   0.93325   0.00000  Uiso   1.00
C153   C     0.21317   0.65916   0.90371   0.00000  Uiso   1.00
C154   C     0.23501   0.68554   0.95058   0.00000  Uiso   1.00
C155   C     0.33605   0.70345   0.91227   0.00000  Uiso   1.00
C156   C     0.18789   0.60819   0.94923   0.00000  Uiso   1.00
C157   C     0.18846   0.59172   0.03437   0.00000  Uiso   1.00
C158   C     0.26819   0.56672   0.03439   0.00000  Uiso   1.00
C159   C     0.01930   0.63116   0.84308   0.00000  Uiso   1.00
C160   C     0.87813   0.63399   0.83898   0.00000  Uiso   1.00
C161   C     0.81593   0.62833   0.74963   0.00000  Uiso   1.00
H162   H     0.30802   0.61480   0.71787   0.00000  Uiso   1.00
H163   H     0.44961   0.66248   0.71948   0.00000  Uiso   1.00
H164   H     0.40304   0.56867   0.80326   0.00000  Uiso   1.00
H165   H     0.09277   0.61094   0.60790   0.00000  Uiso   1.00
H166   H     0.57295   0.71895   0.75755   0.00000  Uiso   1.00
H167   H     0.47473   0.52114   0.93419   0.00000  Uiso   1.00
H168   H     0.82045   0.61028   0.52222   0.00000  Uiso   1.00
H169   H     0.04856   0.64267   0.99726   0.00000  Uiso   1.00
H170   H     0.17592   0.69188   0.01420   0.00000  Uiso   1.00
H171   H     0.12936   0.59807   0.09798   0.00000  Uiso   1.00
H172   H     0.81908   0.64034   0.90261   0.00000  Uiso   1.00
H173   H     0.35082   0.74281   0.99676   0.00000  Uiso   1.00
H174   H     0.25259   0.54501   0.17339   0.00000  Uiso   1.00
H175   H     0.59832   0.63414   0.76143   0.00000  Uiso   1.00
O176   O     0.55037   0.76275   0.88328   0.00000  Uiso   1.00
O177   O     0.42149   0.50323   0.11501   0.00000  Uiso   1.00
O178   O     0.56310   0.62017   0.57452   0.00000  Uiso   1.00
N179   N     0.50317   0.71781   0.81151   0.00000  Uiso   1.00
N180   N     0.41136   0.53288   0.97666   0.00000  Uiso   1.00
N181   N     0.79967   0.61621   0.59151   0.00000  Uiso   1.00
N182   N     0.38364   0.73066   0.94022   0.00000  Uiso   1.00
N183   N     0.29183   0.54572   0.10537   0.00000  Uiso   1.00
N184   N     0.68014   0.62905   0.72023   0.00000  Uiso   1.00
C185   C     0.75142   0.12119   0.28188   0.00000  Uiso   1.00
C186   C     0.71048   0.15096   0.32149   0.00000  Uiso   1.00
C187   C     0.60947   0.16883   0.28311   0.00000  Uiso   1.00
C188   C     0.58746   0.19523   0.32991   0.00000  Uiso   1.00
C189   C     0.51223   0.24021   0.37894   0.00000  Uiso   1.00
C190   C     0.73577   0.09999   0.36701   0.00000  Uiso   1.00
C191   C     0.65602   0.07501   0.36690   0.00000  Uiso   1.00
C192   C     0.65532   0.05851   0.45202   0.00000  Uiso   1.00
C193   C     0.61942   0.02434   0.57170   0.00000  Uiso   1.00
C194   C     0.90434   0.12296   0.26086   0.00000  Uiso   1.00
C195   C     0.96635   0.11729   0.17150   0.00000  Uiso   1.00
C196   C     0.10759   0.12011   0.16726   0.00000  Uiso   1.00
C197   C     0.33342   0.12161   0.12213   0.00000  Uiso   1.00
C198   C     0.89199   0.13629   0.43325   0.00000  Uiso   1.00
C199   C     0.78683   0.15916   0.40371   0.00000  Uiso   1.00
C200   C     0.76499   0.18554   0.45058   0.00000  Uiso   1.00
C201   C     0.66395   0.20345   0.41227   0.00000  Uiso   1.00
C202   C     0.81211   0.10819   0.44923   0.00000  Uiso   1.00
C203   C     0.81154   0.09172   0.53437   0.00000  Uiso   1.00
C204   C     0.73181   0.06672   0.53439   0.00000  Uiso   1.00
C205   C     0.98070   0.13116   0.34308   0.00000  Uiso   1.00
C206   C     0.12187   0.13399   0.33898   0.00000  Uiso   1.00
C207   C     0.18407   0.12833   0.24963   0.00000  Uiso   1.00
H208   H     0.69198   0.11480   0.21787   0.00000  Uiso   1.00
H209   H     0.55039   0.16248   0.21948   0.00000  Uiso   1.00
H210   H     0.59696   0.06867   0.30326   0.00000  Uiso   1.00
H211   H     0.90723   0.11094   0.10790   0.00000  Uiso   1.00
H212   H     0.42705   0.21895   0.25755   0.00000  Uiso   1.00
H213   H     0.52527   0.02114   0.43419   0.00000  Uiso   1.00
H214   H     0.17955   0.11028   0.02222   0.00000  Uiso   1.00
H215   H     0.95144   0.14267   0.49726   0.00000  Uiso   1.00
H216   H     0.82408   0.19188   0.51420   0.00000  Uiso   1.00
H217   H     0.87064   0.09807   0.59798   0.00000  Uiso   1.00
H218   H     0.18092   0.14034   0.40261   0.00000  Uiso   1.00
H219   H     0.64918   0.24281   0.49676   0.00000  Uiso   1.00
H220   H     0.74741   0.04501   0.67339   0.00000  Uiso   1.00
H221   H     0.40168   0.13414   0.26143   0.00000  Uiso   1.00
O222   O     0.44963   0.26275   0.38328   0.00000  Uiso   1.00
O223   O     0.57851   0.00323   0.61501   0.00000  Uiso   1.00
O224   O     0.43690   0.12017   0.07452   0.00000  Uiso   1.00
N225   N     0.49683   0.21781   0.31151   0.00000  Uiso   1.00
N226   N     0.58864   0.03288   0.47666   0.00000  Uiso   1.00
N227   N     0.20033   0.11621   0.09151   0.00000  Uiso   1.00
N228   N     0.61636   0.23066   0.44022   0.00000  Uiso   1.00
N229   N     0.70817   0.04572   0.60537   0.00000  Uiso   1.00
N230   N     0.31986   0.12905   0.22023   0.00000  Uiso   1.00
C231   C     0.74858   0.87881   0.28188   0.00000  Uiso   1.00
C232   C     0.78952   0.84904   0.32149   0.00000  Uiso   1.00
C233   C     0.89053   0.83117   0.28311   0.00000  Uiso   1.00
C234   C     0.91254   0.80477   0.32991   0.00000  Uiso   1.00
C235   C     0.98777   0.75979   0.37894   0.00000  Uiso   1.00
C236   C     0.76423   0.90001   0.36701   0.00000  Uiso   1.00
C237   C     0.84398   0.92499   0.36690   0.00000  Uiso   1.00
C238   C     0.84468   0.94149   0.45202   0.00000  Uiso   1.00
C239   C     0.88058   0.97566   0.57170   0.00000  Uiso   1.00
C240   C     0.59566   0.87704   0.26086   0.00000  Uiso   1.00
C241   C     0.53365   0.88271   0.17150   0.00000  Uiso   1.00
C242   C     0.39241   0.87989   0.16726   0.00000  Uiso   1.00
C243   C     0.16658   0.87839   0.12213   0.00000  Uiso   1.00
C244   C     0.60801   0.86371   0.43325   0.00000  Uiso   1.00
C245   C     0.71317   0.84084   0.40371   0.00000  Uiso   1.00
C246   C     0.73501   0.81446   0.45058   0.00000  Uiso   1.00
C247   C     0.83605   0.79655   0.41227   0.00000  Uiso   1.00
C248   C     0.68789   0.89181   0.44923   0.00000  Uiso   1.00
C249   C     0.68846   0.90828   0.53437   0.00000  Uiso   1.00
C250   C     0.76819   0.93328   0.53439   0.00000  Uiso   1.00
C251   C     0.51930   0.86884   0.34308   0.00000  Uiso   1.00
C252   C     0.37813   0.86601   0.33898   0.00000  Uiso   1.00
C253   C     0.31593   0.87167   0.24963   0.00000  Uiso   1.00
H254   H     0.80802   0.88520   0.21787   0.00000  Uiso   1.00
H255   H     0.94961   0.83752   0.21948   0.00000  Uiso   1.00
H256   H     0.90304   0.93133   0.30326   0.00000  Uiso   1.00
H257   H     0.59277   0.88906   0.10790   0.00000  Uiso   1.00
H258   H     0.07295   0.78105   0.25755   0.00000  Uiso   1.00
H259   H     0.97473   0.97886   0.43419   0.00000  Uiso   1.00
H260   H     0.32045   0.88972   0.02222   0.00000  Uiso   1.00
H261   H     0.54856   0.85733   0.49726   0.00000  Uiso   1.00
H262   H     0.67592   0.80812   0.51420   0.00000  Uiso   1.00
H263   H     0.62936   0.90193   0.59798   0.00000  Uiso   1.00
H264   H     0.31908   0.85966   0.40261   0.00000  Uiso   1.00
H265   H     0.85082   0.75719   0.49676   0.00000  Uiso   1.00
H266   H     0.75259   0.95499   0.67339   0.00000  Uiso   1.00
H267   H     0.09832   0.86586   0.26143   0.00000  Uiso   1.00
O268   O     0.05037   0.73725   0.38328   0.00000  Uiso   1.00
O269   O     0.92149   0.99677   0.61501   0.00000  Uiso   1.00
O270   O     0.06310   0.87983   0.07452   0.00000  Uiso   1.00
N271   N     0.00317   0.78219   0.31151   0.00000  Uiso   1.00
N272   N     0.91136   0.96712   0.47666   0.00000  Uiso   1.00
N273   N     0.29967   0.88379   0.09151   0.00000  Uiso   1.00
N274   N     0.88364   0.76934   0.44022   0.00000  Uiso   1.00
N275   N     0.79183   0.95428   0.60537   0.00000  Uiso   1.00
N276   N     0.18014   0.87095   0.22023   0.00000  Uiso   1.00
C277   C     0.74858   0.62119   0.21812   0.00000  Uiso   1.00
C278   C     0.78952   0.65096   0.17851   0.00000  Uiso   1.00
C279   C     0.89053   0.66883   0.21689   0.00000  Uiso   1.00
C280   C     0.91254   0.69523   0.17009   0.00000  Uiso   1.00
C281   C     0.98777   0.74021   0.12106   0.00000  Uiso   1.00
C282   C     0.76423   0.59999   0.13299   0.00000  Uiso   1.00
C283   C     0.84398   0.57501   0.13310   0.00000  Uiso   1.00
C284   C     0.84468   0.55851   0.04798   0.00000  Uiso   1.00
C285   C     0.88058   0.52434   0.92830   0.00000  Uiso   1.00
C286   C     0.59566   0.62296   0.23914   0.00000  Uiso   1.00
C287   C     0.53365   0.61729   0.32850   0.00000  Uiso   1.00
C288   C     0.39241   0.62011   0.33274   0.00000  Uiso   1.00
C289   C     0.16658   0.62161   0.37787   0.00000  Uiso   1.00
C290   C     0.60801   0.63629   0.06675   0.00000  Uiso   1.00
C291   C     0.71317   0.65916   0.09629   0.00000  Uiso   1.00
C292   C     0.73501   0.68554   0.04942   0.00000  Uiso   1.00
C293   C     0.83605   0.70345   0.08773   0.00000  Uiso   1.00
C294   C     0.68789   0.60819   0.05077   0.00000  Uiso   1.00
C295   C     0.68846   0.59172   0.96563   0.00000  Uiso   1.00
C296   C     0.76819   0.56672   0.96561   0.00000  Uiso   1.00
C297   C     0.51930   0.63116   0.15692   0.00000  Uiso   1.00
C298   C     0.37813   0.63399   0.16102   0.00000  Uiso   1.00
C299   C     0.31593   0.62833   0.25037   0.00000  Uiso   1.00
H300   H     0.80802   0.61480   0.28213   0.00000  Uiso   1.00
H301   H     0.94961   0.66248   0.28052   0.00000  Uiso   1.00
H302   H     0.90304   0.56867   0.19674   0.00000  Uiso   1.00
H303   H     0.59277   0.61094   0.39210   0.00000  Uiso   1.00
H304   H     0.07295   0.71895   0.24245   0.00000  Uiso   1.00
H305   H     0.97473   0.52114   0.06581   0.00000  Uiso   1.00
H306   H     0.32045   0.61028   0.47778   0.00000  Uiso   1.00
H307   H     0.54856   0.64267   0.00274   0.00000  Uiso   1.00
H308   H     0.67592   0.69188   0.98580   0.00000  Uiso   1.00
H309   H     0.62936   0.59807   0.90202   0.00000  Uiso   1.00
H310   H     0.31908   0.64034   0.09739   0.00000  Uiso   1.00
H311   H     0.85082   0.74281   0.00324   0.00000  Uiso   1.00
H312   H     0.75259   0.54501   0.82661   0.00000  Uiso   1.00
H313   H     0.09832   0.63414   0.23857   0.00000  Uiso   1.00
O314   O     0.05037   0.76275   0.11672   0.00000  Uiso   1.00
O315   O     0.92149   0.50323   0.88499   0.00000  Uiso   1.00
O316   O     0.06310   0.62017   0.42548   0.00000  Uiso   1.00
N317   N     0.00317   0.71781   0.18849   0.00000  Uiso   1.00
N318   N     0.91136   0.53288   0.02334   0.00000  Uiso   1.00
N319   N     0.29967   0.61621   0.40849   0.00000  Uiso   1.00
N320   N     0.88364   0.73066   0.05978   0.00000  Uiso   1.00
N321   N     0.79183   0.54572   0.89463   0.00000  Uiso   1.00
N322   N     0.18014   0.62905   0.27977   0.00000  Uiso   1.00
C323   C     0.75142   0.37881   0.21812   0.00000  Uiso   1.00
C324   C     0.71048   0.34904   0.17851   0.00000  Uiso   1.00
C325   C     0.60947   0.33117   0.21689   0.00000  Uiso   1.00
C326   C     0.58746   0.30477   0.17009   0.00000  Uiso   1.00
C327   C     0.51223   0.25979   0.12106   0.00000  Uiso   1.00
C328   C     0.73577   0.40001   0.13299   0.00000  Uiso   1.00
C329   C     0.65602   0.42499   0.13310   0.00000  Uiso   1.00
C330   C     0.65532   0.44149   0.04798   0.00000  Uiso   1.00
C331   C     0.61942   0.47566   0.92830   0.00000  Uiso   1.00
C332   C     0.90434   0.37704   0.23914   0.00000  Uiso   1.00
C333   C     0.96635   0.38271   0.32850   0.00000  Uiso   1.00
C334   C     0.10759   0.37989   0.33274   0.00000  Uiso   1.00
C335   C     0.33342   0.37839   0.37787   0.00000  Uiso   1.00
C336   C     0.89199   0.36371   0.06675   0.00000  Uiso   1.00
C337   C     0.78683   0.34084   0.09629   0.00000  Uiso   1.00
C338   C     0.76499   0.31446   0.04942   0.00000  Uiso   1.00
C339   C     0.66395   0.29655   0.08773   0.00000  Uiso   1.00
C340   C     0.81211   0.39181   0.05077   0.00000  Uiso   1.00
C341   C     0.81154   0.40828   0.96563   0.00000  Uiso   1.00
C342   C     0.73181   0.43328   0.96561   0.00000  Uiso   1.00
C343   C     0.98070   0.36884   0.15692   0.00000  Uiso   1.00
C344   C     0.12187   0.36601   0.16102   0.00000  Uiso   1.00
C345   C     0.18407   0.37167   0.25037   0.00000  Uiso   1.00
H346   H     0.69198   0.38520   0.28213   0.00000  Uiso   1.00
H347   H     0.55039   0.33752   0.28052   0.00000  Uiso   1.00
H348   H     0.59696   0.43133   0.19674   0.00000  Uiso   1.00
H349   H     0.90723   0.38906   0.39210   0.00000  Uiso   1.00
H350   H     0.42705   0.28105   0.24245   0.00000  Uiso   1.00
H351   H     0.52527   0.47886   0.06581   0.00000  Uiso   1.00
H352   H     0.17955   0.38972   0.47778   0.00000  Uiso   1.00
H353   H     0.95144   0.35733   0.00274   0.00000  Uiso   1.00
H354   H     0.82408   0.30812   0.98580   0.00000  Uiso   1.00
H355   H     0.87064   0.40193   0.90202   0.00000  Uiso   1.00
H356   H     0.18092   0.35966   0.09739   0.00000  Uiso   1.00
H357   H     0.64918   0.25719   0.00324   0.00000  Uiso   1.00
H358   H     0.74741   0.45499   0.82661   0.00000  Uiso   1.00
H359   H     0.40168   0.36586   0.23857   0.00000  Uiso   1.00
O360   O     0.44963   0.23725   0.11672   0.00000  Uiso   1.00
O361   O     0.57851   0.49677   0.88499   0.00000  Uiso   1.00
O362   O     0.43690   0.37983   0.42548   0.00000  Uiso   1.00
N363   N     0.49683   0.28219   0.18849   0.00000  Uiso   1.00
N364   N     0.58864   0.46712   0.02334   0.00000  Uiso   1.00
N365   N     0.20033   0.38379   0.40849   0.00000  Uiso   1.00
N366   N     0.61636   0.26934   0.05978   0.00000  Uiso   1.00
N367   N     0.70817   0.45428   0.89463   0.00000  Uiso   1.00
N368   N     0.31986   0.37095   0.27977   0.00000  Uiso   1.00
