data_job_03968
_audit_creation_date              2018-12-19
_audit_creation_method            'Materials Studio'
_symmetry_space_group_name_H-M    'P1'
_symmetry_Int_Tables_number       1
_symmetry_cell_setting            triclinic
loop_
_symmetry_equiv_pos_as_xyz
  x,y,z
_cell_length_a                    26.4652
_cell_length_b                    26.4652
_cell_length_c                    7.3924
_cell_angle_alpha                 90.0000
_cell_angle_beta                  90.0000
_cell_angle_gamma                 90.0000
loop_
_atom_site_label
_atom_site_type_symbol
_atom_site_fract_x
_atom_site_fract_y
_atom_site_fract_z
_atom_site_U_iso_or_equiv
_atom_site_adp_type
_atom_site_occupancy
C1     C     0.74263   0.98625   0.61146   0.00000  Uiso   1.00
C2     C     0.78761   0.01775   0.67388   0.00000  Uiso   1.00
C3     C     0.81440   0.05184   0.56830   0.00000  Uiso   1.00
C4     C     0.85435   0.07693   0.65048   0.00000  Uiso   1.00
C5     C     0.92229   0.12715   0.71982   0.00000  Uiso   1.00
C6     C     0.75672   0.93133   0.64820   0.00000  Uiso   1.00
C7     C     0.75752   0.89276   0.52102   0.00000  Uiso   1.00
C8     C     0.77146   0.84510   0.58160   0.00000  Uiso   1.00
C9     C     0.79140   0.76114   0.61109   0.00000  Uiso   1.00
C10    C     0.69953   0.99865   0.74096   0.00000  Uiso   1.00
C11    C     0.65224   0.01667   0.69178   0.00000  Uiso   1.00
C12    C     0.61802   0.02567   0.83046   0.00000  Uiso   1.00
C13    C     0.54916   0.04624   0.00397   0.00000  Uiso   1.00
C14    C     0.76594   0.97017   0.94517   0.00000  Uiso   1.00
C15    C     0.80028   0.00902   0.85515   0.00000  Uiso   1.00
C16    C     0.84019   0.03406   0.93751   0.00000  Uiso   1.00
C17    C     0.86703   0.06818   0.83207   0.00000  Uiso   1.00
C18    C     0.76938   0.92260   0.82946   0.00000  Uiso   1.00
C19    C     0.78332   0.87498   0.89024   0.00000  Uiso   1.00
C20    C     0.78414   0.83635   0.76319   0.00000  Uiso   1.00
C21    C     0.71219   0.98992   0.92223   0.00000  Uiso   1.00
C22    C     0.67804   0.99889   0.06100   0.00000  Uiso   1.00
C23    C     0.63070   0.01692   0.01204   0.00000  Uiso   1.00
H24    H     0.73277   0.99304   0.47034   0.00000  Uiso   1.00
H25    H     0.80459   0.05859   0.42802   0.00000  Uiso   1.00
H26    H     0.74772   0.89953   0.38077   0.00000  Uiso   1.00
H27    H     0.64245   0.02342   0.55150   0.00000  Uiso   1.00
H28    H     0.88981   0.12739   0.46103   0.00000  Uiso   1.00
H29    H     0.76988   0.79201   0.36140   0.00000  Uiso   1.00
H30    H     0.54790   0.05325   0.72142   0.00000  Uiso   1.00
H31    H     0.77580   0.96337   0.08630   0.00000  Uiso   1.00
H32    H     0.84998   0.02729   0.07779   0.00000  Uiso   1.00
H33    H     0.79311   0.86824   0.03052   0.00000  Uiso   1.00
H34    H     0.68785   0.99213   0.20126   0.00000  Uiso   1.00
H35    H     0.92666   0.10199   0.98840   0.00000  Uiso   1.00
H36    H     0.80672   0.76660   0.88876   0.00000  Uiso   1.00
H37    H     0.58475   0.02785   0.24879   0.00000  Uiso   1.00
O38    O     0.95627   0.15726   0.70798   0.00000  Uiso   1.00
O39    O     0.79891   0.71725   0.57727   0.00000  Uiso   1.00
O40    O     0.50769   0.06000   0.04962   0.00000  Uiso   1.00
N41    N     0.88830   0.11265   0.58632   0.00000  Uiso   1.00
N42    N     0.77617   0.79909   0.49316   0.00000  Uiso   1.00
N43    N     0.56864   0.04332   0.82975   0.00000  Uiso   1.00
N44    N     0.90812   0.09898   0.87010   0.00000  Uiso   1.00
N45    N     0.79600   0.78542   0.77694   0.00000  Uiso   1.00
N46    N     0.58847   0.02965   0.11353   0.00000  Uiso   1.00
C47    C     0.24263   0.48625   0.11146   0.00000  Uiso   1.00
C48    C     0.28761   0.51775   0.17388   0.00000  Uiso   1.00
C49    C     0.31440   0.55184   0.06830   0.00000  Uiso   1.00
C50    C     0.35435   0.57693   0.15048   0.00000  Uiso   1.00
C51    C     0.42229   0.62715   0.21982   0.00000  Uiso   1.00
C52    C     0.25672   0.43133   0.14820   0.00000  Uiso   1.00
C53    C     0.25752   0.39276   0.02102   0.00000  Uiso   1.00
C54    C     0.27146   0.34510   0.08160   0.00000  Uiso   1.00
C55    C     0.29140   0.26114   0.11109   0.00000  Uiso   1.00
C56    C     0.19953   0.49865   0.24096   0.00000  Uiso   1.00
C57    C     0.15224   0.51667   0.19178   0.00000  Uiso   1.00
C58    C     0.11802   0.52567   0.33046   0.00000  Uiso   1.00
C59    C     0.04916   0.54624   0.50397   0.00000  Uiso   1.00
C60    C     0.26594   0.47017   0.44517   0.00000  Uiso   1.00
C61    C     0.30028   0.50902   0.35515   0.00000  Uiso   1.00
C62    C     0.34019   0.53406   0.43751   0.00000  Uiso   1.00
C63    C     0.36703   0.56818   0.33207   0.00000  Uiso   1.00
C64    C     0.26938   0.42260   0.32946   0.00000  Uiso   1.00
C65    C     0.28332   0.37498   0.39024   0.00000  Uiso   1.00
C66    C     0.28414   0.33635   0.26319   0.00000  Uiso   1.00
C67    C     0.21219   0.48992   0.42223   0.00000  Uiso   1.00
C68    C     0.17804   0.49889   0.56100   0.00000  Uiso   1.00
C69    C     0.13070   0.51692   0.51204   0.00000  Uiso   1.00
H70    H     0.23277   0.49304   0.97034   0.00000  Uiso   1.00
H71    H     0.30459   0.55859   0.92802   0.00000  Uiso   1.00
H72    H     0.24772   0.39953   0.88077   0.00000  Uiso   1.00
H73    H     0.14245   0.52342   0.05150   0.00000  Uiso   1.00
H74    H     0.38981   0.62739   0.96103   0.00000  Uiso   1.00
H75    H     0.26988   0.29201   0.86140   0.00000  Uiso   1.00
H76    H     0.04790   0.55325   0.22142   0.00000  Uiso   1.00
H77    H     0.27580   0.46337   0.58630   0.00000  Uiso   1.00
H78    H     0.34998   0.52729   0.57779   0.00000  Uiso   1.00
H79    H     0.29311   0.36824   0.53052   0.00000  Uiso   1.00
H80    H     0.18785   0.49213   0.70126   0.00000  Uiso   1.00
H81    H     0.42666   0.60199   0.48840   0.00000  Uiso   1.00
H82    H     0.30672   0.26660   0.38876   0.00000  Uiso   1.00
H83    H     0.08475   0.52785   0.74879   0.00000  Uiso   1.00
O84    O     0.45627   0.65726   0.20798   0.00000  Uiso   1.00
O85    O     0.29891   0.21725   0.07727   0.00000  Uiso   1.00
O86    O     0.00769   0.56000   0.54962   0.00000  Uiso   1.00
N87    N     0.38830   0.61265   0.08632   0.00000  Uiso   1.00
N88    N     0.27617   0.29909   0.99316   0.00000  Uiso   1.00
N89    N     0.06864   0.54332   0.32975   0.00000  Uiso   1.00
N90    N     0.40812   0.59898   0.37010   0.00000  Uiso   1.00
N91    N     0.29600   0.28542   0.27694   0.00000  Uiso   1.00
N92    N     0.08847   0.52965   0.61353   0.00000  Uiso   1.00
C93    C     0.25737   0.01375   0.61146   0.00000  Uiso   1.00
C94    C     0.21239   0.98225   0.67388   0.00000  Uiso   1.00
C95    C     0.18560   0.94816   0.56830   0.00000  Uiso   1.00
C96    C     0.14565   0.92307   0.65048   0.00000  Uiso   1.00
C97    C     0.07771   0.87285   0.71982   0.00000  Uiso   1.00
C98    C     0.24328   0.06867   0.64820   0.00000  Uiso   1.00
C99    C     0.24248   0.10724   0.52102   0.00000  Uiso   1.00
C100   C     0.22854   0.15490   0.58160   0.00000  Uiso   1.00
C101   C     0.20860   0.23886   0.61109   0.00000  Uiso   1.00
C102   C     0.30047   0.00135   0.74096   0.00000  Uiso   1.00
C103   C     0.34776   0.98333   0.69178   0.00000  Uiso   1.00
C104   C     0.38198   0.97433   0.83046   0.00000  Uiso   1.00
C105   C     0.45084   0.95376   0.00397   0.00000  Uiso   1.00
C106   C     0.23406   0.02983   0.94517   0.00000  Uiso   1.00
C107   C     0.19972   0.99098   0.85515   0.00000  Uiso   1.00
C108   C     0.15981   0.96594   0.93751   0.00000  Uiso   1.00
C109   C     0.13297   0.93182   0.83207   0.00000  Uiso   1.00
C110   C     0.23062   0.07740   0.82946   0.00000  Uiso   1.00
C111   C     0.21668   0.12502   0.89024   0.00000  Uiso   1.00
C112   C     0.21586   0.16365   0.76319   0.00000  Uiso   1.00
C113   C     0.28781   0.01008   0.92223   0.00000  Uiso   1.00
C114   C     0.32196   0.00111   0.06100   0.00000  Uiso   1.00
C115   C     0.36930   0.98308   0.01204   0.00000  Uiso   1.00
H116   H     0.26723   0.00696   0.47034   0.00000  Uiso   1.00
H117   H     0.19541   0.94141   0.42802   0.00000  Uiso   1.00
H118   H     0.25228   0.10047   0.38077   0.00000  Uiso   1.00
H119   H     0.35755   0.97658   0.55150   0.00000  Uiso   1.00
H120   H     0.11019   0.87261   0.46103   0.00000  Uiso   1.00
H121   H     0.23012   0.20799   0.36140   0.00000  Uiso   1.00
H122   H     0.45210   0.94675   0.72142   0.00000  Uiso   1.00
H123   H     0.22420   0.03663   0.08630   0.00000  Uiso   1.00
H124   H     0.15002   0.97271   0.07779   0.00000  Uiso   1.00
H125   H     0.20689   0.13176   0.03052   0.00000  Uiso   1.00
H126   H     0.31215   0.00787   0.20126   0.00000  Uiso   1.00
H127   H     0.07334   0.89801   0.98840   0.00000  Uiso   1.00
H128   H     0.19328   0.23340   0.88876   0.00000  Uiso   1.00
H129   H     0.41525   0.97215   0.24879   0.00000  Uiso   1.00
O130   O     0.04373   0.84274   0.70798   0.00000  Uiso   1.00
O131   O     0.20109   0.28275   0.57727   0.00000  Uiso   1.00
O132   O     0.49231   0.94000   0.04962   0.00000  Uiso   1.00
N133   N     0.11170   0.88735   0.58632   0.00000  Uiso   1.00
N134   N     0.22383   0.20091   0.49316   0.00000  Uiso   1.00
N135   N     0.43136   0.95668   0.82975   0.00000  Uiso   1.00
N136   N     0.09188   0.90102   0.87010   0.00000  Uiso   1.00
N137   N     0.20400   0.21458   0.77694   0.00000  Uiso   1.00
N138   N     0.41153   0.97035   0.11353   0.00000  Uiso   1.00
C139   C     0.75737   0.51375   0.11146   0.00000  Uiso   1.00
C140   C     0.71239   0.48225   0.17388   0.00000  Uiso   1.00
C141   C     0.68560   0.44816   0.06830   0.00000  Uiso   1.00
C142   C     0.64565   0.42307   0.15048   0.00000  Uiso   1.00
C143   C     0.57771   0.37285   0.21982   0.00000  Uiso   1.00
C144   C     0.74328   0.56867   0.14820   0.00000  Uiso   1.00
C145   C     0.74248   0.60724   0.02102   0.00000  Uiso   1.00
C146   C     0.72854   0.65490   0.08160   0.00000  Uiso   1.00
C147   C     0.70860   0.73886   0.11109   0.00000  Uiso   1.00
C148   C     0.80047   0.50135   0.24096   0.00000  Uiso   1.00
C149   C     0.84776   0.48333   0.19178   0.00000  Uiso   1.00
C150   C     0.88198   0.47433   0.33046   0.00000  Uiso   1.00
C151   C     0.95084   0.45376   0.50397   0.00000  Uiso   1.00
C152   C     0.73406   0.52983   0.44517   0.00000  Uiso   1.00
C153   C     0.69972   0.49098   0.35515   0.00000  Uiso   1.00
C154   C     0.65981   0.46594   0.43751   0.00000  Uiso   1.00
C155   C     0.63297   0.43182   0.33207   0.00000  Uiso   1.00
C156   C     0.73062   0.57740   0.32946   0.00000  Uiso   1.00
C157   C     0.71668   0.62502   0.39024   0.00000  Uiso   1.00
C158   C     0.71586   0.66365   0.26319   0.00000  Uiso   1.00
C159   C     0.78781   0.51008   0.42223   0.00000  Uiso   1.00
C160   C     0.82196   0.50111   0.56100   0.00000  Uiso   1.00
C161   C     0.86930   0.48308   0.51204   0.00000  Uiso   1.00
H162   H     0.76723   0.50696   0.97034   0.00000  Uiso   1.00
H163   H     0.69541   0.44141   0.92802   0.00000  Uiso   1.00
H164   H     0.75228   0.60047   0.88077   0.00000  Uiso   1.00
H165   H     0.85755   0.47658   0.05150   0.00000  Uiso   1.00
H166   H     0.61019   0.37261   0.96103   0.00000  Uiso   1.00
H167   H     0.73012   0.70799   0.86140   0.00000  Uiso   1.00
H168   H     0.95210   0.44675   0.22142   0.00000  Uiso   1.00
H169   H     0.72420   0.53663   0.58630   0.00000  Uiso   1.00
H170   H     0.65002   0.47271   0.57779   0.00000  Uiso   1.00
H171   H     0.70689   0.63176   0.53052   0.00000  Uiso   1.00
H172   H     0.81215   0.50787   0.70126   0.00000  Uiso   1.00
H173   H     0.57334   0.39801   0.48840   0.00000  Uiso   1.00
H174   H     0.69328   0.73340   0.38876   0.00000  Uiso   1.00
H175   H     0.91525   0.47215   0.74879   0.00000  Uiso   1.00
O176   O     0.54373   0.34274   0.20798   0.00000  Uiso   1.00
O177   O     0.70109   0.78275   0.07727   0.00000  Uiso   1.00
O178   O     0.99231   0.44000   0.54962   0.00000  Uiso   1.00
N179   N     0.61170   0.38735   0.08632   0.00000  Uiso   1.00
N180   N     0.72383   0.70091   0.99316   0.00000  Uiso   1.00
N181   N     0.93136   0.45668   0.32975   0.00000  Uiso   1.00
N182   N     0.59188   0.40102   0.37010   0.00000  Uiso   1.00
N183   N     0.70400   0.71458   0.27694   0.00000  Uiso   1.00
N184   N     0.91153   0.47035   0.61353   0.00000  Uiso   1.00
C185   C     0.98625   0.25737   0.38854   0.00000  Uiso   1.00
C186   C     0.01775   0.21239   0.32612   0.00000  Uiso   1.00
C187   C     0.05184   0.18560   0.43170   0.00000  Uiso   1.00
C188   C     0.07693   0.14565   0.34952   0.00000  Uiso   1.00
C189   C     0.12715   0.07771   0.28018   0.00000  Uiso   1.00
C190   C     0.93133   0.24328   0.35180   0.00000  Uiso   1.00
C191   C     0.89276   0.24248   0.47898   0.00000  Uiso   1.00
C192   C     0.84510   0.22854   0.41840   0.00000  Uiso   1.00
C193   C     0.76114   0.20860   0.38891   0.00000  Uiso   1.00
C194   C     0.99865   0.30047   0.25904   0.00000  Uiso   1.00
C195   C     0.01667   0.34776   0.30822   0.00000  Uiso   1.00
C196   C     0.02567   0.38198   0.16954   0.00000  Uiso   1.00
C197   C     0.04624   0.45084   0.99603   0.00000  Uiso   1.00
C198   C     0.97017   0.23406   0.05483   0.00000  Uiso   1.00
C199   C     0.00902   0.19972   0.14485   0.00000  Uiso   1.00
C200   C     0.03406   0.15981   0.06249   0.00000  Uiso   1.00
C201   C     0.06818   0.13297   0.16793   0.00000  Uiso   1.00
C202   C     0.92260   0.23062   0.17054   0.00000  Uiso   1.00
C203   C     0.87498   0.21668   0.10976   0.00000  Uiso   1.00
C204   C     0.83635   0.21586   0.23681   0.00000  Uiso   1.00
C205   C     0.98992   0.28781   0.07777   0.00000  Uiso   1.00
C206   C     0.99889   0.32196   0.93900   0.00000  Uiso   1.00
C207   C     0.01692   0.36930   0.98796   0.00000  Uiso   1.00
H208   H     0.99304   0.26723   0.52966   0.00000  Uiso   1.00
H209   H     0.05859   0.19541   0.57198   0.00000  Uiso   1.00
H210   H     0.89953   0.25228   0.61923   0.00000  Uiso   1.00
H211   H     0.02342   0.35755   0.44850   0.00000  Uiso   1.00
H212   H     0.12739   0.11019   0.53897   0.00000  Uiso   1.00
H213   H     0.79201   0.23012   0.63860   0.00000  Uiso   1.00
H214   H     0.05325   0.45210   0.27858   0.00000  Uiso   1.00
H215   H     0.96337   0.22420   0.91370   0.00000  Uiso   1.00
H216   H     0.02729   0.15002   0.92221   0.00000  Uiso   1.00
H217   H     0.86824   0.20689   0.96948   0.00000  Uiso   1.00
H218   H     0.99213   0.31215   0.79874   0.00000  Uiso   1.00
H219   H     0.10199   0.07334   0.01160   0.00000  Uiso   1.00
H220   H     0.76660   0.19328   0.11124   0.00000  Uiso   1.00
H221   H     0.02785   0.41525   0.75121   0.00000  Uiso   1.00
O222   O     0.15726   0.04373   0.29202   0.00000  Uiso   1.00
O223   O     0.71725   0.20109   0.42273   0.00000  Uiso   1.00
O224   O     0.06000   0.49231   0.95038   0.00000  Uiso   1.00
N225   N     0.11265   0.11170   0.41368   0.00000  Uiso   1.00
N226   N     0.79909   0.22383   0.50684   0.00000  Uiso   1.00
N227   N     0.04332   0.43136   0.17025   0.00000  Uiso   1.00
N228   N     0.09898   0.09188   0.12990   0.00000  Uiso   1.00
N229   N     0.78542   0.20400   0.22306   0.00000  Uiso   1.00
N230   N     0.02965   0.41153   0.88647   0.00000  Uiso   1.00
C231   C     0.48625   0.75737   0.88854   0.00000  Uiso   1.00
C232   C     0.51775   0.71239   0.82612   0.00000  Uiso   1.00
C233   C     0.55184   0.68560   0.93170   0.00000  Uiso   1.00
C234   C     0.57693   0.64565   0.84952   0.00000  Uiso   1.00
C235   C     0.62715   0.57771   0.78018   0.00000  Uiso   1.00
C236   C     0.43133   0.74328   0.85180   0.00000  Uiso   1.00
C237   C     0.39276   0.74248   0.97898   0.00000  Uiso   1.00
C238   C     0.34510   0.72854   0.91840   0.00000  Uiso   1.00
C239   C     0.26114   0.70860   0.88891   0.00000  Uiso   1.00
C240   C     0.49865   0.80047   0.75904   0.00000  Uiso   1.00
C241   C     0.51667   0.84776   0.80822   0.00000  Uiso   1.00
C242   C     0.52567   0.88198   0.66954   0.00000  Uiso   1.00
C243   C     0.54624   0.95084   0.49603   0.00000  Uiso   1.00
C244   C     0.47017   0.73406   0.55483   0.00000  Uiso   1.00
C245   C     0.50902   0.69972   0.64485   0.00000  Uiso   1.00
C246   C     0.53406   0.65981   0.56249   0.00000  Uiso   1.00
C247   C     0.56818   0.63297   0.66793   0.00000  Uiso   1.00
C248   C     0.42260   0.73062   0.67054   0.00000  Uiso   1.00
C249   C     0.37498   0.71668   0.60976   0.00000  Uiso   1.00
C250   C     0.33635   0.71586   0.73681   0.00000  Uiso   1.00
C251   C     0.48992   0.78781   0.57777   0.00000  Uiso   1.00
C252   C     0.49889   0.82196   0.43900   0.00000  Uiso   1.00
C253   C     0.51692   0.86930   0.48796   0.00000  Uiso   1.00
H254   H     0.49304   0.76723   0.02966   0.00000  Uiso   1.00
H255   H     0.55859   0.69541   0.07198   0.00000  Uiso   1.00
H256   H     0.39953   0.75228   0.11923   0.00000  Uiso   1.00
H257   H     0.52342   0.85755   0.94850   0.00000  Uiso   1.00
H258   H     0.62739   0.61019   0.03897   0.00000  Uiso   1.00
H259   H     0.29201   0.73012   0.13860   0.00000  Uiso   1.00
H260   H     0.55325   0.95210   0.77858   0.00000  Uiso   1.00
H261   H     0.46337   0.72420   0.41370   0.00000  Uiso   1.00
H262   H     0.52729   0.65002   0.42221   0.00000  Uiso   1.00
H263   H     0.36824   0.70689   0.46948   0.00000  Uiso   1.00
H264   H     0.49213   0.81215   0.29874   0.00000  Uiso   1.00
H265   H     0.60199   0.57334   0.51160   0.00000  Uiso   1.00
H266   H     0.26660   0.69328   0.61124   0.00000  Uiso   1.00
H267   H     0.52785   0.91525   0.25121   0.00000  Uiso   1.00
O268   O     0.65726   0.54373   0.79202   0.00000  Uiso   1.00
O269   O     0.21725   0.70109   0.92273   0.00000  Uiso   1.00
O270   O     0.56000   0.99231   0.45038   0.00000  Uiso   1.00
N271   N     0.61265   0.61170   0.91368   0.00000  Uiso   1.00
N272   N     0.29909   0.72383   0.00684   0.00000  Uiso   1.00
N273   N     0.54332   0.93136   0.67025   0.00000  Uiso   1.00
N274   N     0.59898   0.59188   0.62990   0.00000  Uiso   1.00
N275   N     0.28542   0.70400   0.72306   0.00000  Uiso   1.00
N276   N     0.52965   0.91153   0.38647   0.00000  Uiso   1.00
C277   C     0.01375   0.74263   0.38854   0.00000  Uiso   1.00
C278   C     0.98225   0.78761   0.32612   0.00000  Uiso   1.00
C279   C     0.94816   0.81440   0.43170   0.00000  Uiso   1.00
C280   C     0.92307   0.85435   0.34952   0.00000  Uiso   1.00
C281   C     0.87285   0.92229   0.28018   0.00000  Uiso   1.00
C282   C     0.06867   0.75672   0.35180   0.00000  Uiso   1.00
C283   C     0.10724   0.75752   0.47898   0.00000  Uiso   1.00
C284   C     0.15490   0.77146   0.41840   0.00000  Uiso   1.00
C285   C     0.23886   0.79140   0.38891   0.00000  Uiso   1.00
C286   C     0.00135   0.69953   0.25904   0.00000  Uiso   1.00
C287   C     0.98333   0.65224   0.30822   0.00000  Uiso   1.00
C288   C     0.97433   0.61802   0.16954   0.00000  Uiso   1.00
C289   C     0.95376   0.54916   0.99603   0.00000  Uiso   1.00
C290   C     0.02983   0.76594   0.05483   0.00000  Uiso   1.00
C291   C     0.99098   0.80028   0.14485   0.00000  Uiso   1.00
C292   C     0.96594   0.84019   0.06249   0.00000  Uiso   1.00
C293   C     0.93182   0.86703   0.16793   0.00000  Uiso   1.00
C294   C     0.07740   0.76938   0.17054   0.00000  Uiso   1.00
C295   C     0.12502   0.78332   0.10976   0.00000  Uiso   1.00
C296   C     0.16365   0.78414   0.23681   0.00000  Uiso   1.00
C297   C     0.01008   0.71219   0.07777   0.00000  Uiso   1.00
C298   C     0.00111   0.67804   0.93900   0.00000  Uiso   1.00
C299   C     0.98308   0.63070   0.98796   0.00000  Uiso   1.00
H300   H     0.00696   0.73277   0.52966   0.00000  Uiso   1.00
H301   H     0.94141   0.80459   0.57198   0.00000  Uiso   1.00
H302   H     0.10047   0.74772   0.61923   0.00000  Uiso   1.00
H303   H     0.97658   0.64245   0.44850   0.00000  Uiso   1.00
H304   H     0.87261   0.88981   0.53897   0.00000  Uiso   1.00
H305   H     0.20799   0.76988   0.63860   0.00000  Uiso   1.00
H306   H     0.94675   0.54790   0.27858   0.00000  Uiso   1.00
H307   H     0.03663   0.77580   0.91370   0.00000  Uiso   1.00
H308   H     0.97271   0.84998   0.92221   0.00000  Uiso   1.00
H309   H     0.13176   0.79311   0.96948   0.00000  Uiso   1.00
H310   H     0.00787   0.68785   0.79874   0.00000  Uiso   1.00
H311   H     0.89801   0.92666   0.01160   0.00000  Uiso   1.00
H312   H     0.23340   0.80672   0.11124   0.00000  Uiso   1.00
H313   H     0.97215   0.58475   0.75121   0.00000  Uiso   1.00
O314   O     0.84274   0.95627   0.29202   0.00000  Uiso   1.00
O315   O     0.28275   0.79891   0.42273   0.00000  Uiso   1.00
O316   O     0.94000   0.50769   0.95038   0.00000  Uiso   1.00
N317   N     0.88735   0.88830   0.41368   0.00000  Uiso   1.00
N318   N     0.20091   0.77617   0.50684   0.00000  Uiso   1.00
N319   N     0.95668   0.56864   0.17025   0.00000  Uiso   1.00
N320   N     0.90102   0.90812   0.12990   0.00000  Uiso   1.00
N321   N     0.21458   0.79600   0.22306   0.00000  Uiso   1.00
N322   N     0.97035   0.58847   0.88647   0.00000  Uiso   1.00
C323   C     0.51375   0.24263   0.88854   0.00000  Uiso   1.00
C324   C     0.48225   0.28761   0.82612   0.00000  Uiso   1.00
C325   C     0.44816   0.31440   0.93170   0.00000  Uiso   1.00
C326   C     0.42307   0.35435   0.84952   0.00000  Uiso   1.00
C327   C     0.37285   0.42229   0.78018   0.00000  Uiso   1.00
C328   C     0.56867   0.25672   0.85180   0.00000  Uiso   1.00
C329   C     0.60724   0.25752   0.97898   0.00000  Uiso   1.00
C330   C     0.65490   0.27146   0.91840   0.00000  Uiso   1.00
C331   C     0.73886   0.29140   0.88891   0.00000  Uiso   1.00
C332   C     0.50135   0.19953   0.75904   0.00000  Uiso   1.00
C333   C     0.48333   0.15224   0.80822   0.00000  Uiso   1.00
C334   C     0.47433   0.11802   0.66954   0.00000  Uiso   1.00
C335   C     0.45376   0.04916   0.49603   0.00000  Uiso   1.00
C336   C     0.52983   0.26594   0.55483   0.00000  Uiso   1.00
C337   C     0.49098   0.30028   0.64485   0.00000  Uiso   1.00
C338   C     0.46594   0.34019   0.56249   0.00000  Uiso   1.00
C339   C     0.43182   0.36703   0.66793   0.00000  Uiso   1.00
C340   C     0.57740   0.26938   0.67054   0.00000  Uiso   1.00
C341   C     0.62502   0.28332   0.60976   0.00000  Uiso   1.00
C342   C     0.66365   0.28414   0.73681   0.00000  Uiso   1.00
C343   C     0.51008   0.21219   0.57777   0.00000  Uiso   1.00
C344   C     0.50111   0.17804   0.43900   0.00000  Uiso   1.00
C345   C     0.48308   0.13070   0.48796   0.00000  Uiso   1.00
H346   H     0.50696   0.23277   0.02966   0.00000  Uiso   1.00
H347   H     0.44141   0.30459   0.07198   0.00000  Uiso   1.00
H348   H     0.60047   0.24772   0.11923   0.00000  Uiso   1.00
H349   H     0.47658   0.14245   0.94850   0.00000  Uiso   1.00
H350   H     0.37261   0.38981   0.03897   0.00000  Uiso   1.00
H351   H     0.70799   0.26988   0.13860   0.00000  Uiso   1.00
H352   H     0.44675   0.04790   0.77858   0.00000  Uiso   1.00
H353   H     0.53663   0.27580   0.41370   0.00000  Uiso   1.00
H354   H     0.47271   0.34998   0.42221   0.00000  Uiso   1.00
H355   H     0.63176   0.29311   0.46948   0.00000  Uiso   1.00
H356   H     0.50787   0.18785   0.29874   0.00000  Uiso   1.00
H357   H     0.39801   0.42666   0.51160   0.00000  Uiso   1.00
H358   H     0.73340   0.30672   0.61124   0.00000  Uiso   1.00
H359   H     0.47215   0.08475   0.25121   0.00000  Uiso   1.00
O360   O     0.34274   0.45627   0.79202   0.00000  Uiso   1.00
O361   O     0.78275   0.29891   0.92273   0.00000  Uiso   1.00
O362   O     0.44000   0.00769   0.45038   0.00000  Uiso   1.00
N363   N     0.38735   0.38830   0.91368   0.00000  Uiso   1.00
N364   N     0.70091   0.27617   0.00684   0.00000  Uiso   1.00
N365   N     0.45668   0.06864   0.67025   0.00000  Uiso   1.00
N366   N     0.40102   0.40812   0.62990   0.00000  Uiso   1.00
N367   N     0.71458   0.29600   0.72306   0.00000  Uiso   1.00
N368   N     0.47035   0.08847   0.38647   0.00000  Uiso   1.00
