data_job_02453
_audit_creation_date              2018-12-19
_audit_creation_method            'Materials Studio'
_symmetry_space_group_name_H-M    'P1'
_symmetry_Int_Tables_number       1
_symmetry_cell_setting            triclinic
loop_
_symmetry_equiv_pos_as_xyz
  x,y,z
_cell_length_a                    22.9511
_cell_length_b                    9.4200
_cell_length_c                    12.7753
_cell_angle_alpha                 90.0000
_cell_angle_beta                  90.0000
_cell_angle_gamma                 90.0000
loop_
_atom_site_label
_atom_site_type_symbol
_atom_site_fract_x
_atom_site_fract_y
_atom_site_fract_z
_atom_site_U_iso_or_equiv
_atom_site_adp_type
_atom_site_occupancy
C1     C     0.65862   0.53748   0.65950   0.00000  Uiso   1.00
C2     C     0.70335   0.44338   0.71407   0.00000  Uiso   1.00
C3     C     0.76115   0.42695   0.68455   0.00000  Uiso   1.00
C4     C     0.79501   0.33596   0.74461   0.00000  Uiso   1.00
C5     C     0.86797   0.20073   0.81616   0.00000  Uiso   1.00
C6     C     0.60800   0.44041   0.63030   0.00000  Uiso   1.00
C7     C     0.58562   0.42150   0.53034   0.00000  Uiso   1.00
C8     C     0.53921   0.32802   0.51989   0.00000  Uiso   1.00
C9     C     0.46411   0.18827   0.46140   0.00000  Uiso   1.00
C10    C     0.63530   0.63793   0.74320   0.00000  Uiso   1.00
C11    C     0.63587   0.78509   0.73817   0.00000  Uiso   1.00
C12    C     0.61244   0.85790   0.82278   0.00000  Uiso   1.00
C13    C     0.57974   0.02481   0.93959   0.00000  Uiso   1.00
C14    C     0.61599   0.40511   0.81867   0.00000  Uiso   1.00
C15    C     0.68019   0.37148   0.80052   0.00000  Uiso   1.00
C16    C     0.71397   0.28050   0.86065   0.00000  Uiso   1.00
C17    C     0.77181   0.26393   0.83123   0.00000  Uiso   1.00
C18    C     0.58484   0.36852   0.71675   0.00000  Uiso   1.00
C19    C     0.53845   0.27505   0.70645   0.00000  Uiso   1.00
C20    C     0.51601   0.25600   0.60650   0.00000  Uiso   1.00
C21    C     0.61215   0.56603   0.82967   0.00000  Uiso   1.00
C22    C     0.58870   0.63863   0.91429   0.00000  Uiso   1.00
C23    C     0.58924   0.78587   0.90939   0.00000  Uiso   1.00
H24    H     0.67665   0.59346   0.59219   0.00000  Uiso   1.00
H25    H     0.77905   0.48260   0.61763   0.00000  Uiso   1.00
H26    H     0.60355   0.47717   0.46345   0.00000  Uiso   1.00
H27    H     0.65380   0.84069   0.67126   0.00000  Uiso   1.00
H28    H     0.88236   0.32795   0.68394   0.00000  Uiso   1.00
H29    H     0.51229   0.31653   0.35886   0.00000  Uiso   1.00
H30    H     0.61825   0.08309   0.79705   0.00000  Uiso   1.00
H31    H     0.59795   0.34913   0.88599   0.00000  Uiso   1.00
H32    H     0.69604   0.22487   0.92755   0.00000  Uiso   1.00
H33    H     0.52053   0.21944   0.77337   0.00000  Uiso   1.00
H34    H     0.57079   0.58296   0.98118   0.00000  Uiso   1.00
H35    H     0.81499   0.11876   0.93548   0.00000  Uiso   1.00
H36    H     0.44491   0.10735   0.61040   0.00000  Uiso   1.00
H37    H     0.55088   0.87390   0.04860   0.00000  Uiso   1.00
O38    O     0.91461   0.14598   0.83173   0.00000  Uiso   1.00
O39    O     0.42909   0.13103   0.40524   0.00000  Uiso   1.00
O40    O     0.56811   0.13673   0.98014   0.00000  Uiso   1.00
N41    N     0.85305   0.29579   0.73745   0.00000  Uiso   1.00
N42    N     0.50706   0.28510   0.43351   0.00000  Uiso   1.00
N43    N     0.60611   0.00177   0.84318   0.00000  Uiso   1.00
N44    N     0.81679   0.18323   0.87280   0.00000  Uiso   1.00
N45    N     0.47080   0.17254   0.56887   0.00000  Uiso   1.00
N46    N     0.56985   0.88921   0.97853   0.00000  Uiso   1.00
C47    C     0.34138   0.46252   0.65950   0.00000  Uiso   1.00
C48    C     0.29665   0.55662   0.71407   0.00000  Uiso   1.00
C49    C     0.23885   0.57305   0.68455   0.00000  Uiso   1.00
C50    C     0.20499   0.66404   0.74461   0.00000  Uiso   1.00
C51    C     0.13203   0.79927   0.81616   0.00000  Uiso   1.00
C52    C     0.39200   0.55959   0.63030   0.00000  Uiso   1.00
C53    C     0.41438   0.57850   0.53034   0.00000  Uiso   1.00
C54    C     0.46079   0.67198   0.51989   0.00000  Uiso   1.00
C55    C     0.53589   0.81173   0.46140   0.00000  Uiso   1.00
C56    C     0.36470   0.36207   0.74320   0.00000  Uiso   1.00
C57    C     0.36413   0.21491   0.73817   0.00000  Uiso   1.00
C58    C     0.38756   0.14210   0.82278   0.00000  Uiso   1.00
C59    C     0.42026   0.97519   0.93959   0.00000  Uiso   1.00
C60    C     0.38401   0.59489   0.81867   0.00000  Uiso   1.00
C61    C     0.31981   0.62852   0.80052   0.00000  Uiso   1.00
C62    C     0.28603   0.71950   0.86065   0.00000  Uiso   1.00
C63    C     0.22819   0.73607   0.83123   0.00000  Uiso   1.00
C64    C     0.41516   0.63148   0.71675   0.00000  Uiso   1.00
C65    C     0.46155   0.72495   0.70645   0.00000  Uiso   1.00
C66    C     0.48399   0.74400   0.60650   0.00000  Uiso   1.00
C67    C     0.38785   0.43397   0.82967   0.00000  Uiso   1.00
C68    C     0.41130   0.36137   0.91429   0.00000  Uiso   1.00
C69    C     0.41076   0.21413   0.90939   0.00000  Uiso   1.00
H70    H     0.32335   0.40654   0.59219   0.00000  Uiso   1.00
H71    H     0.22095   0.51740   0.61763   0.00000  Uiso   1.00
H72    H     0.39645   0.52283   0.46345   0.00000  Uiso   1.00
H73    H     0.34620   0.15931   0.67126   0.00000  Uiso   1.00
H74    H     0.11764   0.67205   0.68394   0.00000  Uiso   1.00
H75    H     0.48771   0.68347   0.35886   0.00000  Uiso   1.00
H76    H     0.38175   0.91691   0.79705   0.00000  Uiso   1.00
H77    H     0.40205   0.65087   0.88599   0.00000  Uiso   1.00
H78    H     0.30396   0.77513   0.92755   0.00000  Uiso   1.00
H79    H     0.47947   0.78056   0.77337   0.00000  Uiso   1.00
H80    H     0.42921   0.41704   0.98118   0.00000  Uiso   1.00
H81    H     0.18501   0.88124   0.93548   0.00000  Uiso   1.00
H82    H     0.55509   0.89265   0.61040   0.00000  Uiso   1.00
H83    H     0.44912   0.12610   0.04860   0.00000  Uiso   1.00
O84    O     0.08539   0.85402   0.83173   0.00000  Uiso   1.00
O85    O     0.57091   0.86897   0.40524   0.00000  Uiso   1.00
O86    O     0.43189   0.86327   0.98014   0.00000  Uiso   1.00
N87    N     0.14695   0.70421   0.73745   0.00000  Uiso   1.00
N88    N     0.49294   0.71490   0.43351   0.00000  Uiso   1.00
N89    N     0.39389   0.99823   0.84318   0.00000  Uiso   1.00
N90    N     0.18321   0.81677   0.87280   0.00000  Uiso   1.00
N91    N     0.52920   0.82746   0.56887   0.00000  Uiso   1.00
N92    N     0.43015   0.11079   0.97853   0.00000  Uiso   1.00
C93    C     0.84138   0.03748   0.34050   0.00000  Uiso   1.00
C94    C     0.79665   0.94338   0.28593   0.00000  Uiso   1.00
C95    C     0.73885   0.92695   0.31545   0.00000  Uiso   1.00
C96    C     0.70499   0.83596   0.25539   0.00000  Uiso   1.00
C97    C     0.63203   0.70073   0.18384   0.00000  Uiso   1.00
C98    C     0.89200   0.94041   0.36970   0.00000  Uiso   1.00
C99    C     0.91438   0.92150   0.46966   0.00000  Uiso   1.00
C100   C     0.96079   0.82802   0.48011   0.00000  Uiso   1.00
C101   C     0.03589   0.68827   0.53860   0.00000  Uiso   1.00
C102   C     0.86470   0.13793   0.25680   0.00000  Uiso   1.00
C103   C     0.86413   0.28509   0.26183   0.00000  Uiso   1.00
C104   C     0.88756   0.35790   0.17722   0.00000  Uiso   1.00
C105   C     0.92026   0.52481   0.06041   0.00000  Uiso   1.00
C106   C     0.88401   0.90511   0.18133   0.00000  Uiso   1.00
C107   C     0.81981   0.87148   0.19948   0.00000  Uiso   1.00
C108   C     0.78603   0.78050   0.13935   0.00000  Uiso   1.00
C109   C     0.72819   0.76393   0.16877   0.00000  Uiso   1.00
C110   C     0.91516   0.86852   0.28325   0.00000  Uiso   1.00
C111   C     0.96155   0.77505   0.29355   0.00000  Uiso   1.00
C112   C     0.98399   0.75600   0.39350   0.00000  Uiso   1.00
C113   C     0.88785   0.06603   0.17033   0.00000  Uiso   1.00
C114   C     0.91130   0.13863   0.08571   0.00000  Uiso   1.00
C115   C     0.91076   0.28587   0.09061   0.00000  Uiso   1.00
H116   H     0.82335   0.09346   0.40781   0.00000  Uiso   1.00
H117   H     0.72095   0.98260   0.38237   0.00000  Uiso   1.00
H118   H     0.89645   0.97717   0.53655   0.00000  Uiso   1.00
H119   H     0.84620   0.34069   0.32874   0.00000  Uiso   1.00
H120   H     0.61764   0.82795   0.31606   0.00000  Uiso   1.00
H121   H     0.98771   0.81653   0.64114   0.00000  Uiso   1.00
H122   H     0.88175   0.58309   0.20295   0.00000  Uiso   1.00
H123   H     0.90205   0.84913   0.11401   0.00000  Uiso   1.00
H124   H     0.80396   0.72487   0.07245   0.00000  Uiso   1.00
H125   H     0.97947   0.71944   0.22663   0.00000  Uiso   1.00
H126   H     0.92921   0.08296   0.01882   0.00000  Uiso   1.00
H127   H     0.68501   0.61876   0.06452   0.00000  Uiso   1.00
H128   H     0.05509   0.60735   0.38960   0.00000  Uiso   1.00
H129   H     0.94912   0.37390   0.95140   0.00000  Uiso   1.00
O130   O     0.58539   0.64598   0.16827   0.00000  Uiso   1.00
O131   O     0.07091   0.63103   0.59476   0.00000  Uiso   1.00
O132   O     0.93189   0.63673   0.01986   0.00000  Uiso   1.00
N133   N     0.64695   0.79579   0.26255   0.00000  Uiso   1.00
N134   N     0.99294   0.78510   0.56649   0.00000  Uiso   1.00
N135   N     0.89389   0.50177   0.15682   0.00000  Uiso   1.00
N136   N     0.68321   0.68323   0.12720   0.00000  Uiso   1.00
N137   N     0.02920   0.67254   0.43113   0.00000  Uiso   1.00
N138   N     0.93015   0.38921   0.02147   0.00000  Uiso   1.00
C139   C     0.15862   0.96252   0.34050   0.00000  Uiso   1.00
C140   C     0.20335   0.05662   0.28593   0.00000  Uiso   1.00
C141   C     0.26115   0.07305   0.31545   0.00000  Uiso   1.00
C142   C     0.29501   0.16404   0.25539   0.00000  Uiso   1.00
C143   C     0.36797   0.29927   0.18384   0.00000  Uiso   1.00
C144   C     0.10800   0.05959   0.36970   0.00000  Uiso   1.00
C145   C     0.08562   0.07850   0.46966   0.00000  Uiso   1.00
C146   C     0.03921   0.17198   0.48011   0.00000  Uiso   1.00
C147   C     0.96411   0.31173   0.53860   0.00000  Uiso   1.00
C148   C     0.13530   0.86207   0.25680   0.00000  Uiso   1.00
C149   C     0.13587   0.71491   0.26183   0.00000  Uiso   1.00
C150   C     0.11244   0.64210   0.17722   0.00000  Uiso   1.00
C151   C     0.07974   0.47519   0.06041   0.00000  Uiso   1.00
C152   C     0.11599   0.09489   0.18133   0.00000  Uiso   1.00
C153   C     0.18019   0.12852   0.19948   0.00000  Uiso   1.00
C154   C     0.21397   0.21950   0.13935   0.00000  Uiso   1.00
C155   C     0.27181   0.23607   0.16877   0.00000  Uiso   1.00
C156   C     0.08484   0.13148   0.28325   0.00000  Uiso   1.00
C157   C     0.03845   0.22495   0.29355   0.00000  Uiso   1.00
C158   C     0.01601   0.24400   0.39350   0.00000  Uiso   1.00
C159   C     0.11215   0.93397   0.17033   0.00000  Uiso   1.00
C160   C     0.08870   0.86137   0.08571   0.00000  Uiso   1.00
C161   C     0.08924   0.71413   0.09061   0.00000  Uiso   1.00
H162   H     0.17665   0.90654   0.40781   0.00000  Uiso   1.00
H163   H     0.27905   0.01740   0.38237   0.00000  Uiso   1.00
H164   H     0.10355   0.02283   0.53655   0.00000  Uiso   1.00
H165   H     0.15380   0.65931   0.32874   0.00000  Uiso   1.00
H166   H     0.38236   0.17205   0.31606   0.00000  Uiso   1.00
H167   H     0.01229   0.18347   0.64114   0.00000  Uiso   1.00
H168   H     0.11825   0.41691   0.20295   0.00000  Uiso   1.00
H169   H     0.09795   0.15087   0.11401   0.00000  Uiso   1.00
H170   H     0.19604   0.27513   0.07245   0.00000  Uiso   1.00
H171   H     0.02053   0.28056   0.22663   0.00000  Uiso   1.00
H172   H     0.07079   0.91704   0.01882   0.00000  Uiso   1.00
H173   H     0.31499   0.38124   0.06452   0.00000  Uiso   1.00
H174   H     0.94491   0.39265   0.38960   0.00000  Uiso   1.00
H175   H     0.05088   0.62610   0.95140   0.00000  Uiso   1.00
O176   O     0.41461   0.35402   0.16827   0.00000  Uiso   1.00
O177   O     0.92909   0.36897   0.59476   0.00000  Uiso   1.00
O178   O     0.06811   0.36327   0.01986   0.00000  Uiso   1.00
N179   N     0.35305   0.20421   0.26255   0.00000  Uiso   1.00
N180   N     0.00706   0.21490   0.56649   0.00000  Uiso   1.00
N181   N     0.10611   0.49823   0.15682   0.00000  Uiso   1.00
N182   N     0.31679   0.31677   0.12720   0.00000  Uiso   1.00
N183   N     0.97080   0.32746   0.43113   0.00000  Uiso   1.00
N184   N     0.06985   0.61079   0.02147   0.00000  Uiso   1.00
