data_job_06013
_audit_creation_date              2018-12-19
_audit_creation_method            'Materials Studio'
_symmetry_space_group_name_H-M    'P1'
_symmetry_Int_Tables_number       1
_symmetry_cell_setting            triclinic
loop_
_symmetry_equiv_pos_as_xyz
  x,y,z
_cell_length_a                    8.6034
_cell_length_b                    22.8207
_cell_length_c                    22.9188
_cell_angle_alpha                 61.4370
_cell_angle_beta                  97.8164
_cell_angle_gamma                 84.0110
loop_
_atom_site_label
_atom_site_type_symbol
_atom_site_fract_x
_atom_site_fract_y
_atom_site_fract_z
_atom_site_U_iso_or_equiv
_atom_site_adp_type
_atom_site_occupancy
C1     C     0.17938   0.34401   0.77618   0.00000  Uiso   1.00
C2     C     0.12042   0.32301   0.72441   0.00000  Uiso   1.00
C3     C     0.97195   0.30683   0.71391   0.00000  Uiso   1.00
C4     C     0.94087   0.28886   0.66414   0.00000  Uiso   1.00
C5     C     0.83210   0.25647   0.58954   0.00000  Uiso   1.00
C6     C     0.33484   0.29403   0.82047   0.00000  Uiso   1.00
C7     C     0.36664   0.25349   0.89072   0.00000  Uiso   1.00
C8     C     0.51606   0.21114   0.92181   0.00000  Uiso   1.00
C9     C     0.74021   0.13380   0.99634   0.00000  Uiso   1.00
C10    C     0.22599   0.41283   0.73591   0.00000  Uiso   1.00
C11    C     0.16631   0.47218   0.73508   0.00000  Uiso   1.00
C12    C     0.22413   0.52984   0.69499   0.00000  Uiso   1.00
C13    C     0.27928   0.63696   0.63823   0.00000  Uiso   1.00
C14    C     0.38820   0.34086   0.70649   0.00000  Uiso   1.00
C15    C     0.23385   0.32130   0.68656   0.00000  Uiso   1.00
C16    C     0.20298   0.30335   0.63680   0.00000  Uiso   1.00
C17    C     0.05449   0.28715   0.62622   0.00000  Uiso   1.00
C18    C     0.44826   0.29232   0.78262   0.00000  Uiso   1.00
C19    C     0.59767   0.25002   0.81361   0.00000  Uiso   1.00
C20    C     0.62969   0.20942   0.88389   0.00000  Uiso   1.00
C21    C     0.33941   0.41112   0.69805   0.00000  Uiso   1.00
C22    C     0.39734   0.46870   0.65797   0.00000  Uiso   1.00
C23    C     0.33776   0.52813   0.65707   0.00000  Uiso   1.00
H24    H     0.09108   0.34534   0.80566   0.00000  Uiso   1.00
H25    H     0.88421   0.30815   0.74322   0.00000  Uiso   1.00
H26    H     0.27885   0.25483   0.92000   0.00000  Uiso   1.00
H27    H     0.07854   0.47348   0.76438   0.00000  Uiso   1.00
H28    H     0.70490   0.26615   0.65731   0.00000  Uiso   1.00
H29    H     0.53703   0.15374   0.03008   0.00000  Uiso   1.00
H30    H     0.11465   0.61481   0.70191   0.00000  Uiso   1.00
H31    H     0.47651   0.33953   0.67702   0.00000  Uiso   1.00
H32    H     0.29078   0.30203   0.60751   0.00000  Uiso   1.00
H33    H     0.68542   0.24871   0.78430   0.00000  Uiso   1.00
H34    H     0.48511   0.46736   0.62868   0.00000  Uiso   1.00
H35    H     0.03489   0.26118   0.54718   0.00000  Uiso   1.00
H36    H     0.86702   0.14877   0.91994   0.00000  Uiso   1.00
H37    H     0.44464   0.60984   0.59178   0.00000  Uiso   1.00
O38    O     0.74078   0.23907   0.55886   0.00000  Uiso   1.00
O39    O     0.83251   0.09161   0.04791   0.00000  Uiso   1.00
O40    O     0.27835   0.69652   0.61737   0.00000  Uiso   1.00
N41    N     0.80804   0.27014   0.64092   0.00000  Uiso   1.00
N42    N     0.58602   0.16503   0.98943   0.00000  Uiso   1.00
N43    N     0.19116   0.59609   0.68264   0.00000  Uiso   1.00
N44    N     0.98560   0.26747   0.58166   0.00000  Uiso   1.00
N45    N     0.76358   0.16236   0.93017   0.00000  Uiso   1.00
N46    N     0.36873   0.59342   0.62338   0.00000  Uiso   1.00
C47    C     0.52727   0.87981   0.34456   0.00000  Uiso   1.00
C48    C     0.45040   0.95216   0.32379   0.00000  Uiso   1.00
C49    C     0.28743   0.97754   0.30827   0.00000  Uiso   1.00
C50    C     0.24114   0.04510   0.29041   0.00000  Uiso   1.00
C51    C     0.10462   0.15128   0.25847   0.00000  Uiso   1.00
C52    C     0.63244   0.88656   0.29406   0.00000  Uiso   1.00
C53    C     0.62253   0.85677   0.25354   0.00000  Uiso   1.00
C54    C     0.72951   0.86910   0.21066   0.00000  Uiso   1.00
C55    C     0.87568   0.87338   0.13260   0.00000  Uiso   1.00
C56    C     0.64126   0.85201   0.41301   0.00000  Uiso   1.00
C57    C     0.63880   0.79315   0.47250   0.00000  Uiso   1.00
C58    C     0.75322   0.77639   0.52976   0.00000  Uiso   1.00
C59    C     0.91308   0.72703   0.63638   0.00000  Uiso   1.00
C60    C     0.73489   0.95467   0.34046   0.00000  Uiso   1.00
C61    C     0.56317   0.99283   0.32156   0.00000  Uiso   1.00
C62    C     0.51712   0.06037   0.30373   0.00000  Uiso   1.00
C63    C     0.35411   0.08584   0.28818   0.00000  Uiso   1.00
C64    C     0.74520   0.92722   0.29183   0.00000  Uiso   1.00
C65    C     0.85223   0.93960   0.24901   0.00000  Uiso   1.00
C66    C     0.84248   0.90984   0.20843   0.00000  Uiso   1.00
C67    C     0.75402   0.89267   0.41078   0.00000  Uiso   1.00
C68    C     0.86848   0.87599   0.46796   0.00000  Uiso   1.00
C69    C     0.86619   0.81713   0.52753   0.00000  Uiso   1.00
H70    H     0.43949   0.84815   0.34629   0.00000  Uiso   1.00
H71    H     0.20020   0.94605   0.30999   0.00000  Uiso   1.00
H72    H     0.53527   0.82530   0.25528   0.00000  Uiso   1.00
H73    H     0.55151   0.76170   0.47420   0.00000  Uiso   1.00
H74    H     0.98463   0.07254   0.26874   0.00000  Uiso   1.00
H75    H     0.69117   0.81790   0.15340   0.00000  Uiso   1.00
H76    H     0.72544   0.68379   0.61504   0.00000  Uiso   1.00
H77    H     0.82269   0.98633   0.33873   0.00000  Uiso   1.00
H78    H     0.60442   0.09183   0.30201   0.00000  Uiso   1.00
H79    H     0.93948   0.97107   0.24730   0.00000  Uiso   1.00
H80    H     0.95573   0.90747   0.46622   0.00000  Uiso   1.00
H81    H     0.31271   0.19086   0.26226   0.00000  Uiso   1.00
H82    H     0.01925   0.93621   0.14692   0.00000  Uiso   1.00
H83    H     0.05352   0.80210   0.60856   0.00000  Uiso   1.00
O84    O     0.99817   0.19861   0.24146   0.00000  Uiso   1.00
O85    O     0.92514   0.86451   0.09015   0.00000  Uiso   1.00
O86    O     0.97009   0.68857   0.69581   0.00000  Uiso   1.00
N87    N     0.09180   0.08591   0.27226   0.00000  Uiso   1.00
N88    N     0.75235   0.84784   0.16442   0.00000  Uiso   1.00
N89    N     0.78442   0.72245   0.59601   0.00000  Uiso   1.00
N90    N     0.26833   0.14957   0.26878   0.00000  Uiso   1.00
N91    N     0.92889   0.91150   0.16093   0.00000  Uiso   1.00
N92    N     0.96096   0.78611   0.59253   0.00000  Uiso   1.00
C93    C     0.41438   0.77683   0.87928   0.00000  Uiso   1.00
C94    C     0.40803   0.72486   0.95180   0.00000  Uiso   1.00
C95    C     0.27067   0.71372   0.97780   0.00000  Uiso   1.00
C96    C     0.29008   0.66388   0.04542   0.00000  Uiso   1.00
C97    C     0.25720   0.58889   0.15194   0.00000  Uiso   1.00
C98    C     0.52752   0.82168   0.88551   0.00000  Uiso   1.00
C99    C     0.49063   0.89194   0.85578   0.00000  Uiso   1.00
C100   C     0.61064   0.92359   0.86759   0.00000  Uiso   1.00
C101   C     0.76331   0.99891   0.87116   0.00000  Uiso   1.00
C102   C     0.49859   0.73687   0.85112   0.00000  Uiso   1.00
C103   C     0.43740   0.73584   0.79245   0.00000  Uiso   1.00
C104   C     0.53307   0.69610   0.77529   0.00000  Uiso   1.00
C105   C     0.64082   0.63975   0.72545   0.00000  Uiso   1.00
C106   C     0.69310   0.70812   0.95311   0.00000  Uiso   1.00
C107   C     0.55943   0.68754   0.99190   0.00000  Uiso   1.00
C108   C     0.57905   0.63770   0.05950   0.00000  Uiso   1.00
C109   C     0.44174   0.62649   0.08560   0.00000  Uiso   1.00
C110   C     0.67891   0.78436   0.92562   0.00000  Uiso   1.00
C111   C     0.79901   0.81591   0.93747   0.00000  Uiso   1.00
C112   C     0.76231   0.88620   0.90777   0.00000  Uiso   1.00
C113   C     0.64999   0.69955   0.89122   0.00000  Uiso   1.00
C114   C     0.74578   0.65981   0.87415   0.00000  Uiso   1.00
C115   C     0.68474   0.65871   0.81547   0.00000  Uiso   1.00
H116   H     0.29652   0.80590   0.84805   0.00000  Uiso   1.00
H117   H     0.15353   0.74263   0.94675   0.00000  Uiso   1.00
H118   H     0.37347   0.92081   0.82474   0.00000  Uiso   1.00
H119   H     0.32024   0.76473   0.76142   0.00000  Uiso   1.00
H120   H     0.06178   0.65603   0.07387   0.00000  Uiso   1.00
H121   H     0.52554   0.03175   0.81659   0.00000  Uiso   1.00
H122   H     0.41330   0.70263   0.68307   0.00000  Uiso   1.00
H123   H     0.81098   0.67906   0.98434   0.00000  Uiso   1.00
H124   H     0.69622   0.60883   0.09052   0.00000  Uiso   1.00
H125   H     0.91615   0.78702   0.96851   0.00000  Uiso   1.00
H126   H     0.86293   0.63093   0.90520   0.00000  Uiso   1.00
H127   H     0.50225   0.54744   0.19056   0.00000  Uiso   1.00
H128   H     0.96600   0.92316   0.93327   0.00000  Uiso   1.00
H129   H     0.85377   0.59403   0.79976   0.00000  Uiso   1.00
O130   O     0.19725   0.55784   0.19961   0.00000  Uiso   1.00
O131   O     0.80568   0.05077   0.86205   0.00000  Uiso   1.00
O132   O     0.65843   0.61896   0.68689   0.00000  Uiso   1.00
N133   N     0.18119   0.64011   0.08676   0.00000  Uiso   1.00
N134   N     0.61476   0.99138   0.84622   0.00000  Uiso   1.00
N135   N     0.50985   0.68369   0.72139   0.00000  Uiso   1.00
N136   N     0.41820   0.58167   0.14955   0.00000  Uiso   1.00
N137   N     0.85178   0.93295   0.90901   0.00000  Uiso   1.00
N138   N     0.74686   0.62526   0.78417   0.00000  Uiso   1.00
C139   C     0.82062   0.65599   0.22382   0.00000  Uiso   1.00
C140   C     0.87958   0.67699   0.27559   0.00000  Uiso   1.00
C141   C     0.02805   0.69317   0.28609   0.00000  Uiso   1.00
C142   C     0.05913   0.71114   0.33586   0.00000  Uiso   1.00
C143   C     0.16790   0.74353   0.41045   0.00000  Uiso   1.00
C144   C     0.66516   0.70597   0.17953   0.00000  Uiso   1.00
C145   C     0.63336   0.74651   0.10928   0.00000  Uiso   1.00
C146   C     0.48394   0.78886   0.07819   0.00000  Uiso   1.00
C147   C     0.25979   0.86620   0.00365   0.00000  Uiso   1.00
C148   C     0.77401   0.58717   0.26409   0.00000  Uiso   1.00
C149   C     0.83369   0.52782   0.26492   0.00000  Uiso   1.00
C150   C     0.77587   0.47016   0.30501   0.00000  Uiso   1.00
C151   C     0.72072   0.36304   0.36177   0.00000  Uiso   1.00
C152   C     0.61180   0.65914   0.29351   0.00000  Uiso   1.00
C153   C     0.76615   0.67870   0.31344   0.00000  Uiso   1.00
C154   C     0.79702   0.69665   0.36320   0.00000  Uiso   1.00
C155   C     0.94551   0.71285   0.37378   0.00000  Uiso   1.00
C156   C     0.55174   0.70768   0.21738   0.00000  Uiso   1.00
C157   C     0.40233   0.74998   0.18639   0.00000  Uiso   1.00
C158   C     0.37031   0.79058   0.11611   0.00000  Uiso   1.00
C159   C     0.66059   0.58888   0.30195   0.00000  Uiso   1.00
C160   C     0.60266   0.53130   0.34203   0.00000  Uiso   1.00
C161   C     0.66224   0.47187   0.34293   0.00000  Uiso   1.00
H162   H     0.90892   0.65466   0.19434   0.00000  Uiso   1.00
H163   H     0.11579   0.69185   0.25678   0.00000  Uiso   1.00
H164   H     0.72115   0.74517   0.08000   0.00000  Uiso   1.00
H165   H     0.92146   0.52652   0.23562   0.00000  Uiso   1.00
H166   H     0.29510   0.73385   0.34269   0.00000  Uiso   1.00
H167   H     0.46297   0.84626   0.96992   0.00000  Uiso   1.00
H168   H     0.88535   0.38519   0.29809   0.00000  Uiso   1.00
H169   H     0.52349   0.66047   0.32298   0.00000  Uiso   1.00
H170   H     0.70922   0.69797   0.39249   0.00000  Uiso   1.00
H171   H     0.31458   0.75129   0.21570   0.00000  Uiso   1.00
H172   H     0.51489   0.53264   0.37132   0.00000  Uiso   1.00
H173   H     0.96511   0.73882   0.45282   0.00000  Uiso   1.00
H174   H     0.13298   0.85123   0.08006   0.00000  Uiso   1.00
H175   H     0.55536   0.39016   0.40822   0.00000  Uiso   1.00
O176   O     0.25922   0.76093   0.44114   0.00000  Uiso   1.00
O177   O     0.16749   0.90839   0.95209   0.00000  Uiso   1.00
O178   O     0.72165   0.30348   0.38263   0.00000  Uiso   1.00
N179   N     0.19196   0.72986   0.35908   0.00000  Uiso   1.00
N180   N     0.41398   0.83497   0.01057   0.00000  Uiso   1.00
N181   N     0.80884   0.40391   0.31736   0.00000  Uiso   1.00
N182   N     0.01440   0.73253   0.41834   0.00000  Uiso   1.00
N183   N     0.23642   0.83764   0.06983   0.00000  Uiso   1.00
N184   N     0.63127   0.40658   0.37662   0.00000  Uiso   1.00
C185   C     0.47273   0.12019   0.65544   0.00000  Uiso   1.00
C186   C     0.54960   0.04784   0.67621   0.00000  Uiso   1.00
C187   C     0.71257   0.02246   0.69173   0.00000  Uiso   1.00
C188   C     0.75885   0.95490   0.70959   0.00000  Uiso   1.00
C189   C     0.89537   0.84872   0.74153   0.00000  Uiso   1.00
C190   C     0.36756   0.11344   0.70594   0.00000  Uiso   1.00
C191   C     0.37747   0.14323   0.74646   0.00000  Uiso   1.00
C192   C     0.27049   0.13090   0.78934   0.00000  Uiso   1.00
C193   C     0.12432   0.12662   0.86740   0.00000  Uiso   1.00
C194   C     0.35874   0.14799   0.58699   0.00000  Uiso   1.00
C195   C     0.36120   0.20685   0.52750   0.00000  Uiso   1.00
C196   C     0.24678   0.22361   0.47024   0.00000  Uiso   1.00
C197   C     0.08692   0.27297   0.36362   0.00000  Uiso   1.00
C198   C     0.26511   0.04533   0.65954   0.00000  Uiso   1.00
C199   C     0.43683   0.00717   0.67843   0.00000  Uiso   1.00
C200   C     0.48287   0.93963   0.69627   0.00000  Uiso   1.00
C201   C     0.64589   0.91416   0.71182   0.00000  Uiso   1.00
C202   C     0.25480   0.07278   0.70817   0.00000  Uiso   1.00
C203   C     0.14777   0.06040   0.75099   0.00000  Uiso   1.00
C204   C     0.15752   0.09016   0.79157   0.00000  Uiso   1.00
C205   C     0.24598   0.10733   0.58922   0.00000  Uiso   1.00
C206   C     0.13151   0.12401   0.53204   0.00000  Uiso   1.00
C207   C     0.13381   0.18287   0.47247   0.00000  Uiso   1.00
H208   H     0.56051   0.15185   0.65371   0.00000  Uiso   1.00
H209   H     0.79980   0.05395   0.69001   0.00000  Uiso   1.00
H210   H     0.46473   0.17470   0.74472   0.00000  Uiso   1.00
H211   H     0.44849   0.23830   0.52580   0.00000  Uiso   1.00
H212   H     0.01537   0.92746   0.73126   0.00000  Uiso   1.00
H213   H     0.30883   0.18210   0.84660   0.00000  Uiso   1.00
H214   H     0.27456   0.31621   0.38496   0.00000  Uiso   1.00
H215   H     0.17731   0.01367   0.66127   0.00000  Uiso   1.00
H216   H     0.39558   0.90817   0.69799   0.00000  Uiso   1.00
H217   H     0.06052   0.02893   0.75270   0.00000  Uiso   1.00
H218   H     0.04427   0.09253   0.53378   0.00000  Uiso   1.00
H219   H     0.68729   0.80914   0.73774   0.00000  Uiso   1.00
H220   H     0.98075   0.06379   0.85308   0.00000  Uiso   1.00
H221   H     0.94648   0.19790   0.39144   0.00000  Uiso   1.00
O222   O     0.00183   0.80139   0.75854   0.00000  Uiso   1.00
O223   O     0.07486   0.13549   0.90985   0.00000  Uiso   1.00
O224   O     0.02991   0.31143   0.30419   0.00000  Uiso   1.00
N225   N     0.90820   0.91409   0.72774   0.00000  Uiso   1.00
N226   N     0.24765   0.15216   0.83558   0.00000  Uiso   1.00
N227   N     0.21558   0.27755   0.40399   0.00000  Uiso   1.00
N228   N     0.73167   0.85043   0.73122   0.00000  Uiso   1.00
N229   N     0.07111   0.08850   0.83907   0.00000  Uiso   1.00
N230   N     0.03904   0.21389   0.40747   0.00000  Uiso   1.00
C231   C     0.58562   0.22317   0.12072   0.00000  Uiso   1.00
C232   C     0.59197   0.27514   0.04820   0.00000  Uiso   1.00
C233   C     0.72933   0.28628   0.02220   0.00000  Uiso   1.00
C234   C     0.70992   0.33612   0.95458   0.00000  Uiso   1.00
C235   C     0.74279   0.41111   0.84806   0.00000  Uiso   1.00
C236   C     0.47248   0.17832   0.11449   0.00000  Uiso   1.00
C237   C     0.50937   0.10806   0.14422   0.00000  Uiso   1.00
C238   C     0.38936   0.07641   0.13241   0.00000  Uiso   1.00
C239   C     0.23669   0.00109   0.12884   0.00000  Uiso   1.00
C240   C     0.50141   0.26313   0.14888   0.00000  Uiso   1.00
C241   C     0.56260   0.26416   0.20755   0.00000  Uiso   1.00
C242   C     0.46693   0.30390   0.22471   0.00000  Uiso   1.00
C243   C     0.35917   0.36025   0.27455   0.00000  Uiso   1.00
C244   C     0.30689   0.29188   0.04689   0.00000  Uiso   1.00
C245   C     0.44057   0.31246   0.00810   0.00000  Uiso   1.00
C246   C     0.42095   0.36230   0.94050   0.00000  Uiso   1.00
C247   C     0.55826   0.37351   0.91440   0.00000  Uiso   1.00
C248   C     0.32109   0.21564   0.07438   0.00000  Uiso   1.00
C249   C     0.20099   0.18409   0.06253   0.00000  Uiso   1.00
C250   C     0.23769   0.11380   0.09223   0.00000  Uiso   1.00
C251   C     0.35001   0.30045   0.10878   0.00000  Uiso   1.00
C252   C     0.25422   0.34019   0.12585   0.00000  Uiso   1.00
C253   C     0.31526   0.34129   0.18453   0.00000  Uiso   1.00
H254   H     0.70348   0.19410   0.15195   0.00000  Uiso   1.00
H255   H     0.84647   0.25737   0.05325   0.00000  Uiso   1.00
H256   H     0.62653   0.07919   0.17526   0.00000  Uiso   1.00
H257   H     0.67976   0.23527   0.23858   0.00000  Uiso   1.00
H258   H     0.93822   0.34397   0.92613   0.00000  Uiso   1.00
H259   H     0.47446   0.96825   0.18341   0.00000  Uiso   1.00
H260   H     0.58670   0.29737   0.31693   0.00000  Uiso   1.00
H261   H     0.18902   0.32094   0.01566   0.00000  Uiso   1.00
H262   H     0.30378   0.39117   0.90948   0.00000  Uiso   1.00
H263   H     0.08385   0.21298   0.03149   0.00000  Uiso   1.00
H264   H     0.13707   0.36907   0.09481   0.00000  Uiso   1.00
H265   H     0.49775   0.45256   0.80944   0.00000  Uiso   1.00
H266   H     0.03399   0.07684   0.06673   0.00000  Uiso   1.00
H267   H     0.14623   0.40596   0.20024   0.00000  Uiso   1.00
O268   O     0.80275   0.44216   0.80039   0.00000  Uiso   1.00
O269   O     0.19432   0.94923   0.13795   0.00000  Uiso   1.00
O270   O     0.34157   0.38104   0.31311   0.00000  Uiso   1.00
N271   N     0.81881   0.35989   0.91324   0.00000  Uiso   1.00
N272   N     0.38523   0.00862   0.15378   0.00000  Uiso   1.00
N273   N     0.49015   0.31631   0.27861   0.00000  Uiso   1.00
N274   N     0.58180   0.41833   0.85045   0.00000  Uiso   1.00
N275   N     0.14822   0.06706   0.09099   0.00000  Uiso   1.00
N276   N     0.25314   0.37474   0.21583   0.00000  Uiso   1.00
