data_job_03260
_audit_creation_date              2018-12-19
_audit_creation_method            'Materials Studio'
_symmetry_space_group_name_H-M    'P1'
_symmetry_Int_Tables_number       1
_symmetry_cell_setting            triclinic
loop_
_symmetry_equiv_pos_as_xyz
  x,y,z
_cell_length_a                    11.2672
_cell_length_b                    40.4869
_cell_length_c                    10.5706
_cell_angle_alpha                 90.0000
_cell_angle_beta                  90.6270
_cell_angle_gamma                 90.0000
loop_
_atom_site_label
_atom_site_type_symbol
_atom_site_fract_x
_atom_site_fract_y
_atom_site_fract_z
_atom_site_U_iso_or_equiv
_atom_site_adp_type
_atom_site_occupancy
C1     C     0.52593   0.83350   0.46501   0.00000  Uiso   1.00
C2     C     0.55971   0.86829   0.42354   0.00000  Uiso   1.00
C3     C     0.51785   0.89744   0.47581   0.00000  Uiso   1.00
C4     C     0.55945   0.92675   0.42455   0.00000  Uiso   1.00
C5     C     0.59961   0.98076   0.37531   0.00000  Uiso   1.00
C6     C     0.47753   0.81625   0.34703   0.00000  Uiso   1.00
C7     C     0.36656   0.80163   0.33500   0.00000  Uiso   1.00
C8     C     0.33899   0.78713   0.21933   0.00000  Uiso   1.00
C9     C     0.25159   0.76031   0.05136   0.00000  Uiso   1.00
C10    C     0.64218   0.81611   0.49834   0.00000  Uiso   1.00
C11    C     0.66966   0.80137   0.61352   0.00000  Uiso   1.00
C12    C     0.78070   0.78675   0.62524   0.00000  Uiso   1.00
C13    C     0.94895   0.75973   0.69221   0.00000  Uiso   1.00
C14    C     0.67426   0.83373   0.28100   0.00000  Uiso   1.00
C15    C     0.64028   0.86842   0.32359   0.00000  Uiso   1.00
C16    C     0.68196   0.89770   0.27224   0.00000  Uiso   1.00
C17    C     0.64017   0.92688   0.32443   0.00000  Uiso   1.00
C18    C     0.55809   0.81638   0.24709   0.00000  Uiso   1.00
C19    C     0.53068   0.80189   0.13142   0.00000  Uiso   1.00
C20    C     0.41971   0.78725   0.11921   0.00000  Uiso   1.00
C21    C     0.72276   0.81624   0.39840   0.00000  Uiso   1.00
C22    C     0.83378   0.80164   0.40995   0.00000  Uiso   1.00
C23    C     0.86142   0.78688   0.52512   0.00000  Uiso   1.00
H24    H     0.46320   0.83340   0.54281   0.00000  Uiso   1.00
H25    H     0.45548   0.89733   0.55315   0.00000  Uiso   1.00
H26    H     0.30424   0.80153   0.41236   0.00000  Uiso   1.00
H27    H     0.60728   0.80128   0.69084   0.00000  Uiso   1.00
H28    H     0.48244   0.96827   0.52050   0.00000  Uiso   1.00
H29    H     0.16354   0.76626   0.22366   0.00000  Uiso   1.00
H30    H     0.80257   0.76573   0.81089   0.00000  Uiso   1.00
H31    H     0.73699   0.83383   0.20319   0.00000  Uiso   1.00
H32    H     0.74431   0.89779   0.19489   0.00000  Uiso   1.00
H33    H     0.59306   0.80199   0.05410   0.00000  Uiso   1.00
H34    H     0.89610   0.80174   0.33259   0.00000  Uiso   1.00
H35    H     0.71685   0.96864   0.22973   0.00000  Uiso   1.00
H36    H     0.39795   0.76663   0.93288   0.00000  Uiso   1.00
H37    H     0.03698   0.76610   0.52012   0.00000  Uiso   1.00
O38    O     0.59949   0.01052   0.37576   0.00000  Uiso   1.00
O39    O     0.18111   0.74549   0.98632   0.00000  Uiso   1.00
O40    O     0.01951   0.74479   0.75676   0.00000  Uiso   1.00
N41    N     0.53662   0.95958   0.45322   0.00000  Uiso   1.00
N42    N     0.23846   0.77072   0.17568   0.00000  Uiso   1.00
N43    N     0.83589   0.77021   0.72469   0.00000  Uiso   1.00
N44    N     0.66276   0.95978   0.29676   0.00000  Uiso   1.00
N45    N     0.36460   0.77092   0.01922   0.00000  Uiso   1.00
N46    N     0.96203   0.77042   0.56823   0.00000  Uiso   1.00
C47    C     0.47407   0.33350   0.03499   0.00000  Uiso   1.00
C48    C     0.44029   0.36829   0.07646   0.00000  Uiso   1.00
C49    C     0.48215   0.39744   0.02419   0.00000  Uiso   1.00
C50    C     0.44055   0.42675   0.07545   0.00000  Uiso   1.00
C51    C     0.40039   0.48076   0.12469   0.00000  Uiso   1.00
C52    C     0.52247   0.31625   0.15297   0.00000  Uiso   1.00
C53    C     0.63344   0.30163   0.16500   0.00000  Uiso   1.00
C54    C     0.66101   0.28713   0.28067   0.00000  Uiso   1.00
C55    C     0.74841   0.26031   0.44864   0.00000  Uiso   1.00
C56    C     0.35782   0.31611   0.00166   0.00000  Uiso   1.00
C57    C     0.33034   0.30137   0.88648   0.00000  Uiso   1.00
C58    C     0.21930   0.28675   0.87476   0.00000  Uiso   1.00
C59    C     0.05105   0.25973   0.80779   0.00000  Uiso   1.00
C60    C     0.32574   0.33373   0.21900   0.00000  Uiso   1.00
C61    C     0.35972   0.36842   0.17641   0.00000  Uiso   1.00
C62    C     0.31804   0.39770   0.22776   0.00000  Uiso   1.00
C63    C     0.35983   0.42688   0.17557   0.00000  Uiso   1.00
C64    C     0.44191   0.31638   0.25291   0.00000  Uiso   1.00
C65    C     0.46932   0.30189   0.36858   0.00000  Uiso   1.00
C66    C     0.58029   0.28725   0.38079   0.00000  Uiso   1.00
C67    C     0.27724   0.31624   0.10160   0.00000  Uiso   1.00
C68    C     0.16622   0.30164   0.09005   0.00000  Uiso   1.00
C69    C     0.13858   0.28688   0.97488   0.00000  Uiso   1.00
H70    H     0.53680   0.33340   0.95719   0.00000  Uiso   1.00
H71    H     0.54452   0.39733   0.94685   0.00000  Uiso   1.00
H72    H     0.69576   0.30153   0.08764   0.00000  Uiso   1.00
H73    H     0.39272   0.30128   0.80916   0.00000  Uiso   1.00
H74    H     0.51756   0.46827   0.97950   0.00000  Uiso   1.00
H75    H     0.83646   0.26626   0.27634   0.00000  Uiso   1.00
H76    H     0.19743   0.26573   0.68911   0.00000  Uiso   1.00
H77    H     0.26301   0.33383   0.29681   0.00000  Uiso   1.00
H78    H     0.25569   0.39779   0.30511   0.00000  Uiso   1.00
H79    H     0.40694   0.30199   0.44590   0.00000  Uiso   1.00
H80    H     0.10390   0.30174   0.16741   0.00000  Uiso   1.00
H81    H     0.28315   0.46864   0.27027   0.00000  Uiso   1.00
H82    H     0.60205   0.26663   0.56712   0.00000  Uiso   1.00
H83    H     0.96302   0.26610   0.97988   0.00000  Uiso   1.00
O84    O     0.40051   0.51052   0.12424   0.00000  Uiso   1.00
O85    O     0.81889   0.24549   0.51368   0.00000  Uiso   1.00
O86    O     0.98049   0.24479   0.74324   0.00000  Uiso   1.00
N87    N     0.46338   0.45958   0.04678   0.00000  Uiso   1.00
N88    N     0.76154   0.27072   0.32432   0.00000  Uiso   1.00
N89    N     0.16411   0.27021   0.77531   0.00000  Uiso   1.00
N90    N     0.33724   0.45978   0.20324   0.00000  Uiso   1.00
N91    N     0.63540   0.27092   0.48078   0.00000  Uiso   1.00
N92    N     0.03797   0.27042   0.93177   0.00000  Uiso   1.00
C93    C     0.47407   0.16650   0.53499   0.00000  Uiso   1.00
C94    C     0.44029   0.13171   0.57646   0.00000  Uiso   1.00
C95    C     0.48215   0.10256   0.52419   0.00000  Uiso   1.00
C96    C     0.44055   0.07325   0.57545   0.00000  Uiso   1.00
C97    C     0.40039   0.01924   0.62469   0.00000  Uiso   1.00
C98    C     0.52247   0.18375   0.65297   0.00000  Uiso   1.00
C99    C     0.63344   0.19837   0.66500   0.00000  Uiso   1.00
C100   C     0.66101   0.21287   0.78067   0.00000  Uiso   1.00
C101   C     0.74841   0.23969   0.94864   0.00000  Uiso   1.00
C102   C     0.35782   0.18389   0.50166   0.00000  Uiso   1.00
C103   C     0.33034   0.19863   0.38648   0.00000  Uiso   1.00
C104   C     0.21930   0.21325   0.37476   0.00000  Uiso   1.00
C105   C     0.05105   0.24027   0.30779   0.00000  Uiso   1.00
C106   C     0.32574   0.16627   0.71900   0.00000  Uiso   1.00
C107   C     0.35972   0.13158   0.67641   0.00000  Uiso   1.00
C108   C     0.31804   0.10230   0.72776   0.00000  Uiso   1.00
C109   C     0.35983   0.07312   0.67557   0.00000  Uiso   1.00
C110   C     0.44191   0.18362   0.75291   0.00000  Uiso   1.00
C111   C     0.46932   0.19811   0.86858   0.00000  Uiso   1.00
C112   C     0.58029   0.21275   0.88079   0.00000  Uiso   1.00
C113   C     0.27724   0.18376   0.60160   0.00000  Uiso   1.00
C114   C     0.16622   0.19836   0.59005   0.00000  Uiso   1.00
C115   C     0.13858   0.21312   0.47488   0.00000  Uiso   1.00
H116   H     0.53680   0.16660   0.45719   0.00000  Uiso   1.00
H117   H     0.54452   0.10267   0.44685   0.00000  Uiso   1.00
H118   H     0.69576   0.19847   0.58764   0.00000  Uiso   1.00
H119   H     0.39272   0.19872   0.30916   0.00000  Uiso   1.00
H120   H     0.51756   0.03173   0.47950   0.00000  Uiso   1.00
H121   H     0.83646   0.23374   0.77634   0.00000  Uiso   1.00
H122   H     0.19743   0.23427   0.18911   0.00000  Uiso   1.00
H123   H     0.26301   0.16617   0.79681   0.00000  Uiso   1.00
H124   H     0.25569   0.10221   0.80511   0.00000  Uiso   1.00
H125   H     0.40694   0.19801   0.94590   0.00000  Uiso   1.00
H126   H     0.10390   0.19826   0.66741   0.00000  Uiso   1.00
H127   H     0.28315   0.03136   0.77027   0.00000  Uiso   1.00
H128   H     0.60205   0.23337   0.06712   0.00000  Uiso   1.00
H129   H     0.96302   0.23390   0.47988   0.00000  Uiso   1.00
O130   O     0.40051   0.98948   0.62424   0.00000  Uiso   1.00
O131   O     0.81889   0.25451   0.01368   0.00000  Uiso   1.00
O132   O     0.98049   0.25521   0.24324   0.00000  Uiso   1.00
N133   N     0.46338   0.04042   0.54678   0.00000  Uiso   1.00
N134   N     0.76154   0.22928   0.82432   0.00000  Uiso   1.00
N135   N     0.16411   0.22979   0.27531   0.00000  Uiso   1.00
N136   N     0.33724   0.04022   0.70324   0.00000  Uiso   1.00
N137   N     0.63540   0.22908   0.98078   0.00000  Uiso   1.00
N138   N     0.03797   0.22958   0.43177   0.00000  Uiso   1.00
C139   C     0.52593   0.66650   0.96501   0.00000  Uiso   1.00
C140   C     0.55971   0.63171   0.92354   0.00000  Uiso   1.00
C141   C     0.51785   0.60256   0.97581   0.00000  Uiso   1.00
C142   C     0.55945   0.57325   0.92455   0.00000  Uiso   1.00
C143   C     0.59961   0.51924   0.87531   0.00000  Uiso   1.00
C144   C     0.47753   0.68375   0.84703   0.00000  Uiso   1.00
C145   C     0.36656   0.69837   0.83500   0.00000  Uiso   1.00
C146   C     0.33899   0.71287   0.71933   0.00000  Uiso   1.00
C147   C     0.25159   0.73969   0.55136   0.00000  Uiso   1.00
C148   C     0.64218   0.68389   0.99834   0.00000  Uiso   1.00
C149   C     0.66966   0.69863   0.11352   0.00000  Uiso   1.00
C150   C     0.78070   0.71325   0.12524   0.00000  Uiso   1.00
C151   C     0.94895   0.74027   0.19221   0.00000  Uiso   1.00
C152   C     0.67426   0.66627   0.78100   0.00000  Uiso   1.00
C153   C     0.64028   0.63158   0.82359   0.00000  Uiso   1.00
C154   C     0.68196   0.60230   0.77224   0.00000  Uiso   1.00
C155   C     0.64017   0.57312   0.82443   0.00000  Uiso   1.00
C156   C     0.55809   0.68362   0.74709   0.00000  Uiso   1.00
C157   C     0.53068   0.69811   0.63142   0.00000  Uiso   1.00
C158   C     0.41971   0.71275   0.61921   0.00000  Uiso   1.00
C159   C     0.72276   0.68376   0.89840   0.00000  Uiso   1.00
C160   C     0.83378   0.69836   0.90995   0.00000  Uiso   1.00
C161   C     0.86142   0.71312   0.02512   0.00000  Uiso   1.00
H162   H     0.46320   0.66660   0.04281   0.00000  Uiso   1.00
H163   H     0.45548   0.60267   0.05315   0.00000  Uiso   1.00
H164   H     0.30424   0.69847   0.91236   0.00000  Uiso   1.00
H165   H     0.60728   0.69872   0.19084   0.00000  Uiso   1.00
H166   H     0.48244   0.53173   0.02050   0.00000  Uiso   1.00
H167   H     0.16354   0.73374   0.72366   0.00000  Uiso   1.00
H168   H     0.80257   0.73427   0.31089   0.00000  Uiso   1.00
H169   H     0.73699   0.66617   0.70319   0.00000  Uiso   1.00
H170   H     0.74431   0.60221   0.69489   0.00000  Uiso   1.00
H171   H     0.59306   0.69801   0.55410   0.00000  Uiso   1.00
H172   H     0.89610   0.69826   0.83259   0.00000  Uiso   1.00
H173   H     0.71685   0.53136   0.72973   0.00000  Uiso   1.00
H174   H     0.39795   0.73337   0.43288   0.00000  Uiso   1.00
H175   H     0.03698   0.73390   0.02012   0.00000  Uiso   1.00
O176   O     0.59949   0.48948   0.87576   0.00000  Uiso   1.00
O177   O     0.18111   0.75451   0.48632   0.00000  Uiso   1.00
O178   O     0.01951   0.75521   0.25676   0.00000  Uiso   1.00
N179   N     0.53662   0.54042   0.95322   0.00000  Uiso   1.00
N180   N     0.23846   0.72928   0.67568   0.00000  Uiso   1.00
N181   N     0.83589   0.72979   0.22469   0.00000  Uiso   1.00
N182   N     0.66276   0.54022   0.79676   0.00000  Uiso   1.00
N183   N     0.36460   0.72908   0.51922   0.00000  Uiso   1.00
N184   N     0.96203   0.72958   0.06823   0.00000  Uiso   1.00
