data_job_03608
_audit_creation_date              2018-12-19
_audit_creation_method            'Materials Studio'
_symmetry_space_group_name_H-M    'P1'
_symmetry_Int_Tables_number       1
_symmetry_cell_setting            triclinic
loop_
_symmetry_equiv_pos_as_xyz
  x,y,z
_cell_length_a                    13.8652
_cell_length_b                    20.8236
_cell_length_c                    31.0938
_cell_angle_alpha                 90.0000
_cell_angle_beta                  90.0000
_cell_angle_gamma                 90.0000
loop_
_atom_site_label
_atom_site_type_symbol
_atom_site_fract_x
_atom_site_fract_y
_atom_site_fract_z
_atom_site_U_iso_or_equiv
_atom_site_adp_type
_atom_site_occupancy
C1     C     0.87257   0.00323   0.14431   0.00000  Uiso   1.00
C2     C     0.92765   0.03838   0.10898   0.00000  Uiso   1.00
C3     C     0.01665   0.06807   0.11363   0.00000  Uiso   1.00
C4     C     0.05500   0.09765   0.07746   0.00000  Uiso   1.00
C5     C     0.14794   0.15228   0.02860   0.00000  Uiso   1.00
C6     C     0.77401   0.03549   0.14696   0.00000  Uiso   1.00
C7     C     0.73384   0.06274   0.18354   0.00000  Uiso   1.00
C8     C     0.64286   0.08987   0.17933   0.00000  Uiso   1.00
C9     C     0.49726   0.13997   0.18944   0.00000  Uiso   1.00
C10    C     0.85427   0.93564   0.12729   0.00000  Uiso   1.00
C11    C     0.88155   0.87894   0.14734   0.00000  Uiso   1.00
C12    C     0.85812   0.82201   0.12657   0.00000  Uiso   1.00
C13    C     0.83712   0.71708   0.10614   0.00000  Uiso   1.00
C14    C     0.78242   0.00296   0.07179   0.00000  Uiso   1.00
C15    C     0.87867   0.03824   0.06959   0.00000  Uiso   1.00
C16    C     0.91691   0.06778   0.03339   0.00000  Uiso   1.00
C17    C     0.00595   0.09750   0.03799   0.00000  Uiso   1.00
C18    C     0.72505   0.03535   0.10757   0.00000  Uiso   1.00
C19    C     0.63410   0.06244   0.10330   0.00000  Uiso   1.00
C20    C     0.59380   0.08973   0.13987   0.00000  Uiso   1.00
C21    C     0.80530   0.93550   0.08789   0.00000  Uiso   1.00
C22    C     0.78181   0.87865   0.06709   0.00000  Uiso   1.00
C23    C     0.80906   0.82187   0.08710   0.00000  Uiso   1.00
H24    H     0.91069   0.00334   0.17498   0.00000  Uiso   1.00
H25    H     0.05452   0.06817   0.14413   0.00000  Uiso   1.00
H26    H     0.77175   0.06283   0.21402   0.00000  Uiso   1.00
H27    H     0.91944   0.87907   0.17782   0.00000  Uiso   1.00
H28    H     0.19236   0.14001   0.09255   0.00000  Uiso   1.00
H29    H     0.59612   0.12873   0.23994   0.00000  Uiso   1.00
H30    H     0.90756   0.74122   0.16360   0.00000  Uiso   1.00
H31    H     0.74429   0.00285   0.04112   0.00000  Uiso   1.00
H32    H     0.87899   0.06766   0.00292   0.00000  Uiso   1.00
H33    H     0.59623   0.06232   0.07281   0.00000  Uiso   1.00
H34    H     0.74392   0.87855   0.03661   0.00000  Uiso   1.00
H35    H     0.04990   0.13959   0.97794   0.00000  Uiso   1.00
H36    H     0.45366   0.12831   0.12533   0.00000  Uiso   1.00
H37    H     0.76509   0.74080   0.04899   0.00000  Uiso   1.00
O38    O     0.21273   0.18246   0.01254   0.00000  Uiso   1.00
O39    O     0.43048   0.16765   0.20590   0.00000  Uiso   1.00
O40    O     0.83908   0.65925   0.10574   0.00000  Uiso   1.00
N41    N     0.14036   0.13100   0.07082   0.00000  Uiso   1.00
N42    N     0.58291   0.12047   0.20861   0.00000  Uiso   1.00
N43    N     0.87406   0.75818   0.13725   0.00000  Uiso   1.00
N44    N     0.06370   0.13078   0.00915   0.00000  Uiso   1.00
N45    N     0.50626   0.12025   0.14694   0.00000  Uiso   1.00
N46    N     0.79740   0.75796   0.07558   0.00000  Uiso   1.00
C47    C     0.37257   0.50323   0.14431   0.00000  Uiso   1.00
C48    C     0.42765   0.53838   0.10898   0.00000  Uiso   1.00
C49    C     0.51665   0.56807   0.11363   0.00000  Uiso   1.00
C50    C     0.55500   0.59765   0.07746   0.00000  Uiso   1.00
C51    C     0.64794   0.65228   0.02860   0.00000  Uiso   1.00
C52    C     0.27401   0.53549   0.14696   0.00000  Uiso   1.00
C53    C     0.23384   0.56274   0.18354   0.00000  Uiso   1.00
C54    C     0.14286   0.58987   0.17933   0.00000  Uiso   1.00
C55    C     0.99726   0.63997   0.18944   0.00000  Uiso   1.00
C56    C     0.35427   0.43564   0.12729   0.00000  Uiso   1.00
C57    C     0.38155   0.37894   0.14734   0.00000  Uiso   1.00
C58    C     0.35812   0.32201   0.12657   0.00000  Uiso   1.00
C59    C     0.33712   0.21708   0.10614   0.00000  Uiso   1.00
C60    C     0.28242   0.50296   0.07179   0.00000  Uiso   1.00
C61    C     0.37867   0.53824   0.06959   0.00000  Uiso   1.00
C62    C     0.41691   0.56778   0.03339   0.00000  Uiso   1.00
C63    C     0.50595   0.59750   0.03799   0.00000  Uiso   1.00
C64    C     0.22505   0.53535   0.10757   0.00000  Uiso   1.00
C65    C     0.13410   0.56244   0.10330   0.00000  Uiso   1.00
C66    C     0.09380   0.58973   0.13987   0.00000  Uiso   1.00
C67    C     0.30530   0.43550   0.08789   0.00000  Uiso   1.00
C68    C     0.28181   0.37865   0.06709   0.00000  Uiso   1.00
C69    C     0.30906   0.32187   0.08710   0.00000  Uiso   1.00
H70    H     0.41069   0.50334   0.17498   0.00000  Uiso   1.00
H71    H     0.55452   0.56817   0.14413   0.00000  Uiso   1.00
H72    H     0.27175   0.56283   0.21402   0.00000  Uiso   1.00
H73    H     0.41944   0.37907   0.17782   0.00000  Uiso   1.00
H74    H     0.69236   0.64001   0.09255   0.00000  Uiso   1.00
H75    H     0.09612   0.62873   0.23994   0.00000  Uiso   1.00
H76    H     0.40756   0.24122   0.16360   0.00000  Uiso   1.00
H77    H     0.24429   0.50285   0.04112   0.00000  Uiso   1.00
H78    H     0.37899   0.56766   0.00292   0.00000  Uiso   1.00
H79    H     0.09623   0.56232   0.07281   0.00000  Uiso   1.00
H80    H     0.24392   0.37855   0.03661   0.00000  Uiso   1.00
H81    H     0.54990   0.63959   0.97794   0.00000  Uiso   1.00
H82    H     0.95366   0.62831   0.12533   0.00000  Uiso   1.00
H83    H     0.26509   0.24080   0.04899   0.00000  Uiso   1.00
O84    O     0.71273   0.68246   0.01254   0.00000  Uiso   1.00
O85    O     0.93048   0.66765   0.20590   0.00000  Uiso   1.00
O86    O     0.33908   0.15925   0.10574   0.00000  Uiso   1.00
N87    N     0.64036   0.63100   0.07082   0.00000  Uiso   1.00
N88    N     0.08291   0.62047   0.20861   0.00000  Uiso   1.00
N89    N     0.37406   0.25818   0.13725   0.00000  Uiso   1.00
N90    N     0.56370   0.63078   0.00915   0.00000  Uiso   1.00
N91    N     0.00626   0.62025   0.14694   0.00000  Uiso   1.00
N92    N     0.29740   0.25796   0.07558   0.00000  Uiso   1.00
C93    C     0.12743   0.99677   0.64431   0.00000  Uiso   1.00
C94    C     0.07235   0.96162   0.60898   0.00000  Uiso   1.00
C95    C     0.98335   0.93193   0.61363   0.00000  Uiso   1.00
C96    C     0.94500   0.90235   0.57746   0.00000  Uiso   1.00
C97    C     0.85206   0.84772   0.52860   0.00000  Uiso   1.00
C98    C     0.22599   0.96451   0.64696   0.00000  Uiso   1.00
C99    C     0.26616   0.93726   0.68354   0.00000  Uiso   1.00
C100   C     0.35714   0.91013   0.67933   0.00000  Uiso   1.00
C101   C     0.50274   0.86003   0.68944   0.00000  Uiso   1.00
C102   C     0.14573   0.06436   0.62729   0.00000  Uiso   1.00
C103   C     0.11845   0.12106   0.64734   0.00000  Uiso   1.00
C104   C     0.14188   0.17799   0.62657   0.00000  Uiso   1.00
C105   C     0.16288   0.28292   0.60614   0.00000  Uiso   1.00
C106   C     0.21758   0.99704   0.57179   0.00000  Uiso   1.00
C107   C     0.12133   0.96176   0.56959   0.00000  Uiso   1.00
C108   C     0.08309   0.93222   0.53339   0.00000  Uiso   1.00
C109   C     0.99405   0.90250   0.53799   0.00000  Uiso   1.00
C110   C     0.27495   0.96465   0.60757   0.00000  Uiso   1.00
C111   C     0.36590   0.93756   0.60330   0.00000  Uiso   1.00
C112   C     0.40620   0.91027   0.63987   0.00000  Uiso   1.00
C113   C     0.19470   0.06450   0.58789   0.00000  Uiso   1.00
C114   C     0.21819   0.12135   0.56709   0.00000  Uiso   1.00
C115   C     0.19094   0.17813   0.58710   0.00000  Uiso   1.00
H116   H     0.08931   0.99666   0.67498   0.00000  Uiso   1.00
H117   H     0.94548   0.93183   0.64413   0.00000  Uiso   1.00
H118   H     0.22825   0.93717   0.71402   0.00000  Uiso   1.00
H119   H     0.08056   0.12093   0.67782   0.00000  Uiso   1.00
H120   H     0.80764   0.85999   0.59255   0.00000  Uiso   1.00
H121   H     0.40388   0.87127   0.73994   0.00000  Uiso   1.00
H122   H     0.09244   0.25878   0.66360   0.00000  Uiso   1.00
H123   H     0.25571   0.99715   0.54112   0.00000  Uiso   1.00
H124   H     0.12101   0.93234   0.50292   0.00000  Uiso   1.00
H125   H     0.40377   0.93768   0.57281   0.00000  Uiso   1.00
H126   H     0.25608   0.12145   0.53661   0.00000  Uiso   1.00
H127   H     0.95010   0.86041   0.47794   0.00000  Uiso   1.00
H128   H     0.54634   0.87169   0.62533   0.00000  Uiso   1.00
H129   H     0.23491   0.25920   0.54899   0.00000  Uiso   1.00
O130   O     0.78727   0.81754   0.51254   0.00000  Uiso   1.00
O131   O     0.56952   0.83235   0.70590   0.00000  Uiso   1.00
O132   O     0.16092   0.34075   0.60574   0.00000  Uiso   1.00
N133   N     0.85964   0.86900   0.57082   0.00000  Uiso   1.00
N134   N     0.41709   0.87953   0.70861   0.00000  Uiso   1.00
N135   N     0.12594   0.24182   0.63725   0.00000  Uiso   1.00
N136   N     0.93630   0.86922   0.50915   0.00000  Uiso   1.00
N137   N     0.49374   0.87975   0.64694   0.00000  Uiso   1.00
N138   N     0.20260   0.24204   0.57558   0.00000  Uiso   1.00
C139   C     0.62743   0.49677   0.64431   0.00000  Uiso   1.00
C140   C     0.57235   0.46162   0.60898   0.00000  Uiso   1.00
C141   C     0.48335   0.43193   0.61363   0.00000  Uiso   1.00
C142   C     0.44500   0.40235   0.57746   0.00000  Uiso   1.00
C143   C     0.35206   0.34772   0.52860   0.00000  Uiso   1.00
C144   C     0.72599   0.46451   0.64696   0.00000  Uiso   1.00
C145   C     0.76616   0.43726   0.68354   0.00000  Uiso   1.00
C146   C     0.85714   0.41013   0.67933   0.00000  Uiso   1.00
C147   C     0.00274   0.36003   0.68944   0.00000  Uiso   1.00
C148   C     0.64573   0.56436   0.62729   0.00000  Uiso   1.00
C149   C     0.61845   0.62106   0.64734   0.00000  Uiso   1.00
C150   C     0.64188   0.67799   0.62657   0.00000  Uiso   1.00
C151   C     0.66288   0.78292   0.60614   0.00000  Uiso   1.00
C152   C     0.71758   0.49704   0.57179   0.00000  Uiso   1.00
C153   C     0.62133   0.46176   0.56959   0.00000  Uiso   1.00
C154   C     0.58309   0.43222   0.53339   0.00000  Uiso   1.00
C155   C     0.49405   0.40250   0.53799   0.00000  Uiso   1.00
C156   C     0.77495   0.46465   0.60757   0.00000  Uiso   1.00
C157   C     0.86590   0.43756   0.60330   0.00000  Uiso   1.00
C158   C     0.90620   0.41027   0.63987   0.00000  Uiso   1.00
C159   C     0.69470   0.56450   0.58789   0.00000  Uiso   1.00
C160   C     0.71819   0.62135   0.56709   0.00000  Uiso   1.00
C161   C     0.69094   0.67813   0.58710   0.00000  Uiso   1.00
H162   H     0.58931   0.49666   0.67498   0.00000  Uiso   1.00
H163   H     0.44548   0.43183   0.64413   0.00000  Uiso   1.00
H164   H     0.72825   0.43717   0.71402   0.00000  Uiso   1.00
H165   H     0.58056   0.62093   0.67782   0.00000  Uiso   1.00
H166   H     0.30764   0.35999   0.59255   0.00000  Uiso   1.00
H167   H     0.90388   0.37127   0.73994   0.00000  Uiso   1.00
H168   H     0.59244   0.75878   0.66360   0.00000  Uiso   1.00
H169   H     0.75571   0.49715   0.54112   0.00000  Uiso   1.00
H170   H     0.62101   0.43234   0.50292   0.00000  Uiso   1.00
H171   H     0.90377   0.43768   0.57281   0.00000  Uiso   1.00
H172   H     0.75608   0.62145   0.53661   0.00000  Uiso   1.00
H173   H     0.45010   0.36041   0.47794   0.00000  Uiso   1.00
H174   H     0.04634   0.37169   0.62533   0.00000  Uiso   1.00
H175   H     0.73491   0.75920   0.54899   0.00000  Uiso   1.00
O176   O     0.28727   0.31754   0.51254   0.00000  Uiso   1.00
O177   O     0.06952   0.33235   0.70590   0.00000  Uiso   1.00
O178   O     0.66092   0.84075   0.60574   0.00000  Uiso   1.00
N179   N     0.35964   0.36900   0.57082   0.00000  Uiso   1.00
N180   N     0.91709   0.37953   0.70861   0.00000  Uiso   1.00
N181   N     0.62594   0.74182   0.63725   0.00000  Uiso   1.00
N182   N     0.43630   0.36922   0.50915   0.00000  Uiso   1.00
N183   N     0.99374   0.37975   0.64694   0.00000  Uiso   1.00
N184   N     0.70260   0.74204   0.57558   0.00000  Uiso   1.00
C185   C     0.12743   0.00323   0.35569   0.00000  Uiso   1.00
C186   C     0.07235   0.03838   0.39102   0.00000  Uiso   1.00
C187   C     0.98335   0.06807   0.38637   0.00000  Uiso   1.00
C188   C     0.94500   0.09765   0.42254   0.00000  Uiso   1.00
C189   C     0.85206   0.15228   0.47140   0.00000  Uiso   1.00
C190   C     0.22599   0.03549   0.35304   0.00000  Uiso   1.00
C191   C     0.26616   0.06274   0.31646   0.00000  Uiso   1.00
C192   C     0.35714   0.08987   0.32067   0.00000  Uiso   1.00
C193   C     0.50274   0.13997   0.31056   0.00000  Uiso   1.00
C194   C     0.14573   0.93564   0.37271   0.00000  Uiso   1.00
C195   C     0.11845   0.87894   0.35266   0.00000  Uiso   1.00
C196   C     0.14188   0.82201   0.37343   0.00000  Uiso   1.00
C197   C     0.16288   0.71708   0.39386   0.00000  Uiso   1.00
C198   C     0.21758   0.00296   0.42821   0.00000  Uiso   1.00
C199   C     0.12133   0.03824   0.43041   0.00000  Uiso   1.00
C200   C     0.08309   0.06778   0.46661   0.00000  Uiso   1.00
C201   C     0.99405   0.09750   0.46201   0.00000  Uiso   1.00
C202   C     0.27495   0.03535   0.39243   0.00000  Uiso   1.00
C203   C     0.36590   0.06244   0.39670   0.00000  Uiso   1.00
C204   C     0.40620   0.08973   0.36013   0.00000  Uiso   1.00
C205   C     0.19470   0.93550   0.41211   0.00000  Uiso   1.00
C206   C     0.21819   0.87865   0.43291   0.00000  Uiso   1.00
C207   C     0.19094   0.82187   0.41290   0.00000  Uiso   1.00
H208   H     0.08931   0.00334   0.32502   0.00000  Uiso   1.00
H209   H     0.94548   0.06817   0.35587   0.00000  Uiso   1.00
H210   H     0.22825   0.06283   0.28598   0.00000  Uiso   1.00
H211   H     0.08056   0.87907   0.32218   0.00000  Uiso   1.00
H212   H     0.80764   0.14001   0.40745   0.00000  Uiso   1.00
H213   H     0.40388   0.12873   0.26006   0.00000  Uiso   1.00
H214   H     0.09244   0.74122   0.33640   0.00000  Uiso   1.00
H215   H     0.25571   0.00285   0.45888   0.00000  Uiso   1.00
H216   H     0.12101   0.06766   0.49708   0.00000  Uiso   1.00
H217   H     0.40377   0.06232   0.42719   0.00000  Uiso   1.00
H218   H     0.25608   0.87855   0.46339   0.00000  Uiso   1.00
H219   H     0.95010   0.13959   0.52206   0.00000  Uiso   1.00
H220   H     0.54634   0.12831   0.37467   0.00000  Uiso   1.00
H221   H     0.23491   0.74080   0.45101   0.00000  Uiso   1.00
O222   O     0.78727   0.18246   0.48746   0.00000  Uiso   1.00
O223   O     0.56952   0.16765   0.29410   0.00000  Uiso   1.00
O224   O     0.16092   0.65925   0.39426   0.00000  Uiso   1.00
N225   N     0.85964   0.13100   0.42918   0.00000  Uiso   1.00
N226   N     0.41709   0.12047   0.29139   0.00000  Uiso   1.00
N227   N     0.12594   0.75818   0.36275   0.00000  Uiso   1.00
N228   N     0.93630   0.13078   0.49085   0.00000  Uiso   1.00
N229   N     0.49374   0.12025   0.35306   0.00000  Uiso   1.00
N230   N     0.20260   0.75796   0.42442   0.00000  Uiso   1.00
C231   C     0.62743   0.50323   0.35569   0.00000  Uiso   1.00
C232   C     0.57235   0.53838   0.39102   0.00000  Uiso   1.00
C233   C     0.48335   0.56807   0.38637   0.00000  Uiso   1.00
C234   C     0.44500   0.59765   0.42254   0.00000  Uiso   1.00
C235   C     0.35206   0.65228   0.47140   0.00000  Uiso   1.00
C236   C     0.72599   0.53549   0.35304   0.00000  Uiso   1.00
C237   C     0.76616   0.56274   0.31646   0.00000  Uiso   1.00
C238   C     0.85714   0.58987   0.32067   0.00000  Uiso   1.00
C239   C     0.00274   0.63997   0.31056   0.00000  Uiso   1.00
C240   C     0.64573   0.43564   0.37271   0.00000  Uiso   1.00
C241   C     0.61845   0.37894   0.35266   0.00000  Uiso   1.00
C242   C     0.64188   0.32201   0.37343   0.00000  Uiso   1.00
C243   C     0.66288   0.21708   0.39386   0.00000  Uiso   1.00
C244   C     0.71758   0.50296   0.42821   0.00000  Uiso   1.00
C245   C     0.62133   0.53824   0.43041   0.00000  Uiso   1.00
C246   C     0.58309   0.56778   0.46661   0.00000  Uiso   1.00
C247   C     0.49405   0.59750   0.46201   0.00000  Uiso   1.00
C248   C     0.77495   0.53535   0.39243   0.00000  Uiso   1.00
C249   C     0.86590   0.56244   0.39670   0.00000  Uiso   1.00
C250   C     0.90620   0.58973   0.36013   0.00000  Uiso   1.00
C251   C     0.69470   0.43550   0.41211   0.00000  Uiso   1.00
C252   C     0.71819   0.37865   0.43291   0.00000  Uiso   1.00
C253   C     0.69094   0.32187   0.41290   0.00000  Uiso   1.00
H254   H     0.58931   0.50334   0.32502   0.00000  Uiso   1.00
H255   H     0.44548   0.56817   0.35587   0.00000  Uiso   1.00
H256   H     0.72825   0.56283   0.28598   0.00000  Uiso   1.00
H257   H     0.58056   0.37907   0.32218   0.00000  Uiso   1.00
H258   H     0.30764   0.64001   0.40745   0.00000  Uiso   1.00
H259   H     0.90388   0.62873   0.26006   0.00000  Uiso   1.00
H260   H     0.59244   0.24122   0.33640   0.00000  Uiso   1.00
H261   H     0.75571   0.50285   0.45888   0.00000  Uiso   1.00
H262   H     0.62101   0.56766   0.49708   0.00000  Uiso   1.00
H263   H     0.90377   0.56232   0.42719   0.00000  Uiso   1.00
H264   H     0.75608   0.37855   0.46339   0.00000  Uiso   1.00
H265   H     0.45010   0.63959   0.52206   0.00000  Uiso   1.00
H266   H     0.04634   0.62831   0.37467   0.00000  Uiso   1.00
H267   H     0.73491   0.24080   0.45101   0.00000  Uiso   1.00
O268   O     0.28727   0.68246   0.48746   0.00000  Uiso   1.00
O269   O     0.06952   0.66765   0.29410   0.00000  Uiso   1.00
O270   O     0.66092   0.15925   0.39426   0.00000  Uiso   1.00
N271   N     0.35964   0.63100   0.42918   0.00000  Uiso   1.00
N272   N     0.91709   0.62047   0.29139   0.00000  Uiso   1.00
N273   N     0.62594   0.25818   0.36275   0.00000  Uiso   1.00
N274   N     0.43630   0.63078   0.49085   0.00000  Uiso   1.00
N275   N     0.99374   0.62025   0.35306   0.00000  Uiso   1.00
N276   N     0.70260   0.25796   0.42442   0.00000  Uiso   1.00
C277   C     0.87257   0.99677   0.85569   0.00000  Uiso   1.00
C278   C     0.92765   0.96162   0.89102   0.00000  Uiso   1.00
C279   C     0.01665   0.93193   0.88637   0.00000  Uiso   1.00
C280   C     0.05500   0.90235   0.92254   0.00000  Uiso   1.00
C281   C     0.14794   0.84772   0.97140   0.00000  Uiso   1.00
C282   C     0.77401   0.96451   0.85304   0.00000  Uiso   1.00
C283   C     0.73384   0.93726   0.81646   0.00000  Uiso   1.00
C284   C     0.64286   0.91013   0.82067   0.00000  Uiso   1.00
C285   C     0.49726   0.86003   0.81056   0.00000  Uiso   1.00
C286   C     0.85427   0.06436   0.87271   0.00000  Uiso   1.00
C287   C     0.88155   0.12106   0.85266   0.00000  Uiso   1.00
C288   C     0.85812   0.17799   0.87343   0.00000  Uiso   1.00
C289   C     0.83712   0.28292   0.89386   0.00000  Uiso   1.00
C290   C     0.78242   0.99704   0.92821   0.00000  Uiso   1.00
C291   C     0.87867   0.96176   0.93041   0.00000  Uiso   1.00
C292   C     0.91691   0.93222   0.96661   0.00000  Uiso   1.00
C293   C     0.00595   0.90250   0.96201   0.00000  Uiso   1.00
C294   C     0.72505   0.96465   0.89243   0.00000  Uiso   1.00
C295   C     0.63410   0.93756   0.89670   0.00000  Uiso   1.00
C296   C     0.59380   0.91027   0.86013   0.00000  Uiso   1.00
C297   C     0.80530   0.06450   0.91211   0.00000  Uiso   1.00
C298   C     0.78181   0.12135   0.93291   0.00000  Uiso   1.00
C299   C     0.80906   0.17813   0.91290   0.00000  Uiso   1.00
H300   H     0.91069   0.99666   0.82502   0.00000  Uiso   1.00
H301   H     0.05452   0.93183   0.85587   0.00000  Uiso   1.00
H302   H     0.77175   0.93717   0.78598   0.00000  Uiso   1.00
H303   H     0.91944   0.12093   0.82218   0.00000  Uiso   1.00
H304   H     0.19236   0.85999   0.90745   0.00000  Uiso   1.00
H305   H     0.59612   0.87127   0.76006   0.00000  Uiso   1.00
H306   H     0.90756   0.25878   0.83640   0.00000  Uiso   1.00
H307   H     0.74429   0.99715   0.95888   0.00000  Uiso   1.00
H308   H     0.87899   0.93234   0.99708   0.00000  Uiso   1.00
H309   H     0.59623   0.93768   0.92719   0.00000  Uiso   1.00
H310   H     0.74392   0.12145   0.96339   0.00000  Uiso   1.00
H311   H     0.04990   0.86041   0.02206   0.00000  Uiso   1.00
H312   H     0.45366   0.87169   0.87467   0.00000  Uiso   1.00
H313   H     0.76509   0.25920   0.95101   0.00000  Uiso   1.00
O314   O     0.21273   0.81754   0.98746   0.00000  Uiso   1.00
O315   O     0.43048   0.83235   0.79410   0.00000  Uiso   1.00
O316   O     0.83908   0.34075   0.89426   0.00000  Uiso   1.00
N317   N     0.14036   0.86900   0.92918   0.00000  Uiso   1.00
N318   N     0.58291   0.87953   0.79139   0.00000  Uiso   1.00
N319   N     0.87406   0.24182   0.86275   0.00000  Uiso   1.00
N320   N     0.06370   0.86922   0.99085   0.00000  Uiso   1.00
N321   N     0.50626   0.87975   0.85306   0.00000  Uiso   1.00
N322   N     0.79740   0.24204   0.92442   0.00000  Uiso   1.00
C323   C     0.37257   0.49677   0.85569   0.00000  Uiso   1.00
C324   C     0.42765   0.46162   0.89102   0.00000  Uiso   1.00
C325   C     0.51665   0.43193   0.88637   0.00000  Uiso   1.00
C326   C     0.55500   0.40235   0.92254   0.00000  Uiso   1.00
C327   C     0.64794   0.34772   0.97140   0.00000  Uiso   1.00
C328   C     0.27401   0.46451   0.85304   0.00000  Uiso   1.00
C329   C     0.23384   0.43726   0.81646   0.00000  Uiso   1.00
C330   C     0.14286   0.41013   0.82067   0.00000  Uiso   1.00
C331   C     0.99726   0.36003   0.81056   0.00000  Uiso   1.00
C332   C     0.35427   0.56436   0.87271   0.00000  Uiso   1.00
C333   C     0.38155   0.62106   0.85266   0.00000  Uiso   1.00
C334   C     0.35812   0.67799   0.87343   0.00000  Uiso   1.00
C335   C     0.33712   0.78292   0.89386   0.00000  Uiso   1.00
C336   C     0.28242   0.49704   0.92821   0.00000  Uiso   1.00
C337   C     0.37867   0.46176   0.93041   0.00000  Uiso   1.00
C338   C     0.41691   0.43222   0.96661   0.00000  Uiso   1.00
C339   C     0.50595   0.40250   0.96201   0.00000  Uiso   1.00
C340   C     0.22505   0.46465   0.89243   0.00000  Uiso   1.00
C341   C     0.13410   0.43756   0.89670   0.00000  Uiso   1.00
C342   C     0.09380   0.41027   0.86013   0.00000  Uiso   1.00
C343   C     0.30530   0.56450   0.91211   0.00000  Uiso   1.00
C344   C     0.28181   0.62135   0.93291   0.00000  Uiso   1.00
C345   C     0.30906   0.67813   0.91290   0.00000  Uiso   1.00
H346   H     0.41069   0.49666   0.82502   0.00000  Uiso   1.00
H347   H     0.55452   0.43183   0.85587   0.00000  Uiso   1.00
H348   H     0.27175   0.43717   0.78598   0.00000  Uiso   1.00
H349   H     0.41944   0.62093   0.82218   0.00000  Uiso   1.00
H350   H     0.69236   0.35999   0.90745   0.00000  Uiso   1.00
H351   H     0.09612   0.37127   0.76006   0.00000  Uiso   1.00
H352   H     0.40756   0.75878   0.83640   0.00000  Uiso   1.00
H353   H     0.24429   0.49715   0.95888   0.00000  Uiso   1.00
H354   H     0.37899   0.43234   0.99708   0.00000  Uiso   1.00
H355   H     0.09623   0.43768   0.92719   0.00000  Uiso   1.00
H356   H     0.24392   0.62145   0.96339   0.00000  Uiso   1.00
H357   H     0.54990   0.36041   0.02206   0.00000  Uiso   1.00
H358   H     0.95366   0.37169   0.87467   0.00000  Uiso   1.00
H359   H     0.26509   0.75920   0.95101   0.00000  Uiso   1.00
O360   O     0.71273   0.31754   0.98746   0.00000  Uiso   1.00
O361   O     0.93048   0.33235   0.79410   0.00000  Uiso   1.00
O362   O     0.33908   0.84075   0.89426   0.00000  Uiso   1.00
N363   N     0.64036   0.36900   0.92918   0.00000  Uiso   1.00
N364   N     0.08291   0.37953   0.79139   0.00000  Uiso   1.00
N365   N     0.37406   0.74182   0.86275   0.00000  Uiso   1.00
N366   N     0.56370   0.36922   0.99085   0.00000  Uiso   1.00
N367   N     0.00626   0.37975   0.85306   0.00000  Uiso   1.00
N368   N     0.29740   0.74204   0.92442   0.00000  Uiso   1.00
