data_job_01496
_audit_creation_date              2018-12-19
_audit_creation_method            'Materials Studio'
_symmetry_space_group_name_H-M    'P1'
_symmetry_Int_Tables_number       1
_symmetry_cell_setting            triclinic
loop_
_symmetry_equiv_pos_as_xyz
  x,y,z
_cell_length_a                    13.4152
_cell_length_b                    13.4152
_cell_length_c                    30.4620
_cell_angle_alpha                 90.0000
_cell_angle_beta                  90.0000
_cell_angle_gamma                 90.0000
loop_
_atom_site_label
_atom_site_type_symbol
_atom_site_fract_x
_atom_site_fract_y
_atom_site_fract_z
_atom_site_U_iso_or_equiv
_atom_site_adp_type
_atom_site_occupancy
C1     C     0.70761   0.69656   0.07145   0.00000  Uiso   1.00
C2     C     0.76857   0.69168   0.02926   0.00000  Uiso   1.00
C3     C     0.78509   0.77029   0.00056   0.00000  Uiso   1.00
C4     C     0.84292   0.75067   0.96376   0.00000  Uiso   1.00
C5     C     0.93149   0.75750   0.89941   0.00000  Uiso   1.00
C6     C     0.62756   0.61642   0.06722   0.00000  Uiso   1.00
C7     C     0.52551   0.63178   0.07045   0.00000  Uiso   1.00
C8     C     0.46463   0.54880   0.06562   0.00000  Uiso   1.00
C9     C     0.33427   0.43880   0.06025   0.00000  Uiso   1.00
C10    C     0.77693   0.66188   0.10807   0.00000  Uiso   1.00
C11    C     0.80045   0.71544   0.14565   0.00000  Uiso   1.00
C12    C     0.86531   0.67073   0.17521   0.00000  Uiso   1.00
C13    C     0.96687   0.63131   0.23325   0.00000  Uiso   1.00
C14    C     0.78093   0.52190   0.05714   0.00000  Uiso   1.00
C15    C     0.80840   0.59681   0.02149   0.00000  Uiso   1.00
C16    C     0.86622   0.57706   0.98472   0.00000  Uiso   1.00
C17    C     0.88282   0.65563   0.95597   0.00000  Uiso   1.00
C18    C     0.66738   0.52156   0.05945   0.00000  Uiso   1.00
C19    C     0.60664   0.43854   0.05462   0.00000  Uiso   1.00
C20    C     0.50453   0.45376   0.05783   0.00000  Uiso   1.00
C21    C     0.81676   0.56702   0.10030   0.00000  Uiso   1.00
C22    C     0.88158   0.52221   0.12981   0.00000  Uiso   1.00
C23    C     0.90521   0.57569   0.16742   0.00000  Uiso   1.00
H24    H     0.67659   0.77041   0.07751   0.00000  Uiso   1.00
H25    H     0.75425   0.84370   0.00658   0.00000  Uiso   1.00
H26    H     0.49471   0.70520   0.07647   0.00000  Uiso   1.00
H27    H     0.76961   0.78885   0.15165   0.00000  Uiso   1.00
H28    H     0.85788   0.88310   0.92451   0.00000  Uiso   1.00
H29    H     0.31064   0.59106   0.07189   0.00000  Uiso   1.00
H30    H     0.89032   0.76746   0.23042   0.00000  Uiso   1.00
H31    H     0.81194   0.44804   0.05109   0.00000  Uiso   1.00
H32    H     0.89703   0.50364   0.97872   0.00000  Uiso   1.00
H33    H     0.63749   0.36514   0.04860   0.00000  Uiso   1.00
H34    H     0.91239   0.44879   0.12378   0.00000  Uiso   1.00
H35    H     0.97376   0.60709   0.90189   0.00000  Uiso   1.00
H36    H     0.42652   0.31505   0.04928   0.00000  Uiso   1.00
H37    H     0.00620   0.49146   0.20780   0.00000  Uiso   1.00
O38    O     0.96932   0.78748   0.86606   0.00000  Uiso   1.00
O39    O     0.25136   0.40433   0.05943   0.00000  Uiso   1.00
O40    O     0.01190   0.63577   0.26741   0.00000  Uiso   1.00
N41    N     0.87349   0.81052   0.92913   0.00000  Uiso   1.00
N42    N     0.36185   0.53748   0.06691   0.00000  Uiso   1.00
N43    N     0.90378   0.70239   0.21513   0.00000  Uiso   1.00
N44    N     0.93585   0.66200   0.91696   0.00000  Uiso   1.00
N45    N     0.42421   0.38896   0.05474   0.00000  Uiso   1.00
N46    N     0.96614   0.55388   0.20296   0.00000  Uiso   1.00
C47    C     0.29239   0.30344   0.57145   0.00000  Uiso   1.00
C48    C     0.23143   0.30832   0.52926   0.00000  Uiso   1.00
C49    C     0.21491   0.22971   0.50056   0.00000  Uiso   1.00
C50    C     0.15708   0.24933   0.46376   0.00000  Uiso   1.00
C51    C     0.06851   0.24250   0.39941   0.00000  Uiso   1.00
C52    C     0.37244   0.38358   0.56722   0.00000  Uiso   1.00
C53    C     0.47449   0.36822   0.57045   0.00000  Uiso   1.00
C54    C     0.53537   0.45120   0.56562   0.00000  Uiso   1.00
C55    C     0.66573   0.56120   0.56025   0.00000  Uiso   1.00
C56    C     0.22307   0.33812   0.60807   0.00000  Uiso   1.00
C57    C     0.19955   0.28456   0.64565   0.00000  Uiso   1.00
C58    C     0.13469   0.32927   0.67521   0.00000  Uiso   1.00
C59    C     0.03313   0.36869   0.73325   0.00000  Uiso   1.00
C60    C     0.21907   0.47810   0.55714   0.00000  Uiso   1.00
C61    C     0.19160   0.40319   0.52149   0.00000  Uiso   1.00
C62    C     0.13378   0.42294   0.48472   0.00000  Uiso   1.00
C63    C     0.11718   0.34437   0.45597   0.00000  Uiso   1.00
C64    C     0.33262   0.47844   0.55945   0.00000  Uiso   1.00
C65    C     0.39336   0.56146   0.55462   0.00000  Uiso   1.00
C66    C     0.49547   0.54624   0.55783   0.00000  Uiso   1.00
C67    C     0.18324   0.43298   0.60030   0.00000  Uiso   1.00
C68    C     0.11842   0.47779   0.62981   0.00000  Uiso   1.00
C69    C     0.09479   0.42431   0.66742   0.00000  Uiso   1.00
H70    H     0.32341   0.22959   0.57751   0.00000  Uiso   1.00
H71    H     0.24575   0.15630   0.50658   0.00000  Uiso   1.00
H72    H     0.50529   0.29480   0.57647   0.00000  Uiso   1.00
H73    H     0.23039   0.21115   0.65165   0.00000  Uiso   1.00
H74    H     0.14212   0.11690   0.42451   0.00000  Uiso   1.00
H75    H     0.68936   0.40894   0.57189   0.00000  Uiso   1.00
H76    H     0.10968   0.23254   0.73042   0.00000  Uiso   1.00
H77    H     0.18806   0.55196   0.55109   0.00000  Uiso   1.00
H78    H     0.10297   0.49636   0.47872   0.00000  Uiso   1.00
H79    H     0.36251   0.63486   0.54860   0.00000  Uiso   1.00
H80    H     0.08761   0.55121   0.62378   0.00000  Uiso   1.00
H81    H     0.02624   0.39291   0.40189   0.00000  Uiso   1.00
H82    H     0.57348   0.68495   0.54928   0.00000  Uiso   1.00
H83    H     0.99380   0.50854   0.70780   0.00000  Uiso   1.00
O84    O     0.03068   0.21252   0.36606   0.00000  Uiso   1.00
O85    O     0.74864   0.59567   0.55943   0.00000  Uiso   1.00
O86    O     0.98810   0.36423   0.76741   0.00000  Uiso   1.00
N87    N     0.12651   0.18948   0.42913   0.00000  Uiso   1.00
N88    N     0.63815   0.46252   0.56691   0.00000  Uiso   1.00
N89    N     0.09622   0.29761   0.71513   0.00000  Uiso   1.00
N90    N     0.06415   0.33800   0.41696   0.00000  Uiso   1.00
N91    N     0.57579   0.61104   0.55474   0.00000  Uiso   1.00
N92    N     0.03386   0.44612   0.70296   0.00000  Uiso   1.00
C93    C     0.30344   0.70761   0.32145   0.00000  Uiso   1.00
C94    C     0.30832   0.76857   0.27926   0.00000  Uiso   1.00
C95    C     0.22971   0.78509   0.25056   0.00000  Uiso   1.00
C96    C     0.24933   0.84292   0.21376   0.00000  Uiso   1.00
C97    C     0.24250   0.93149   0.14941   0.00000  Uiso   1.00
C98    C     0.38358   0.62756   0.31722   0.00000  Uiso   1.00
C99    C     0.36822   0.52551   0.32045   0.00000  Uiso   1.00
C100   C     0.45120   0.46463   0.31562   0.00000  Uiso   1.00
C101   C     0.56120   0.33427   0.31025   0.00000  Uiso   1.00
C102   C     0.33812   0.77693   0.35807   0.00000  Uiso   1.00
C103   C     0.28456   0.80045   0.39565   0.00000  Uiso   1.00
C104   C     0.32927   0.86531   0.42521   0.00000  Uiso   1.00
C105   C     0.36869   0.96687   0.48325   0.00000  Uiso   1.00
C106   C     0.47810   0.78093   0.30714   0.00000  Uiso   1.00
C107   C     0.40319   0.80840   0.27149   0.00000  Uiso   1.00
C108   C     0.42294   0.86622   0.23472   0.00000  Uiso   1.00
C109   C     0.34437   0.88282   0.20597   0.00000  Uiso   1.00
C110   C     0.47844   0.66738   0.30945   0.00000  Uiso   1.00
C111   C     0.56146   0.60664   0.30462   0.00000  Uiso   1.00
C112   C     0.54624   0.50453   0.30783   0.00000  Uiso   1.00
C113   C     0.43298   0.81676   0.35030   0.00000  Uiso   1.00
C114   C     0.47779   0.88158   0.37981   0.00000  Uiso   1.00
C115   C     0.42431   0.90521   0.41742   0.00000  Uiso   1.00
H116   H     0.22959   0.67659   0.32751   0.00000  Uiso   1.00
H117   H     0.15630   0.75425   0.25658   0.00000  Uiso   1.00
H118   H     0.29480   0.49471   0.32647   0.00000  Uiso   1.00
H119   H     0.21115   0.76961   0.40165   0.00000  Uiso   1.00
H120   H     0.11690   0.85788   0.17451   0.00000  Uiso   1.00
H121   H     0.40894   0.31064   0.32189   0.00000  Uiso   1.00
H122   H     0.23254   0.89032   0.48042   0.00000  Uiso   1.00
H123   H     0.55196   0.81194   0.30109   0.00000  Uiso   1.00
H124   H     0.49636   0.89703   0.22872   0.00000  Uiso   1.00
H125   H     0.63486   0.63749   0.29860   0.00000  Uiso   1.00
H126   H     0.55121   0.91239   0.37378   0.00000  Uiso   1.00
H127   H     0.39291   0.97376   0.15189   0.00000  Uiso   1.00
H128   H     0.68495   0.42652   0.29928   0.00000  Uiso   1.00
H129   H     0.50854   0.00620   0.45780   0.00000  Uiso   1.00
O130   O     0.21252   0.96932   0.11606   0.00000  Uiso   1.00
O131   O     0.59567   0.25136   0.30943   0.00000  Uiso   1.00
O132   O     0.36423   0.01190   0.51741   0.00000  Uiso   1.00
N133   N     0.18948   0.87349   0.17913   0.00000  Uiso   1.00
N134   N     0.46252   0.36185   0.31691   0.00000  Uiso   1.00
N135   N     0.29761   0.90378   0.46513   0.00000  Uiso   1.00
N136   N     0.33800   0.93585   0.16696   0.00000  Uiso   1.00
N137   N     0.61104   0.42421   0.30474   0.00000  Uiso   1.00
N138   N     0.44612   0.96614   0.45296   0.00000  Uiso   1.00
C139   C     0.69656   0.29239   0.82145   0.00000  Uiso   1.00
C140   C     0.69168   0.23143   0.77926   0.00000  Uiso   1.00
C141   C     0.77029   0.21491   0.75056   0.00000  Uiso   1.00
C142   C     0.75067   0.15708   0.71376   0.00000  Uiso   1.00
C143   C     0.75750   0.06851   0.64941   0.00000  Uiso   1.00
C144   C     0.61642   0.37244   0.81722   0.00000  Uiso   1.00
C145   C     0.63178   0.47449   0.82045   0.00000  Uiso   1.00
C146   C     0.54880   0.53537   0.81562   0.00000  Uiso   1.00
C147   C     0.43880   0.66573   0.81025   0.00000  Uiso   1.00
C148   C     0.66188   0.22307   0.85807   0.00000  Uiso   1.00
C149   C     0.71544   0.19955   0.89565   0.00000  Uiso   1.00
C150   C     0.67073   0.13469   0.92521   0.00000  Uiso   1.00
C151   C     0.63131   0.03313   0.98325   0.00000  Uiso   1.00
C152   C     0.52190   0.21907   0.80714   0.00000  Uiso   1.00
C153   C     0.59681   0.19160   0.77149   0.00000  Uiso   1.00
C154   C     0.57706   0.13378   0.73472   0.00000  Uiso   1.00
C155   C     0.65563   0.11718   0.70597   0.00000  Uiso   1.00
C156   C     0.52156   0.33262   0.80945   0.00000  Uiso   1.00
C157   C     0.43854   0.39336   0.80462   0.00000  Uiso   1.00
C158   C     0.45376   0.49547   0.80783   0.00000  Uiso   1.00
C159   C     0.56702   0.18324   0.85030   0.00000  Uiso   1.00
C160   C     0.52221   0.11842   0.87981   0.00000  Uiso   1.00
C161   C     0.57569   0.09479   0.91742   0.00000  Uiso   1.00
H162   H     0.77041   0.32341   0.82751   0.00000  Uiso   1.00
H163   H     0.84370   0.24575   0.75658   0.00000  Uiso   1.00
H164   H     0.70520   0.50529   0.82647   0.00000  Uiso   1.00
H165   H     0.78885   0.23039   0.90165   0.00000  Uiso   1.00
H166   H     0.88310   0.14212   0.67451   0.00000  Uiso   1.00
H167   H     0.59106   0.68936   0.82189   0.00000  Uiso   1.00
H168   H     0.76746   0.10968   0.98042   0.00000  Uiso   1.00
H169   H     0.44804   0.18806   0.80109   0.00000  Uiso   1.00
H170   H     0.50364   0.10297   0.72872   0.00000  Uiso   1.00
H171   H     0.36514   0.36251   0.79860   0.00000  Uiso   1.00
H172   H     0.44879   0.08761   0.87378   0.00000  Uiso   1.00
H173   H     0.60709   0.02624   0.65189   0.00000  Uiso   1.00
H174   H     0.31505   0.57348   0.79928   0.00000  Uiso   1.00
H175   H     0.49146   0.99380   0.95780   0.00000  Uiso   1.00
O176   O     0.78748   0.03068   0.61606   0.00000  Uiso   1.00
O177   O     0.40433   0.74864   0.80943   0.00000  Uiso   1.00
O178   O     0.63577   0.98810   0.01741   0.00000  Uiso   1.00
N179   N     0.81052   0.12651   0.67913   0.00000  Uiso   1.00
N180   N     0.53748   0.63815   0.81691   0.00000  Uiso   1.00
N181   N     0.70239   0.09622   0.96513   0.00000  Uiso   1.00
N182   N     0.66200   0.06415   0.66696   0.00000  Uiso   1.00
N183   N     0.38896   0.57579   0.80474   0.00000  Uiso   1.00
N184   N     0.55388   0.03386   0.95296   0.00000  Uiso   1.00
C185   C     0.29239   0.69656   0.92855   0.00000  Uiso   1.00
C186   C     0.23143   0.69168   0.97074   0.00000  Uiso   1.00
C187   C     0.21491   0.77029   0.99944   0.00000  Uiso   1.00
C188   C     0.15708   0.75067   0.03624   0.00000  Uiso   1.00
C189   C     0.06851   0.75750   0.10059   0.00000  Uiso   1.00
C190   C     0.37244   0.61642   0.93278   0.00000  Uiso   1.00
C191   C     0.47449   0.63178   0.92955   0.00000  Uiso   1.00
C192   C     0.53537   0.54880   0.93438   0.00000  Uiso   1.00
C193   C     0.66573   0.43880   0.93975   0.00000  Uiso   1.00
C194   C     0.22307   0.66188   0.89193   0.00000  Uiso   1.00
C195   C     0.19955   0.71544   0.85435   0.00000  Uiso   1.00
C196   C     0.13469   0.67073   0.82479   0.00000  Uiso   1.00
C197   C     0.03313   0.63131   0.76675   0.00000  Uiso   1.00
C198   C     0.21907   0.52190   0.94286   0.00000  Uiso   1.00
C199   C     0.19160   0.59681   0.97851   0.00000  Uiso   1.00
C200   C     0.13378   0.57706   0.01528   0.00000  Uiso   1.00
C201   C     0.11718   0.65563   0.04403   0.00000  Uiso   1.00
C202   C     0.33262   0.52156   0.94055   0.00000  Uiso   1.00
C203   C     0.39336   0.43854   0.94538   0.00000  Uiso   1.00
C204   C     0.49547   0.45376   0.94217   0.00000  Uiso   1.00
C205   C     0.18324   0.56702   0.89970   0.00000  Uiso   1.00
C206   C     0.11842   0.52221   0.87019   0.00000  Uiso   1.00
C207   C     0.09479   0.57569   0.83258   0.00000  Uiso   1.00
H208   H     0.32341   0.77041   0.92249   0.00000  Uiso   1.00
H209   H     0.24575   0.84370   0.99342   0.00000  Uiso   1.00
H210   H     0.50529   0.70520   0.92353   0.00000  Uiso   1.00
H211   H     0.23039   0.78885   0.84835   0.00000  Uiso   1.00
H212   H     0.14212   0.88310   0.07549   0.00000  Uiso   1.00
H213   H     0.68936   0.59106   0.92811   0.00000  Uiso   1.00
H214   H     0.10968   0.76746   0.76958   0.00000  Uiso   1.00
H215   H     0.18806   0.44804   0.94891   0.00000  Uiso   1.00
H216   H     0.10297   0.50364   0.02128   0.00000  Uiso   1.00
H217   H     0.36251   0.36514   0.95140   0.00000  Uiso   1.00
H218   H     0.08761   0.44879   0.87622   0.00000  Uiso   1.00
H219   H     0.02624   0.60709   0.09811   0.00000  Uiso   1.00
H220   H     0.57348   0.31505   0.95072   0.00000  Uiso   1.00
H221   H     0.99380   0.49146   0.79220   0.00000  Uiso   1.00
O222   O     0.03068   0.78748   0.13394   0.00000  Uiso   1.00
O223   O     0.74864   0.40433   0.94057   0.00000  Uiso   1.00
O224   O     0.98810   0.63577   0.73259   0.00000  Uiso   1.00
N225   N     0.12651   0.81052   0.07087   0.00000  Uiso   1.00
N226   N     0.63815   0.53748   0.93309   0.00000  Uiso   1.00
N227   N     0.09622   0.70239   0.78487   0.00000  Uiso   1.00
N228   N     0.06415   0.66200   0.08304   0.00000  Uiso   1.00
N229   N     0.57579   0.38896   0.94526   0.00000  Uiso   1.00
N230   N     0.03386   0.55388   0.79704   0.00000  Uiso   1.00
C231   C     0.70761   0.30344   0.42855   0.00000  Uiso   1.00
C232   C     0.76857   0.30832   0.47074   0.00000  Uiso   1.00
C233   C     0.78509   0.22971   0.49944   0.00000  Uiso   1.00
C234   C     0.84292   0.24933   0.53624   0.00000  Uiso   1.00
C235   C     0.93149   0.24250   0.60059   0.00000  Uiso   1.00
C236   C     0.62756   0.38358   0.43278   0.00000  Uiso   1.00
C237   C     0.52551   0.36822   0.42955   0.00000  Uiso   1.00
C238   C     0.46463   0.45120   0.43438   0.00000  Uiso   1.00
C239   C     0.33427   0.56120   0.43975   0.00000  Uiso   1.00
C240   C     0.77693   0.33812   0.39193   0.00000  Uiso   1.00
C241   C     0.80045   0.28456   0.35435   0.00000  Uiso   1.00
C242   C     0.86531   0.32927   0.32479   0.00000  Uiso   1.00
C243   C     0.96687   0.36869   0.26675   0.00000  Uiso   1.00
C244   C     0.78093   0.47810   0.44286   0.00000  Uiso   1.00
C245   C     0.80840   0.40319   0.47851   0.00000  Uiso   1.00
C246   C     0.86622   0.42294   0.51528   0.00000  Uiso   1.00
C247   C     0.88282   0.34437   0.54403   0.00000  Uiso   1.00
C248   C     0.66738   0.47844   0.44055   0.00000  Uiso   1.00
C249   C     0.60664   0.56146   0.44538   0.00000  Uiso   1.00
C250   C     0.50453   0.54624   0.44217   0.00000  Uiso   1.00
C251   C     0.81676   0.43298   0.39970   0.00000  Uiso   1.00
C252   C     0.88158   0.47779   0.37019   0.00000  Uiso   1.00
C253   C     0.90521   0.42431   0.33258   0.00000  Uiso   1.00
H254   H     0.67659   0.22959   0.42249   0.00000  Uiso   1.00
H255   H     0.75425   0.15630   0.49342   0.00000  Uiso   1.00
H256   H     0.49471   0.29480   0.42353   0.00000  Uiso   1.00
H257   H     0.76961   0.21115   0.34835   0.00000  Uiso   1.00
H258   H     0.85788   0.11690   0.57549   0.00000  Uiso   1.00
H259   H     0.31064   0.40894   0.42811   0.00000  Uiso   1.00
H260   H     0.89032   0.23254   0.26958   0.00000  Uiso   1.00
H261   H     0.81194   0.55196   0.44891   0.00000  Uiso   1.00
H262   H     0.89703   0.49636   0.52128   0.00000  Uiso   1.00
H263   H     0.63749   0.63486   0.45140   0.00000  Uiso   1.00
H264   H     0.91239   0.55121   0.37622   0.00000  Uiso   1.00
H265   H     0.97376   0.39291   0.59811   0.00000  Uiso   1.00
H266   H     0.42652   0.68495   0.45072   0.00000  Uiso   1.00
H267   H     0.00620   0.50854   0.29220   0.00000  Uiso   1.00
O268   O     0.96932   0.21252   0.63394   0.00000  Uiso   1.00
O269   O     0.25136   0.59567   0.44057   0.00000  Uiso   1.00
O270   O     0.01190   0.36423   0.23259   0.00000  Uiso   1.00
N271   N     0.87349   0.18948   0.57087   0.00000  Uiso   1.00
N272   N     0.36185   0.46252   0.43309   0.00000  Uiso   1.00
N273   N     0.90378   0.29761   0.28487   0.00000  Uiso   1.00
N274   N     0.93585   0.33800   0.58304   0.00000  Uiso   1.00
N275   N     0.42421   0.61104   0.44526   0.00000  Uiso   1.00
N276   N     0.96614   0.44612   0.29704   0.00000  Uiso   1.00
C277   C     0.69656   0.70761   0.67855   0.00000  Uiso   1.00
C278   C     0.69168   0.76857   0.72074   0.00000  Uiso   1.00
C279   C     0.77029   0.78509   0.74944   0.00000  Uiso   1.00
C280   C     0.75067   0.84292   0.78624   0.00000  Uiso   1.00
C281   C     0.75750   0.93149   0.85059   0.00000  Uiso   1.00
C282   C     0.61642   0.62756   0.68278   0.00000  Uiso   1.00
C283   C     0.63178   0.52551   0.67955   0.00000  Uiso   1.00
C284   C     0.54880   0.46463   0.68438   0.00000  Uiso   1.00
C285   C     0.43880   0.33427   0.68975   0.00000  Uiso   1.00
C286   C     0.66188   0.77693   0.64193   0.00000  Uiso   1.00
C287   C     0.71544   0.80045   0.60435   0.00000  Uiso   1.00
C288   C     0.67073   0.86531   0.57479   0.00000  Uiso   1.00
C289   C     0.63131   0.96687   0.51675   0.00000  Uiso   1.00
C290   C     0.52190   0.78093   0.69286   0.00000  Uiso   1.00
C291   C     0.59681   0.80840   0.72851   0.00000  Uiso   1.00
C292   C     0.57706   0.86622   0.76528   0.00000  Uiso   1.00
C293   C     0.65563   0.88282   0.79403   0.00000  Uiso   1.00
C294   C     0.52156   0.66738   0.69055   0.00000  Uiso   1.00
C295   C     0.43854   0.60664   0.69538   0.00000  Uiso   1.00
C296   C     0.45376   0.50453   0.69217   0.00000  Uiso   1.00
C297   C     0.56702   0.81676   0.64970   0.00000  Uiso   1.00
C298   C     0.52221   0.88158   0.62019   0.00000  Uiso   1.00
C299   C     0.57569   0.90521   0.58258   0.00000  Uiso   1.00
H300   H     0.77041   0.67659   0.67249   0.00000  Uiso   1.00
H301   H     0.84370   0.75425   0.74342   0.00000  Uiso   1.00
H302   H     0.70520   0.49471   0.67353   0.00000  Uiso   1.00
H303   H     0.78885   0.76961   0.59835   0.00000  Uiso   1.00
H304   H     0.88310   0.85788   0.82549   0.00000  Uiso   1.00
H305   H     0.59106   0.31064   0.67811   0.00000  Uiso   1.00
H306   H     0.76746   0.89032   0.51958   0.00000  Uiso   1.00
H307   H     0.44804   0.81194   0.69891   0.00000  Uiso   1.00
H308   H     0.50364   0.89703   0.77128   0.00000  Uiso   1.00
H309   H     0.36514   0.63749   0.70140   0.00000  Uiso   1.00
H310   H     0.44879   0.91239   0.62622   0.00000  Uiso   1.00
H311   H     0.60709   0.97376   0.84811   0.00000  Uiso   1.00
H312   H     0.31505   0.42652   0.70072   0.00000  Uiso   1.00
H313   H     0.49146   0.00620   0.54220   0.00000  Uiso   1.00
O314   O     0.78748   0.96932   0.88394   0.00000  Uiso   1.00
O315   O     0.40433   0.25136   0.69057   0.00000  Uiso   1.00
O316   O     0.63577   0.01190   0.48259   0.00000  Uiso   1.00
N317   N     0.81052   0.87349   0.82087   0.00000  Uiso   1.00
N318   N     0.53748   0.36185   0.68309   0.00000  Uiso   1.00
N319   N     0.70239   0.90378   0.53487   0.00000  Uiso   1.00
N320   N     0.66200   0.93585   0.83304   0.00000  Uiso   1.00
N321   N     0.38896   0.42421   0.69526   0.00000  Uiso   1.00
N322   N     0.55388   0.96614   0.54704   0.00000  Uiso   1.00
C323   C     0.30344   0.29239   0.17855   0.00000  Uiso   1.00
C324   C     0.30832   0.23143   0.22074   0.00000  Uiso   1.00
C325   C     0.22971   0.21491   0.24944   0.00000  Uiso   1.00
C326   C     0.24933   0.15708   0.28624   0.00000  Uiso   1.00
C327   C     0.24250   0.06851   0.35059   0.00000  Uiso   1.00
C328   C     0.38358   0.37244   0.18278   0.00000  Uiso   1.00
C329   C     0.36822   0.47449   0.17955   0.00000  Uiso   1.00
C330   C     0.45120   0.53537   0.18438   0.00000  Uiso   1.00
C331   C     0.56120   0.66573   0.18975   0.00000  Uiso   1.00
C332   C     0.33812   0.22307   0.14193   0.00000  Uiso   1.00
C333   C     0.28456   0.19955   0.10435   0.00000  Uiso   1.00
C334   C     0.32927   0.13469   0.07479   0.00000  Uiso   1.00
C335   C     0.36869   0.03313   0.01675   0.00000  Uiso   1.00
C336   C     0.47810   0.21907   0.19286   0.00000  Uiso   1.00
C337   C     0.40319   0.19160   0.22851   0.00000  Uiso   1.00
C338   C     0.42294   0.13378   0.26528   0.00000  Uiso   1.00
C339   C     0.34437   0.11718   0.29403   0.00000  Uiso   1.00
C340   C     0.47844   0.33262   0.19055   0.00000  Uiso   1.00
C341   C     0.56146   0.39336   0.19538   0.00000  Uiso   1.00
C342   C     0.54624   0.49547   0.19217   0.00000  Uiso   1.00
C343   C     0.43298   0.18324   0.14970   0.00000  Uiso   1.00
C344   C     0.47779   0.11842   0.12019   0.00000  Uiso   1.00
C345   C     0.42431   0.09479   0.08258   0.00000  Uiso   1.00
H346   H     0.22959   0.32341   0.17249   0.00000  Uiso   1.00
H347   H     0.15630   0.24575   0.24342   0.00000  Uiso   1.00
H348   H     0.29480   0.50529   0.17353   0.00000  Uiso   1.00
H349   H     0.21115   0.23039   0.09835   0.00000  Uiso   1.00
H350   H     0.11690   0.14212   0.32549   0.00000  Uiso   1.00
H351   H     0.40894   0.68936   0.17811   0.00000  Uiso   1.00
H352   H     0.23254   0.10968   0.01958   0.00000  Uiso   1.00
H353   H     0.55196   0.18806   0.19891   0.00000  Uiso   1.00
H354   H     0.49636   0.10297   0.27128   0.00000  Uiso   1.00
H355   H     0.63486   0.36251   0.20140   0.00000  Uiso   1.00
H356   H     0.55121   0.08761   0.12622   0.00000  Uiso   1.00
H357   H     0.39291   0.02624   0.34811   0.00000  Uiso   1.00
H358   H     0.68495   0.57348   0.20072   0.00000  Uiso   1.00
H359   H     0.50854   0.99380   0.04220   0.00000  Uiso   1.00
O360   O     0.21252   0.03068   0.38394   0.00000  Uiso   1.00
O361   O     0.59567   0.74864   0.19057   0.00000  Uiso   1.00
O362   O     0.36423   0.98810   0.98259   0.00000  Uiso   1.00
N363   N     0.18948   0.12651   0.32087   0.00000  Uiso   1.00
N364   N     0.46252   0.63815   0.18309   0.00000  Uiso   1.00
N365   N     0.29761   0.09622   0.03487   0.00000  Uiso   1.00
N366   N     0.33800   0.06415   0.33304   0.00000  Uiso   1.00
N367   N     0.61104   0.57579   0.19526   0.00000  Uiso   1.00
N368   N     0.44612   0.03386   0.04704   0.00000  Uiso   1.00
