data_job_00685
_audit_creation_date              2018-12-19
_audit_creation_method            'Materials Studio'
_symmetry_space_group_name_H-M    'P1'
_symmetry_Int_Tables_number       1
_symmetry_cell_setting            triclinic
loop_
_symmetry_equiv_pos_as_xyz
  x,y,z
_cell_length_a                    20.9790
_cell_length_b                    14.8164
_cell_length_c                    19.1691
_cell_angle_alpha                 90.0000
_cell_angle_beta                  157.3880
_cell_angle_gamma                 90.0000
loop_
_atom_site_label
_atom_site_type_symbol
_atom_site_fract_x
_atom_site_fract_y
_atom_site_fract_z
_atom_site_U_iso_or_equiv
_atom_site_adp_type
_atom_site_occupancy
C1     C     0.37016   0.74480   0.62433   0.00000  Uiso   1.00
C2     C     0.53575   0.69970   0.80770   0.00000  Uiso   1.00
C3     C     0.55746   0.61054   0.84984   0.00000  Uiso   1.00
C4     C     0.71889   0.58218   0.02522   0.00000  Uiso   1.00
C5     C     0.95550   0.50323   0.29043   0.00000  Uiso   1.00
C6     C     0.35936   0.82660   0.66148   0.00000  Uiso   1.00
C7     C     0.23274   0.84413   0.58067   0.00000  Uiso   1.00
C8     C     0.24568   0.92260   0.63296   0.00000  Uiso   1.00
C9     C     0.20837   0.04069   0.67106   0.00000  Uiso   1.00
C10    C     0.38540   0.78224   0.56590   0.00000  Uiso   1.00
C11    C     0.28065   0.76251   0.40470   0.00000  Uiso   1.00
C12    C     0.31550   0.80366   0.37650   0.00000  Uiso   1.00
C13    C     0.31862   0.85288   0.26621   0.00000  Uiso   1.00
C14    C     0.61827   0.85299   0.86086   0.00000  Uiso   1.00
C15    C     0.67051   0.75847   0.93617   0.00000  Uiso   1.00
C16    C     0.83196   0.73024   0.11153   0.00000  Uiso   1.00
C17    C     0.85389   0.64105   0.15393   0.00000  Uiso   1.00
C18    C     0.49411   0.88536   0.78995   0.00000  Uiso   1.00
C19    C     0.50724   0.96383   0.84236   0.00000  Uiso   1.00
C20    C     0.38068   0.98147   0.76166   0.00000  Uiso   1.00
C21    C     0.52016   0.84101   0.69438   0.00000  Uiso   1.00
C22    C     0.55516   0.88220   0.66641   0.00000  Uiso   1.00
C23    C     0.45050   0.86253   0.50520   0.00000  Uiso   1.00
H24    H     0.26524   0.69906   0.52431   0.00000  Uiso   1.00
H25    H     0.45313   0.56509   0.75038   0.00000  Uiso   1.00
H26    H     0.12846   0.79865   0.48124   0.00000  Uiso   1.00
H27    H     0.17638   0.71704   0.30532   0.00000  Uiso   1.00
H28    H     0.72087   0.44249   0.05771   0.00000  Uiso   1.00
H29    H     0.03625   0.93498   0.49017   0.00000  Uiso   1.00
H30    H     0.13729   0.76288   0.11918   0.00000  Uiso   1.00
H31    H     0.72319   0.89874   0.96088   0.00000  Uiso   1.00
H32    H     0.93622   0.77572   0.21092   0.00000  Uiso   1.00
H33    H     0.61154   0.00928   0.94178   0.00000  Uiso   1.00
H34    H     0.65946   0.92767   0.76585   0.00000  Uiso   1.00
H35    H     0.11295   0.61345   0.43150   0.00000  Uiso   1.00
H36    H     0.42833   0.10594   0.86395   0.00000  Uiso   1.00
H37    H     0.52938   0.93384   0.49298   0.00000  Uiso   1.00
O38    O     0.04878   0.44345   0.40123   0.00000  Uiso   1.00
O39    O     0.15057   0.08958   0.65660   0.00000  Uiso   1.00
O40    O     0.28314   0.86379   0.16990   0.00000  Uiso   1.00
N41    N     0.78391   0.49960   0.11135   0.00000  Uiso   1.00
N42    N     0.14385   0.96004   0.58076   0.00000  Uiso   1.00
N43    N     0.23829   0.79916   0.23390   0.00000  Uiso   1.00
N44    N     0.99489   0.59159   0.31249   0.00000  Uiso   1.00
N45    N     0.35483   0.05203   0.78189   0.00000  Uiso   1.00
N46    N     0.44926   0.89115   0.43503   0.00000  Uiso   1.00
C47    C     0.62984   0.24480   0.87567   0.00000  Uiso   1.00
C48    C     0.46425   0.19970   0.69230   0.00000  Uiso   1.00
C49    C     0.44254   0.11054   0.65016   0.00000  Uiso   1.00
C50    C     0.28111   0.08218   0.47478   0.00000  Uiso   1.00
C51    C     0.04450   0.00323   0.20957   0.00000  Uiso   1.00
C52    C     0.64064   0.32660   0.83852   0.00000  Uiso   1.00
C53    C     0.76726   0.34413   0.91933   0.00000  Uiso   1.00
C54    C     0.75432   0.42260   0.86704   0.00000  Uiso   1.00
C55    C     0.79163   0.54069   0.82894   0.00000  Uiso   1.00
C56    C     0.61460   0.28224   0.93410   0.00000  Uiso   1.00
C57    C     0.71935   0.26251   0.09530   0.00000  Uiso   1.00
C58    C     0.68450   0.30366   0.12350   0.00000  Uiso   1.00
C59    C     0.68138   0.35288   0.23379   0.00000  Uiso   1.00
C60    C     0.38173   0.35299   0.63914   0.00000  Uiso   1.00
C61    C     0.32949   0.25847   0.56383   0.00000  Uiso   1.00
C62    C     0.16804   0.23024   0.38847   0.00000  Uiso   1.00
C63    C     0.14611   0.14105   0.34607   0.00000  Uiso   1.00
C64    C     0.50589   0.38536   0.71005   0.00000  Uiso   1.00
C65    C     0.49276   0.46383   0.65764   0.00000  Uiso   1.00
C66    C     0.61932   0.48147   0.73834   0.00000  Uiso   1.00
C67    C     0.47984   0.34101   0.80562   0.00000  Uiso   1.00
C68    C     0.44484   0.38220   0.83359   0.00000  Uiso   1.00
C69    C     0.54950   0.36253   0.99480   0.00000  Uiso   1.00
H70    H     0.73476   0.19906   0.97569   0.00000  Uiso   1.00
H71    H     0.54687   0.06509   0.74962   0.00000  Uiso   1.00
H72    H     0.87154   0.29865   0.01876   0.00000  Uiso   1.00
H73    H     0.82362   0.21704   0.19468   0.00000  Uiso   1.00
H74    H     0.27913   0.94249   0.44229   0.00000  Uiso   1.00
H75    H     0.96375   0.43498   0.00983   0.00000  Uiso   1.00
H76    H     0.86271   0.26288   0.38082   0.00000  Uiso   1.00
H77    H     0.27681   0.39874   0.53912   0.00000  Uiso   1.00
H78    H     0.06378   0.27572   0.28908   0.00000  Uiso   1.00
H79    H     0.38846   0.50928   0.55822   0.00000  Uiso   1.00
H80    H     0.34054   0.42767   0.73415   0.00000  Uiso   1.00
H81    H     0.88705   0.11345   0.06850   0.00000  Uiso   1.00
H82    H     0.57167   0.60594   0.63605   0.00000  Uiso   1.00
H83    H     0.47062   0.43384   0.00702   0.00000  Uiso   1.00
O84    O     0.95122   0.94345   0.09877   0.00000  Uiso   1.00
O85    O     0.84943   0.58958   0.84340   0.00000  Uiso   1.00
O86    O     0.71686   0.36379   0.33010   0.00000  Uiso   1.00
N87    N     0.21609   0.99960   0.38865   0.00000  Uiso   1.00
N88    N     0.85615   0.46004   0.91924   0.00000  Uiso   1.00
N89    N     0.76171   0.29916   0.26610   0.00000  Uiso   1.00
N90    N     0.00511   0.09159   0.18751   0.00000  Uiso   1.00
N91    N     0.64517   0.55203   0.71811   0.00000  Uiso   1.00
N92    N     0.55074   0.39115   0.06497   0.00000  Uiso   1.00
C93    C     0.62984   0.25520   0.37567   0.00000  Uiso   1.00
C94    C     0.46425   0.30030   0.19230   0.00000  Uiso   1.00
C95    C     0.44254   0.38946   0.15016   0.00000  Uiso   1.00
C96    C     0.28111   0.41782   0.97478   0.00000  Uiso   1.00
C97    C     0.04450   0.49677   0.70957   0.00000  Uiso   1.00
C98    C     0.64064   0.17340   0.33852   0.00000  Uiso   1.00
C99    C     0.76726   0.15587   0.41933   0.00000  Uiso   1.00
C100   C     0.75432   0.07740   0.36704   0.00000  Uiso   1.00
C101   C     0.79163   0.95931   0.32894   0.00000  Uiso   1.00
C102   C     0.61460   0.21776   0.43410   0.00000  Uiso   1.00
C103   C     0.71935   0.23749   0.59530   0.00000  Uiso   1.00
C104   C     0.68450   0.19634   0.62350   0.00000  Uiso   1.00
C105   C     0.68138   0.14712   0.73379   0.00000  Uiso   1.00
C106   C     0.38173   0.14701   0.13914   0.00000  Uiso   1.00
C107   C     0.32949   0.24153   0.06383   0.00000  Uiso   1.00
C108   C     0.16804   0.26976   0.88847   0.00000  Uiso   1.00
C109   C     0.14611   0.35895   0.84607   0.00000  Uiso   1.00
C110   C     0.50589   0.11464   0.21005   0.00000  Uiso   1.00
C111   C     0.49276   0.03617   0.15764   0.00000  Uiso   1.00
C112   C     0.61932   0.01853   0.23834   0.00000  Uiso   1.00
C113   C     0.47984   0.15899   0.30562   0.00000  Uiso   1.00
C114   C     0.44484   0.11780   0.33359   0.00000  Uiso   1.00
C115   C     0.54950   0.13747   0.49480   0.00000  Uiso   1.00
H116   H     0.73476   0.30094   0.47569   0.00000  Uiso   1.00
H117   H     0.54687   0.43491   0.24962   0.00000  Uiso   1.00
H118   H     0.87154   0.20135   0.51876   0.00000  Uiso   1.00
H119   H     0.82362   0.28296   0.69468   0.00000  Uiso   1.00
H120   H     0.27913   0.55751   0.94229   0.00000  Uiso   1.00
H121   H     0.96375   0.06502   0.50983   0.00000  Uiso   1.00
H122   H     0.86271   0.23712   0.88082   0.00000  Uiso   1.00
H123   H     0.27681   0.10126   0.03912   0.00000  Uiso   1.00
H124   H     0.06378   0.22428   0.78908   0.00000  Uiso   1.00
H125   H     0.38846   0.99072   0.05822   0.00000  Uiso   1.00
H126   H     0.34054   0.07233   0.23415   0.00000  Uiso   1.00
H127   H     0.88705   0.38655   0.56850   0.00000  Uiso   1.00
H128   H     0.57167   0.89406   0.13605   0.00000  Uiso   1.00
H129   H     0.47062   0.06616   0.50702   0.00000  Uiso   1.00
O130   O     0.95122   0.55655   0.59877   0.00000  Uiso   1.00
O131   O     0.84943   0.91042   0.34340   0.00000  Uiso   1.00
O132   O     0.71686   0.13621   0.83010   0.00000  Uiso   1.00
N133   N     0.21609   0.50040   0.88865   0.00000  Uiso   1.00
N134   N     0.85615   0.03996   0.41924   0.00000  Uiso   1.00
N135   N     0.76171   0.20084   0.76610   0.00000  Uiso   1.00
N136   N     0.00511   0.40841   0.68751   0.00000  Uiso   1.00
N137   N     0.64517   0.94797   0.21811   0.00000  Uiso   1.00
N138   N     0.55074   0.10885   0.56497   0.00000  Uiso   1.00
C139   C     0.37016   0.75520   0.12433   0.00000  Uiso   1.00
C140   C     0.53575   0.80030   0.30770   0.00000  Uiso   1.00
C141   C     0.55746   0.88946   0.34984   0.00000  Uiso   1.00
C142   C     0.71889   0.91782   0.52522   0.00000  Uiso   1.00
C143   C     0.95550   0.99677   0.79043   0.00000  Uiso   1.00
C144   C     0.35936   0.67340   0.16148   0.00000  Uiso   1.00
C145   C     0.23274   0.65587   0.08067   0.00000  Uiso   1.00
C146   C     0.24568   0.57740   0.13296   0.00000  Uiso   1.00
C147   C     0.20837   0.45931   0.17106   0.00000  Uiso   1.00
C148   C     0.38540   0.71776   0.06590   0.00000  Uiso   1.00
C149   C     0.28065   0.73749   0.90470   0.00000  Uiso   1.00
C150   C     0.31550   0.69634   0.87650   0.00000  Uiso   1.00
C151   C     0.31862   0.64712   0.76621   0.00000  Uiso   1.00
C152   C     0.61827   0.64701   0.36086   0.00000  Uiso   1.00
C153   C     0.67051   0.74153   0.43617   0.00000  Uiso   1.00
C154   C     0.83196   0.76976   0.61153   0.00000  Uiso   1.00
C155   C     0.85389   0.85895   0.65393   0.00000  Uiso   1.00
C156   C     0.49411   0.61464   0.28995   0.00000  Uiso   1.00
C157   C     0.50724   0.53617   0.34236   0.00000  Uiso   1.00
C158   C     0.38068   0.51853   0.26166   0.00000  Uiso   1.00
C159   C     0.52016   0.65899   0.19438   0.00000  Uiso   1.00
C160   C     0.55516   0.61780   0.16641   0.00000  Uiso   1.00
C161   C     0.45050   0.63747   0.00520   0.00000  Uiso   1.00
H162   H     0.26524   0.80094   0.02431   0.00000  Uiso   1.00
H163   H     0.45313   0.93491   0.25038   0.00000  Uiso   1.00
H164   H     0.12846   0.70135   0.98124   0.00000  Uiso   1.00
H165   H     0.17638   0.78296   0.80532   0.00000  Uiso   1.00
H166   H     0.72087   0.05751   0.55771   0.00000  Uiso   1.00
H167   H     0.03625   0.56502   0.99017   0.00000  Uiso   1.00
H168   H     0.13729   0.73712   0.61918   0.00000  Uiso   1.00
H169   H     0.72319   0.60126   0.46088   0.00000  Uiso   1.00
H170   H     0.93622   0.72428   0.71092   0.00000  Uiso   1.00
H171   H     0.61154   0.49072   0.44178   0.00000  Uiso   1.00
H172   H     0.65946   0.57233   0.26585   0.00000  Uiso   1.00
H173   H     0.11295   0.88655   0.93150   0.00000  Uiso   1.00
H174   H     0.42833   0.39406   0.36395   0.00000  Uiso   1.00
H175   H     0.52938   0.56616   0.99298   0.00000  Uiso   1.00
O176   O     0.04878   0.05655   0.90123   0.00000  Uiso   1.00
O177   O     0.15057   0.41042   0.15660   0.00000  Uiso   1.00
O178   O     0.28314   0.63621   0.66990   0.00000  Uiso   1.00
N179   N     0.78391   0.00040   0.61135   0.00000  Uiso   1.00
N180   N     0.14385   0.53996   0.08076   0.00000  Uiso   1.00
N181   N     0.23829   0.70084   0.73390   0.00000  Uiso   1.00
N182   N     0.99489   0.90841   0.81249   0.00000  Uiso   1.00
N183   N     0.35483   0.44797   0.28189   0.00000  Uiso   1.00
N184   N     0.44926   0.60885   0.93503   0.00000  Uiso   1.00
