data_job_00689
_audit_creation_date              2018-12-19
_audit_creation_method            'Materials Studio'
_symmetry_space_group_name_H-M    'P1'
_symmetry_Int_Tables_number       1
_symmetry_cell_setting            triclinic
loop_
_symmetry_equiv_pos_as_xyz
  x,y,z
_cell_length_a                    16.2826
_cell_length_b                    15.8793
_cell_length_c                    9.1242
_cell_angle_alpha                 90.0000
_cell_angle_beta                  82.2737
_cell_angle_gamma                 90.0000
loop_
_atom_site_label
_atom_site_type_symbol
_atom_site_fract_x
_atom_site_fract_y
_atom_site_fract_z
_atom_site_U_iso_or_equiv
_atom_site_adp_type
_atom_site_occupancy
C1     C     0.60144   0.72616   0.64483   0.00000  Uiso   1.00
C2     C     0.51925   0.68186   0.63514   0.00000  Uiso   1.00
C3     C     0.49593   0.64464   0.50945   0.00000  Uiso   1.00
C4     C     0.41814   0.60736   0.52333   0.00000  Uiso   1.00
C5     C     0.29849   0.53863   0.48778   0.00000  Uiso   1.00
C6     C     0.57935   0.81473   0.70153   0.00000  Uiso   1.00
C7     C     0.60658   0.88922   0.63165   0.00000  Uiso   1.00
C8     C     0.57939   0.96379   0.70142   0.00000  Uiso   1.00
C9     C     0.55309   0.10134   0.76898   0.00000  Uiso   1.00
C10    C     0.63947   0.68187   0.76787   0.00000  Uiso   1.00
C11    C     0.71726   0.64466   0.75380   0.00000  Uiso   1.00
C12    C     0.74069   0.60739   0.87945   0.00000  Uiso   1.00
C13    C     0.80774   0.53865   0.05002   0.00000  Uiso   1.00
C14    C     0.50475   0.72615   0.89300   0.00000  Uiso   1.00
C15    C     0.46673   0.68186   0.76995   0.00000  Uiso   1.00
C16    C     0.38896   0.64463   0.78403   0.00000  Uiso   1.00
C17    C     0.36553   0.60735   0.65837   0.00000  Uiso   1.00
C18    C     0.52683   0.81473   0.83632   0.00000  Uiso   1.00
C19    C     0.49960   0.88921   0.90622   0.00000  Uiso   1.00
C20    C     0.52678   0.96379   0.83647   0.00000  Uiso   1.00
C21    C     0.58695   0.68186   0.90267   0.00000  Uiso   1.00
C22    C     0.61027   0.64465   0.02837   0.00000  Uiso   1.00
C23    C     0.68808   0.60739   0.01449   0.00000  Uiso   1.00
H24    H     0.64233   0.72617   0.53988   0.00000  Uiso   1.00
H25    H     0.53659   0.64466   0.40514   0.00000  Uiso   1.00
H26    H     0.64723   0.88921   0.52734   0.00000  Uiso   1.00
H27    H     0.75788   0.64468   0.64947   0.00000  Uiso   1.00
H28    H     0.39619   0.55433   0.31520   0.00000  Uiso   1.00
H29    H     0.62949   0.06996   0.57287   0.00000  Uiso   1.00
H30    H     0.86283   0.55434   0.83041   0.00000  Uiso   1.00
H31    H     0.46386   0.72614   0.99795   0.00000  Uiso   1.00
H32    H     0.34833   0.64464   0.88836   0.00000  Uiso   1.00
H33    H     0.45896   0.88918   0.01054   0.00000  Uiso   1.00
H34    H     0.56962   0.64466   0.13267   0.00000  Uiso   1.00
H35    H     0.24338   0.55431   0.70739   0.00000  Uiso   1.00
H36    H     0.47669   0.06994   0.96506   0.00000  Uiso   1.00
H37    H     0.71002   0.55432   0.22259   0.00000  Uiso   1.00
O38    O     0.24699   0.50073   0.43092   0.00000  Uiso   1.00
O39    O     0.55309   0.17721   0.76899   0.00000  Uiso   1.00
O40    O     0.85922   0.50072   0.10686   0.00000  Uiso   1.00
N41    N     0.37609   0.56550   0.42255   0.00000  Uiso   1.00
N42    N     0.59420   0.04758   0.66345   0.00000  Uiso   1.00
N43    N     0.81236   0.56553   0.90423   0.00000  Uiso   1.00
N44    N     0.29387   0.56548   0.63358   0.00000  Uiso   1.00
N45    N     0.51198   0.04757   0.87448   0.00000  Uiso   1.00
N46    N     0.73014   0.56552   0.11526   0.00000  Uiso   1.00
C47    C     0.10144   0.22616   0.64483   0.00000  Uiso   1.00
C48    C     0.01925   0.18186   0.63514   0.00000  Uiso   1.00
C49    C     0.99593   0.14464   0.50945   0.00000  Uiso   1.00
C50    C     0.91814   0.10736   0.52333   0.00000  Uiso   1.00
C51    C     0.79849   0.03863   0.48778   0.00000  Uiso   1.00
C52    C     0.07935   0.31473   0.70153   0.00000  Uiso   1.00
C53    C     0.10658   0.38922   0.63165   0.00000  Uiso   1.00
C54    C     0.07939   0.46379   0.70142   0.00000  Uiso   1.00
C55    C     0.05309   0.60134   0.76898   0.00000  Uiso   1.00
C56    C     0.13947   0.18187   0.76787   0.00000  Uiso   1.00
C57    C     0.21726   0.14466   0.75380   0.00000  Uiso   1.00
C58    C     0.24069   0.10739   0.87945   0.00000  Uiso   1.00
C59    C     0.30774   0.03865   0.05002   0.00000  Uiso   1.00
C60    C     0.00475   0.22615   0.89300   0.00000  Uiso   1.00
C61    C     0.96673   0.18186   0.76995   0.00000  Uiso   1.00
C62    C     0.88896   0.14463   0.78403   0.00000  Uiso   1.00
C63    C     0.86553   0.10735   0.65837   0.00000  Uiso   1.00
C64    C     0.02683   0.31473   0.83632   0.00000  Uiso   1.00
C65    C     0.99960   0.38921   0.90622   0.00000  Uiso   1.00
C66    C     0.02678   0.46379   0.83647   0.00000  Uiso   1.00
C67    C     0.08695   0.18186   0.90267   0.00000  Uiso   1.00
C68    C     0.11027   0.14465   0.02837   0.00000  Uiso   1.00
C69    C     0.18808   0.10739   0.01449   0.00000  Uiso   1.00
H70    H     0.14233   0.22617   0.53988   0.00000  Uiso   1.00
H71    H     0.03659   0.14466   0.40514   0.00000  Uiso   1.00
H72    H     0.14723   0.38921   0.52734   0.00000  Uiso   1.00
H73    H     0.25788   0.14468   0.64947   0.00000  Uiso   1.00
H74    H     0.89619   0.05433   0.31520   0.00000  Uiso   1.00
H75    H     0.12949   0.56996   0.57287   0.00000  Uiso   1.00
H76    H     0.36283   0.05434   0.83041   0.00000  Uiso   1.00
H77    H     0.96386   0.22614   0.99795   0.00000  Uiso   1.00
H78    H     0.84833   0.14464   0.88836   0.00000  Uiso   1.00
H79    H     0.95896   0.38918   0.01054   0.00000  Uiso   1.00
H80    H     0.06962   0.14466   0.13267   0.00000  Uiso   1.00
H81    H     0.74338   0.05431   0.70739   0.00000  Uiso   1.00
H82    H     0.97669   0.56994   0.96506   0.00000  Uiso   1.00
H83    H     0.21002   0.05432   0.22259   0.00000  Uiso   1.00
O84    O     0.74699   0.00073   0.43092   0.00000  Uiso   1.00
O85    O     0.05309   0.67721   0.76899   0.00000  Uiso   1.00
O86    O     0.35922   0.00072   0.10686   0.00000  Uiso   1.00
N87    N     0.87609   0.06550   0.42255   0.00000  Uiso   1.00
N88    N     0.09420   0.54758   0.66345   0.00000  Uiso   1.00
N89    N     0.31236   0.06553   0.90423   0.00000  Uiso   1.00
N90    N     0.79387   0.06548   0.63358   0.00000  Uiso   1.00
N91    N     0.01198   0.54757   0.87448   0.00000  Uiso   1.00
N92    N     0.23014   0.06552   0.11526   0.00000  Uiso   1.00
C93    C     0.60144   0.27384   0.14483   0.00000  Uiso   1.00
C94    C     0.51925   0.31814   0.13514   0.00000  Uiso   1.00
C95    C     0.49593   0.35536   0.00945   0.00000  Uiso   1.00
C96    C     0.41814   0.39264   0.02333   0.00000  Uiso   1.00
C97    C     0.29849   0.46137   0.98778   0.00000  Uiso   1.00
C98    C     0.57935   0.18527   0.20153   0.00000  Uiso   1.00
C99    C     0.60658   0.11078   0.13165   0.00000  Uiso   1.00
C100   C     0.57939   0.03621   0.20142   0.00000  Uiso   1.00
C101   C     0.55309   0.89866   0.26898   0.00000  Uiso   1.00
C102   C     0.63947   0.31813   0.26787   0.00000  Uiso   1.00
C103   C     0.71726   0.35534   0.25380   0.00000  Uiso   1.00
C104   C     0.74069   0.39261   0.37945   0.00000  Uiso   1.00
C105   C     0.80774   0.46135   0.55002   0.00000  Uiso   1.00
C106   C     0.50475   0.27385   0.39300   0.00000  Uiso   1.00
C107   C     0.46673   0.31814   0.26995   0.00000  Uiso   1.00
C108   C     0.38896   0.35537   0.28403   0.00000  Uiso   1.00
C109   C     0.36553   0.39265   0.15837   0.00000  Uiso   1.00
C110   C     0.52683   0.18527   0.33632   0.00000  Uiso   1.00
C111   C     0.49960   0.11079   0.40622   0.00000  Uiso   1.00
C112   C     0.52678   0.03621   0.33647   0.00000  Uiso   1.00
C113   C     0.58695   0.31814   0.40267   0.00000  Uiso   1.00
C114   C     0.61027   0.35535   0.52837   0.00000  Uiso   1.00
C115   C     0.68808   0.39261   0.51449   0.00000  Uiso   1.00
H116   H     0.64233   0.27383   0.03988   0.00000  Uiso   1.00
H117   H     0.53659   0.35534   0.90514   0.00000  Uiso   1.00
H118   H     0.64723   0.11079   0.02734   0.00000  Uiso   1.00
H119   H     0.75788   0.35532   0.14947   0.00000  Uiso   1.00
H120   H     0.39619   0.44567   0.81520   0.00000  Uiso   1.00
H121   H     0.62949   0.93004   0.07287   0.00000  Uiso   1.00
H122   H     0.86283   0.44566   0.33041   0.00000  Uiso   1.00
H123   H     0.46386   0.27386   0.49795   0.00000  Uiso   1.00
H124   H     0.34833   0.35536   0.38836   0.00000  Uiso   1.00
H125   H     0.45896   0.11082   0.51054   0.00000  Uiso   1.00
H126   H     0.56962   0.35534   0.63267   0.00000  Uiso   1.00
H127   H     0.24338   0.44569   0.20739   0.00000  Uiso   1.00
H128   H     0.47669   0.93006   0.46506   0.00000  Uiso   1.00
H129   H     0.71002   0.44568   0.72259   0.00000  Uiso   1.00
O130   O     0.24699   0.49927   0.93092   0.00000  Uiso   1.00
O131   O     0.55309   0.82279   0.26899   0.00000  Uiso   1.00
O132   O     0.85922   0.49928   0.60686   0.00000  Uiso   1.00
N133   N     0.37609   0.43450   0.92255   0.00000  Uiso   1.00
N134   N     0.59420   0.95242   0.16345   0.00000  Uiso   1.00
N135   N     0.81236   0.43447   0.40423   0.00000  Uiso   1.00
N136   N     0.29387   0.43452   0.13358   0.00000  Uiso   1.00
N137   N     0.51198   0.95243   0.37448   0.00000  Uiso   1.00
N138   N     0.73014   0.43448   0.61526   0.00000  Uiso   1.00
C139   C     0.10144   0.77384   0.14483   0.00000  Uiso   1.00
C140   C     0.01925   0.81814   0.13514   0.00000  Uiso   1.00
C141   C     0.99593   0.85536   0.00945   0.00000  Uiso   1.00
C142   C     0.91814   0.89264   0.02333   0.00000  Uiso   1.00
C143   C     0.79849   0.96137   0.98778   0.00000  Uiso   1.00
C144   C     0.07935   0.68527   0.20153   0.00000  Uiso   1.00
C145   C     0.10658   0.61078   0.13165   0.00000  Uiso   1.00
C146   C     0.07939   0.53621   0.20142   0.00000  Uiso   1.00
C147   C     0.05309   0.39866   0.26898   0.00000  Uiso   1.00
C148   C     0.13947   0.81813   0.26787   0.00000  Uiso   1.00
C149   C     0.21726   0.85534   0.25380   0.00000  Uiso   1.00
C150   C     0.24069   0.89261   0.37945   0.00000  Uiso   1.00
C151   C     0.30774   0.96135   0.55002   0.00000  Uiso   1.00
C152   C     0.00475   0.77385   0.39300   0.00000  Uiso   1.00
C153   C     0.96673   0.81814   0.26995   0.00000  Uiso   1.00
C154   C     0.88896   0.85537   0.28403   0.00000  Uiso   1.00
C155   C     0.86553   0.89265   0.15837   0.00000  Uiso   1.00
C156   C     0.02683   0.68527   0.33632   0.00000  Uiso   1.00
C157   C     0.99960   0.61079   0.40622   0.00000  Uiso   1.00
C158   C     0.02678   0.53621   0.33647   0.00000  Uiso   1.00
C159   C     0.08695   0.81814   0.40267   0.00000  Uiso   1.00
C160   C     0.11027   0.85535   0.52837   0.00000  Uiso   1.00
C161   C     0.18808   0.89261   0.51449   0.00000  Uiso   1.00
H162   H     0.14233   0.77383   0.03988   0.00000  Uiso   1.00
H163   H     0.03659   0.85534   0.90514   0.00000  Uiso   1.00
H164   H     0.14723   0.61079   0.02734   0.00000  Uiso   1.00
H165   H     0.25788   0.85532   0.14947   0.00000  Uiso   1.00
H166   H     0.89619   0.94567   0.81520   0.00000  Uiso   1.00
H167   H     0.12949   0.43004   0.07287   0.00000  Uiso   1.00
H168   H     0.36283   0.94566   0.33041   0.00000  Uiso   1.00
H169   H     0.96386   0.77386   0.49795   0.00000  Uiso   1.00
H170   H     0.84833   0.85536   0.38836   0.00000  Uiso   1.00
H171   H     0.95896   0.61082   0.51054   0.00000  Uiso   1.00
H172   H     0.06962   0.85534   0.63267   0.00000  Uiso   1.00
H173   H     0.74338   0.94569   0.20739   0.00000  Uiso   1.00
H174   H     0.97669   0.43006   0.46506   0.00000  Uiso   1.00
H175   H     0.21002   0.94568   0.72259   0.00000  Uiso   1.00
O176   O     0.74699   0.99927   0.93092   0.00000  Uiso   1.00
O177   O     0.05309   0.32279   0.26899   0.00000  Uiso   1.00
O178   O     0.35922   0.99928   0.60686   0.00000  Uiso   1.00
N179   N     0.87609   0.93450   0.92255   0.00000  Uiso   1.00
N180   N     0.09420   0.45242   0.16345   0.00000  Uiso   1.00
N181   N     0.31236   0.93447   0.40423   0.00000  Uiso   1.00
N182   N     0.79387   0.93452   0.13358   0.00000  Uiso   1.00
N183   N     0.01198   0.45243   0.37448   0.00000  Uiso   1.00
N184   N     0.23014   0.93448   0.61526   0.00000  Uiso   1.00
