data_job_01953
_audit_creation_date              2018-12-19
_audit_creation_method            'Materials Studio'
_symmetry_space_group_name_H-M    'P1'
_symmetry_Int_Tables_number       1
_symmetry_cell_setting            triclinic
loop_
_symmetry_equiv_pos_as_xyz
  x,y,z
_cell_length_a                    23.2229
_cell_length_b                    17.8075
_cell_length_c                    12.5141
_cell_angle_alpha                 90.0000
_cell_angle_beta                  90.0000
_cell_angle_gamma                 90.0000
loop_
_atom_site_label
_atom_site_type_symbol
_atom_site_fract_x
_atom_site_fract_y
_atom_site_fract_z
_atom_site_U_iso_or_equiv
_atom_site_adp_type
_atom_site_occupancy
C1     C     0.31529   0.53436   0.08622   0.00000  Uiso   1.00
C2     C     0.32538   0.57923   0.98413   0.00000  Uiso   1.00
C3     C     0.28351   0.61734   0.92650   0.00000  Uiso   1.00
C4     C     0.30143   0.65503   0.83526   0.00000  Uiso   1.00
C5     C     0.30830   0.72474   0.68163   0.00000  Uiso   1.00
C6     C     0.33779   0.45546   0.06382   0.00000  Uiso   1.00
C7     C     0.30636   0.38950   0.07321   0.00000  Uiso   1.00
C8     C     0.33474   0.32301   0.04906   0.00000  Uiso   1.00
C9     C     0.36089   0.20056   0.01923   0.00000  Uiso   1.00
C10    C     0.35555   0.56782   0.16989   0.00000  Uiso   1.00
C11    C     0.33906   0.59631   0.26847   0.00000  Uiso   1.00
C12    C     0.38239   0.62440   0.33363   0.00000  Uiso   1.00
C13    C     0.43612   0.67640   0.46849   0.00000  Uiso   1.00
C14    C     0.42158   0.53355   0.02667   0.00000  Uiso   1.00
C15    C     0.38311   0.57879   0.95179   0.00000  Uiso   1.00
C16    C     0.40110   0.61644   0.86061   0.00000  Uiso   1.00
C17    C     0.35927   0.65459   0.80285   0.00000  Uiso   1.00
C18    C     0.39552   0.45502   0.03148   0.00000  Uiso   1.00
C19    C     0.42395   0.38860   0.00732   0.00000  Uiso   1.00
C20    C     0.39257   0.32256   0.01665   0.00000  Uiso   1.00
C21    C     0.41328   0.56738   0.13754   0.00000  Uiso   1.00
C22    C     0.45665   0.59542   0.20257   0.00000  Uiso   1.00
C23    C     0.44023   0.62396   0.30123   0.00000  Uiso   1.00
H24    H     0.27035   0.53470   0.11141   0.00000  Uiso   1.00
H25    H     0.23884   0.61766   0.95156   0.00000  Uiso   1.00
H26    H     0.26169   0.38986   0.09825   0.00000  Uiso   1.00
H27    H     0.29438   0.59665   0.29347   0.00000  Uiso   1.00
H28    H     0.22936   0.70942   0.76005   0.00000  Uiso   1.00
H29    H     0.27754   0.22909   0.06940   0.00000  Uiso   1.00
H30    H     0.34648   0.66514   0.48107   0.00000  Uiso   1.00
H31    H     0.46652   0.53320   0.00148   0.00000  Uiso   1.00
H32    H     0.44578   0.61609   0.83560   0.00000  Uiso   1.00
H33    H     0.46862   0.38828   0.98229   0.00000  Uiso   1.00
H34    H     0.50132   0.59507   0.17751   0.00000  Uiso   1.00
H35    H     0.39731   0.70814   0.66593   0.00000  Uiso   1.00
H36    H     0.44550   0.22781   0.97528   0.00000  Uiso   1.00
H37    H     0.51444   0.66386   0.38695   0.00000  Uiso   1.00
O38    O     0.29614   0.76331   0.60583   0.00000  Uiso   1.00
O39    O     0.35936   0.13314   0.01170   0.00000  Uiso   1.00
O40    O     0.44981   0.70522   0.55180   0.00000  Uiso   1.00
N41    N     0.27173   0.69776   0.76067   0.00000  Uiso   1.00
N42    N     0.31678   0.24868   0.04988   0.00000  Uiso   1.00
N43    N     0.38124   0.65633   0.43477   0.00000  Uiso   1.00
N44    N     0.36211   0.69707   0.71003   0.00000  Uiso   1.00
N45    N     0.40716   0.24799   0.99924   0.00000  Uiso   1.00
N46    N     0.47161   0.65564   0.38412   0.00000  Uiso   1.00
C47    C     0.18471   0.46564   0.58622   0.00000  Uiso   1.00
C48    C     0.17462   0.42077   0.48413   0.00000  Uiso   1.00
C49    C     0.21649   0.38266   0.42650   0.00000  Uiso   1.00
C50    C     0.19857   0.34497   0.33526   0.00000  Uiso   1.00
C51    C     0.19170   0.27526   0.18163   0.00000  Uiso   1.00
C52    C     0.16221   0.54454   0.56382   0.00000  Uiso   1.00
C53    C     0.19364   0.61050   0.57321   0.00000  Uiso   1.00
C54    C     0.16526   0.67699   0.54906   0.00000  Uiso   1.00
C55    C     0.13911   0.79944   0.51923   0.00000  Uiso   1.00
C56    C     0.14445   0.43218   0.66989   0.00000  Uiso   1.00
C57    C     0.16094   0.40369   0.76847   0.00000  Uiso   1.00
C58    C     0.11761   0.37560   0.83363   0.00000  Uiso   1.00
C59    C     0.06388   0.32360   0.96849   0.00000  Uiso   1.00
C60    C     0.07842   0.46645   0.52667   0.00000  Uiso   1.00
C61    C     0.11689   0.42121   0.45179   0.00000  Uiso   1.00
C62    C     0.09890   0.38356   0.36061   0.00000  Uiso   1.00
C63    C     0.14073   0.34541   0.30285   0.00000  Uiso   1.00
C64    C     0.10448   0.54498   0.53148   0.00000  Uiso   1.00
C65    C     0.07605   0.61140   0.50732   0.00000  Uiso   1.00
C66    C     0.10743   0.67744   0.51665   0.00000  Uiso   1.00
C67    C     0.08672   0.43262   0.63754   0.00000  Uiso   1.00
C68    C     0.04335   0.40458   0.70257   0.00000  Uiso   1.00
C69    C     0.05977   0.37604   0.80123   0.00000  Uiso   1.00
H70    H     0.22965   0.46530   0.61141   0.00000  Uiso   1.00
H71    H     0.26116   0.38234   0.45156   0.00000  Uiso   1.00
H72    H     0.23831   0.61014   0.59825   0.00000  Uiso   1.00
H73    H     0.20562   0.40335   0.79347   0.00000  Uiso   1.00
H74    H     0.27064   0.29058   0.26005   0.00000  Uiso   1.00
H75    H     0.22246   0.77091   0.56940   0.00000  Uiso   1.00
H76    H     0.15352   0.33486   0.98107   0.00000  Uiso   1.00
H77    H     0.03348   0.46680   0.50148   0.00000  Uiso   1.00
H78    H     0.05422   0.38391   0.33560   0.00000  Uiso   1.00
H79    H     0.03138   0.61172   0.48229   0.00000  Uiso   1.00
H80    H     0.99868   0.40493   0.67751   0.00000  Uiso   1.00
H81    H     0.10269   0.29186   0.16593   0.00000  Uiso   1.00
H82    H     0.05450   0.77219   0.47528   0.00000  Uiso   1.00
H83    H     0.98556   0.33614   0.88695   0.00000  Uiso   1.00
O84    O     0.20386   0.23669   0.10583   0.00000  Uiso   1.00
O85    O     0.14064   0.86686   0.51170   0.00000  Uiso   1.00
O86    O     0.05019   0.29478   0.05180   0.00000  Uiso   1.00
N87    N     0.22827   0.30224   0.26067   0.00000  Uiso   1.00
N88    N     0.18322   0.75132   0.54988   0.00000  Uiso   1.00
N89    N     0.11876   0.34367   0.93477   0.00000  Uiso   1.00
N90    N     0.13789   0.30293   0.21003   0.00000  Uiso   1.00
N91    N     0.09284   0.75201   0.49924   0.00000  Uiso   1.00
N92    N     0.02839   0.34436   0.88412   0.00000  Uiso   1.00
C93    C     0.68471   0.03436   0.41378   0.00000  Uiso   1.00
C94    C     0.67462   0.07923   0.51587   0.00000  Uiso   1.00
C95    C     0.71649   0.11734   0.57350   0.00000  Uiso   1.00
C96    C     0.69857   0.15503   0.66474   0.00000  Uiso   1.00
C97    C     0.69170   0.22474   0.81837   0.00000  Uiso   1.00
C98    C     0.66221   0.95546   0.43618   0.00000  Uiso   1.00
C99    C     0.69364   0.88950   0.42679   0.00000  Uiso   1.00
C100   C     0.66526   0.82301   0.45094   0.00000  Uiso   1.00
C101   C     0.63911   0.70056   0.48077   0.00000  Uiso   1.00
C102   C     0.64445   0.06782   0.33011   0.00000  Uiso   1.00
C103   C     0.66094   0.09631   0.23153   0.00000  Uiso   1.00
C104   C     0.61761   0.12440   0.16637   0.00000  Uiso   1.00
C105   C     0.56388   0.17640   0.03151   0.00000  Uiso   1.00
C106   C     0.57842   0.03355   0.47333   0.00000  Uiso   1.00
C107   C     0.61689   0.07879   0.54821   0.00000  Uiso   1.00
C108   C     0.59890   0.11644   0.63939   0.00000  Uiso   1.00
C109   C     0.64073   0.15459   0.69715   0.00000  Uiso   1.00
C110   C     0.60448   0.95502   0.46852   0.00000  Uiso   1.00
C111   C     0.57605   0.88860   0.49268   0.00000  Uiso   1.00
C112   C     0.60743   0.82256   0.48335   0.00000  Uiso   1.00
C113   C     0.58672   0.06738   0.36246   0.00000  Uiso   1.00
C114   C     0.54335   0.09542   0.29743   0.00000  Uiso   1.00
C115   C     0.55977   0.12396   0.19877   0.00000  Uiso   1.00
H116   H     0.72965   0.03470   0.38859   0.00000  Uiso   1.00
H117   H     0.76116   0.11766   0.54844   0.00000  Uiso   1.00
H118   H     0.73831   0.88986   0.40175   0.00000  Uiso   1.00
H119   H     0.70562   0.09665   0.20653   0.00000  Uiso   1.00
H120   H     0.77064   0.20942   0.73995   0.00000  Uiso   1.00
H121   H     0.72246   0.72909   0.43060   0.00000  Uiso   1.00
H122   H     0.65352   0.16514   0.01893   0.00000  Uiso   1.00
H123   H     0.53348   0.03320   0.49852   0.00000  Uiso   1.00
H124   H     0.55422   0.11609   0.66440   0.00000  Uiso   1.00
H125   H     0.53138   0.88828   0.51771   0.00000  Uiso   1.00
H126   H     0.49868   0.09507   0.32249   0.00000  Uiso   1.00
H127   H     0.60269   0.20814   0.83407   0.00000  Uiso   1.00
H128   H     0.55450   0.72781   0.52472   0.00000  Uiso   1.00
H129   H     0.48556   0.16386   0.11305   0.00000  Uiso   1.00
O130   O     0.70386   0.26331   0.89417   0.00000  Uiso   1.00
O131   O     0.64064   0.63314   0.48830   0.00000  Uiso   1.00
O132   O     0.55019   0.20522   0.94820   0.00000  Uiso   1.00
N133   N     0.72827   0.19776   0.73933   0.00000  Uiso   1.00
N134   N     0.68322   0.74868   0.45012   0.00000  Uiso   1.00
N135   N     0.61876   0.15633   0.06523   0.00000  Uiso   1.00
N136   N     0.63789   0.19707   0.78997   0.00000  Uiso   1.00
N137   N     0.59284   0.74799   0.50076   0.00000  Uiso   1.00
N138   N     0.52839   0.15564   0.11588   0.00000  Uiso   1.00
C139   C     0.81529   0.96564   0.91378   0.00000  Uiso   1.00
C140   C     0.82538   0.92077   0.01587   0.00000  Uiso   1.00
C141   C     0.78351   0.88266   0.07350   0.00000  Uiso   1.00
C142   C     0.80143   0.84497   0.16474   0.00000  Uiso   1.00
C143   C     0.80830   0.77526   0.31837   0.00000  Uiso   1.00
C144   C     0.83779   0.04454   0.93618   0.00000  Uiso   1.00
C145   C     0.80636   0.11050   0.92679   0.00000  Uiso   1.00
C146   C     0.83474   0.17699   0.95094   0.00000  Uiso   1.00
C147   C     0.86089   0.29944   0.98077   0.00000  Uiso   1.00
C148   C     0.85555   0.93218   0.83011   0.00000  Uiso   1.00
C149   C     0.83906   0.90369   0.73153   0.00000  Uiso   1.00
C150   C     0.88239   0.87560   0.66637   0.00000  Uiso   1.00
C151   C     0.93612   0.82360   0.53151   0.00000  Uiso   1.00
C152   C     0.92158   0.96645   0.97333   0.00000  Uiso   1.00
C153   C     0.88311   0.92121   0.04821   0.00000  Uiso   1.00
C154   C     0.90110   0.88356   0.13939   0.00000  Uiso   1.00
C155   C     0.85927   0.84541   0.19715   0.00000  Uiso   1.00
C156   C     0.89552   0.04498   0.96852   0.00000  Uiso   1.00
C157   C     0.92395   0.11140   0.99268   0.00000  Uiso   1.00
C158   C     0.89257   0.17744   0.98335   0.00000  Uiso   1.00
C159   C     0.91328   0.93262   0.86246   0.00000  Uiso   1.00
C160   C     0.95665   0.90458   0.79743   0.00000  Uiso   1.00
C161   C     0.94023   0.87604   0.69877   0.00000  Uiso   1.00
H162   H     0.77035   0.96530   0.88859   0.00000  Uiso   1.00
H163   H     0.73884   0.88234   0.04844   0.00000  Uiso   1.00
H164   H     0.76169   0.11014   0.90175   0.00000  Uiso   1.00
H165   H     0.79438   0.90335   0.70653   0.00000  Uiso   1.00
H166   H     0.72936   0.79058   0.23995   0.00000  Uiso   1.00
H167   H     0.77754   0.27091   0.93060   0.00000  Uiso   1.00
H168   H     0.84648   0.83486   0.51893   0.00000  Uiso   1.00
H169   H     0.96652   0.96680   0.99852   0.00000  Uiso   1.00
H170   H     0.94578   0.88391   0.16440   0.00000  Uiso   1.00
H171   H     0.96862   0.11172   0.01771   0.00000  Uiso   1.00
H172   H     0.00132   0.90493   0.82249   0.00000  Uiso   1.00
H173   H     0.89731   0.79186   0.33407   0.00000  Uiso   1.00
H174   H     0.94550   0.27219   0.02472   0.00000  Uiso   1.00
H175   H     0.01444   0.83614   0.61305   0.00000  Uiso   1.00
O176   O     0.79614   0.73669   0.39417   0.00000  Uiso   1.00
O177   O     0.85936   0.36686   0.98830   0.00000  Uiso   1.00
O178   O     0.94981   0.79478   0.44820   0.00000  Uiso   1.00
N179   N     0.77173   0.80224   0.23933   0.00000  Uiso   1.00
N180   N     0.81678   0.25132   0.95012   0.00000  Uiso   1.00
N181   N     0.88124   0.84367   0.56523   0.00000  Uiso   1.00
N182   N     0.86211   0.80293   0.28997   0.00000  Uiso   1.00
N183   N     0.90716   0.25201   0.00076   0.00000  Uiso   1.00
N184   N     0.97161   0.84436   0.61588   0.00000  Uiso   1.00
C185   C     0.68471   0.46564   0.91378   0.00000  Uiso   1.00
C186   C     0.67462   0.42077   0.01587   0.00000  Uiso   1.00
C187   C     0.71649   0.38266   0.07350   0.00000  Uiso   1.00
C188   C     0.69857   0.34497   0.16474   0.00000  Uiso   1.00
C189   C     0.69170   0.27526   0.31837   0.00000  Uiso   1.00
C190   C     0.66221   0.54454   0.93618   0.00000  Uiso   1.00
C191   C     0.69364   0.61050   0.92679   0.00000  Uiso   1.00
C192   C     0.66526   0.67699   0.95094   0.00000  Uiso   1.00
C193   C     0.63911   0.79944   0.98077   0.00000  Uiso   1.00
C194   C     0.64445   0.43218   0.83011   0.00000  Uiso   1.00
C195   C     0.66094   0.40369   0.73153   0.00000  Uiso   1.00
C196   C     0.61761   0.37560   0.66637   0.00000  Uiso   1.00
C197   C     0.56388   0.32360   0.53151   0.00000  Uiso   1.00
C198   C     0.57842   0.46645   0.97333   0.00000  Uiso   1.00
C199   C     0.61689   0.42121   0.04821   0.00000  Uiso   1.00
C200   C     0.59890   0.38356   0.13939   0.00000  Uiso   1.00
C201   C     0.64073   0.34541   0.19715   0.00000  Uiso   1.00
C202   C     0.60448   0.54498   0.96852   0.00000  Uiso   1.00
C203   C     0.57605   0.61140   0.99268   0.00000  Uiso   1.00
C204   C     0.60743   0.67744   0.98335   0.00000  Uiso   1.00
C205   C     0.58672   0.43262   0.86246   0.00000  Uiso   1.00
C206   C     0.54335   0.40458   0.79743   0.00000  Uiso   1.00
C207   C     0.55977   0.37604   0.69877   0.00000  Uiso   1.00
H208   H     0.72965   0.46530   0.88859   0.00000  Uiso   1.00
H209   H     0.76116   0.38234   0.04844   0.00000  Uiso   1.00
H210   H     0.73831   0.61014   0.90175   0.00000  Uiso   1.00
H211   H     0.70562   0.40335   0.70653   0.00000  Uiso   1.00
H212   H     0.77064   0.29058   0.23995   0.00000  Uiso   1.00
H213   H     0.72246   0.77091   0.93060   0.00000  Uiso   1.00
H214   H     0.65352   0.33486   0.51893   0.00000  Uiso   1.00
H215   H     0.53348   0.46680   0.99852   0.00000  Uiso   1.00
H216   H     0.55422   0.38391   0.16440   0.00000  Uiso   1.00
H217   H     0.53138   0.61172   0.01771   0.00000  Uiso   1.00
H218   H     0.49868   0.40493   0.82249   0.00000  Uiso   1.00
H219   H     0.60269   0.29186   0.33407   0.00000  Uiso   1.00
H220   H     0.55450   0.77219   0.02472   0.00000  Uiso   1.00
H221   H     0.48556   0.33614   0.61305   0.00000  Uiso   1.00
O222   O     0.70386   0.23669   0.39417   0.00000  Uiso   1.00
O223   O     0.64064   0.86686   0.98830   0.00000  Uiso   1.00
O224   O     0.55019   0.29478   0.44820   0.00000  Uiso   1.00
N225   N     0.72827   0.30224   0.23933   0.00000  Uiso   1.00
N226   N     0.68322   0.75132   0.95012   0.00000  Uiso   1.00
N227   N     0.61876   0.34367   0.56523   0.00000  Uiso   1.00
N228   N     0.63789   0.30293   0.28997   0.00000  Uiso   1.00
N229   N     0.59284   0.75201   0.00076   0.00000  Uiso   1.00
N230   N     0.52839   0.34436   0.61588   0.00000  Uiso   1.00
C231   C     0.81529   0.53436   0.41378   0.00000  Uiso   1.00
C232   C     0.82538   0.57923   0.51587   0.00000  Uiso   1.00
C233   C     0.78351   0.61734   0.57350   0.00000  Uiso   1.00
C234   C     0.80143   0.65503   0.66474   0.00000  Uiso   1.00
C235   C     0.80830   0.72474   0.81837   0.00000  Uiso   1.00
C236   C     0.83779   0.45546   0.43618   0.00000  Uiso   1.00
C237   C     0.80636   0.38950   0.42679   0.00000  Uiso   1.00
C238   C     0.83474   0.32301   0.45094   0.00000  Uiso   1.00
C239   C     0.86089   0.20056   0.48077   0.00000  Uiso   1.00
C240   C     0.85555   0.56782   0.33011   0.00000  Uiso   1.00
C241   C     0.83906   0.59631   0.23153   0.00000  Uiso   1.00
C242   C     0.88239   0.62440   0.16637   0.00000  Uiso   1.00
C243   C     0.93612   0.67640   0.03151   0.00000  Uiso   1.00
C244   C     0.92158   0.53355   0.47333   0.00000  Uiso   1.00
C245   C     0.88311   0.57879   0.54821   0.00000  Uiso   1.00
C246   C     0.90110   0.61644   0.63939   0.00000  Uiso   1.00
C247   C     0.85927   0.65459   0.69715   0.00000  Uiso   1.00
C248   C     0.89552   0.45502   0.46852   0.00000  Uiso   1.00
C249   C     0.92395   0.38860   0.49268   0.00000  Uiso   1.00
C250   C     0.89257   0.32256   0.48335   0.00000  Uiso   1.00
C251   C     0.91328   0.56738   0.36246   0.00000  Uiso   1.00
C252   C     0.95665   0.59542   0.29743   0.00000  Uiso   1.00
C253   C     0.94023   0.62396   0.19877   0.00000  Uiso   1.00
H254   H     0.77035   0.53470   0.38859   0.00000  Uiso   1.00
H255   H     0.73884   0.61766   0.54844   0.00000  Uiso   1.00
H256   H     0.76169   0.38986   0.40175   0.00000  Uiso   1.00
H257   H     0.79438   0.59665   0.20653   0.00000  Uiso   1.00
H258   H     0.72936   0.70942   0.73995   0.00000  Uiso   1.00
H259   H     0.77754   0.22909   0.43060   0.00000  Uiso   1.00
H260   H     0.84648   0.66514   0.01893   0.00000  Uiso   1.00
H261   H     0.96652   0.53320   0.49852   0.00000  Uiso   1.00
H262   H     0.94578   0.61609   0.66440   0.00000  Uiso   1.00
H263   H     0.96862   0.38828   0.51771   0.00000  Uiso   1.00
H264   H     0.00132   0.59507   0.32249   0.00000  Uiso   1.00
H265   H     0.89731   0.70814   0.83407   0.00000  Uiso   1.00
H266   H     0.94550   0.22781   0.52472   0.00000  Uiso   1.00
H267   H     0.01444   0.66386   0.11305   0.00000  Uiso   1.00
O268   O     0.79614   0.76331   0.89417   0.00000  Uiso   1.00
O269   O     0.85936   0.13314   0.48830   0.00000  Uiso   1.00
O270   O     0.94981   0.70522   0.94820   0.00000  Uiso   1.00
N271   N     0.77173   0.69776   0.73933   0.00000  Uiso   1.00
N272   N     0.81678   0.24868   0.45012   0.00000  Uiso   1.00
N273   N     0.88124   0.65633   0.06523   0.00000  Uiso   1.00
N274   N     0.86211   0.69707   0.78997   0.00000  Uiso   1.00
N275   N     0.90716   0.24799   0.50076   0.00000  Uiso   1.00
N276   N     0.97161   0.65564   0.11588   0.00000  Uiso   1.00
C277   C     0.31529   0.96564   0.58622   0.00000  Uiso   1.00
C278   C     0.32538   0.92077   0.48413   0.00000  Uiso   1.00
C279   C     0.28351   0.88266   0.42650   0.00000  Uiso   1.00
C280   C     0.30143   0.84497   0.33526   0.00000  Uiso   1.00
C281   C     0.30830   0.77526   0.18163   0.00000  Uiso   1.00
C282   C     0.33779   0.04454   0.56382   0.00000  Uiso   1.00
C283   C     0.30636   0.11050   0.57321   0.00000  Uiso   1.00
C284   C     0.33474   0.17699   0.54906   0.00000  Uiso   1.00
C285   C     0.36089   0.29944   0.51923   0.00000  Uiso   1.00
C286   C     0.35555   0.93218   0.66989   0.00000  Uiso   1.00
C287   C     0.33906   0.90369   0.76847   0.00000  Uiso   1.00
C288   C     0.38239   0.87560   0.83363   0.00000  Uiso   1.00
C289   C     0.43612   0.82360   0.96849   0.00000  Uiso   1.00
C290   C     0.42158   0.96645   0.52667   0.00000  Uiso   1.00
C291   C     0.38311   0.92121   0.45179   0.00000  Uiso   1.00
C292   C     0.40110   0.88356   0.36061   0.00000  Uiso   1.00
C293   C     0.35927   0.84541   0.30285   0.00000  Uiso   1.00
C294   C     0.39552   0.04498   0.53148   0.00000  Uiso   1.00
C295   C     0.42395   0.11140   0.50732   0.00000  Uiso   1.00
C296   C     0.39257   0.17744   0.51665   0.00000  Uiso   1.00
C297   C     0.41328   0.93262   0.63754   0.00000  Uiso   1.00
C298   C     0.45665   0.90458   0.70257   0.00000  Uiso   1.00
C299   C     0.44023   0.87604   0.80123   0.00000  Uiso   1.00
H300   H     0.27035   0.96530   0.61141   0.00000  Uiso   1.00
H301   H     0.23884   0.88234   0.45156   0.00000  Uiso   1.00
H302   H     0.26169   0.11014   0.59825   0.00000  Uiso   1.00
H303   H     0.29438   0.90335   0.79347   0.00000  Uiso   1.00
H304   H     0.22936   0.79058   0.26005   0.00000  Uiso   1.00
H305   H     0.27754   0.27091   0.56940   0.00000  Uiso   1.00
H306   H     0.34648   0.83486   0.98107   0.00000  Uiso   1.00
H307   H     0.46652   0.96680   0.50148   0.00000  Uiso   1.00
H308   H     0.44578   0.88391   0.33560   0.00000  Uiso   1.00
H309   H     0.46862   0.11172   0.48229   0.00000  Uiso   1.00
H310   H     0.50132   0.90493   0.67751   0.00000  Uiso   1.00
H311   H     0.39731   0.79186   0.16593   0.00000  Uiso   1.00
H312   H     0.44550   0.27219   0.47528   0.00000  Uiso   1.00
H313   H     0.51444   0.83614   0.88695   0.00000  Uiso   1.00
O314   O     0.29614   0.73669   0.10583   0.00000  Uiso   1.00
O315   O     0.35936   0.36686   0.51170   0.00000  Uiso   1.00
O316   O     0.44981   0.79478   0.05180   0.00000  Uiso   1.00
N317   N     0.27173   0.80224   0.26067   0.00000  Uiso   1.00
N318   N     0.31678   0.25132   0.54988   0.00000  Uiso   1.00
N319   N     0.38124   0.84367   0.93477   0.00000  Uiso   1.00
N320   N     0.36211   0.80293   0.21003   0.00000  Uiso   1.00
N321   N     0.40716   0.25201   0.49924   0.00000  Uiso   1.00
N322   N     0.47161   0.84436   0.88412   0.00000  Uiso   1.00
C323   C     0.18471   0.03436   0.08622   0.00000  Uiso   1.00
C324   C     0.17462   0.07923   0.98413   0.00000  Uiso   1.00
C325   C     0.21649   0.11734   0.92650   0.00000  Uiso   1.00
C326   C     0.19857   0.15503   0.83526   0.00000  Uiso   1.00
C327   C     0.19170   0.22474   0.68163   0.00000  Uiso   1.00
C328   C     0.16221   0.95546   0.06382   0.00000  Uiso   1.00
C329   C     0.19364   0.88950   0.07321   0.00000  Uiso   1.00
C330   C     0.16526   0.82301   0.04906   0.00000  Uiso   1.00
C331   C     0.13911   0.70056   0.01923   0.00000  Uiso   1.00
C332   C     0.14445   0.06782   0.16989   0.00000  Uiso   1.00
C333   C     0.16094   0.09631   0.26847   0.00000  Uiso   1.00
C334   C     0.11761   0.12440   0.33363   0.00000  Uiso   1.00
C335   C     0.06388   0.17640   0.46849   0.00000  Uiso   1.00
C336   C     0.07842   0.03355   0.02667   0.00000  Uiso   1.00
C337   C     0.11689   0.07879   0.95179   0.00000  Uiso   1.00
C338   C     0.09890   0.11644   0.86061   0.00000  Uiso   1.00
C339   C     0.14073   0.15459   0.80285   0.00000  Uiso   1.00
C340   C     0.10448   0.95502   0.03148   0.00000  Uiso   1.00
C341   C     0.07605   0.88860   0.00732   0.00000  Uiso   1.00
C342   C     0.10743   0.82256   0.01665   0.00000  Uiso   1.00
C343   C     0.08672   0.06738   0.13754   0.00000  Uiso   1.00
C344   C     0.04335   0.09542   0.20257   0.00000  Uiso   1.00
C345   C     0.05977   0.12396   0.30123   0.00000  Uiso   1.00
H346   H     0.22965   0.03470   0.11141   0.00000  Uiso   1.00
H347   H     0.26116   0.11766   0.95156   0.00000  Uiso   1.00
H348   H     0.23831   0.88986   0.09825   0.00000  Uiso   1.00
H349   H     0.20562   0.09665   0.29347   0.00000  Uiso   1.00
H350   H     0.27064   0.20942   0.76005   0.00000  Uiso   1.00
H351   H     0.22246   0.72909   0.06940   0.00000  Uiso   1.00
H352   H     0.15352   0.16514   0.48107   0.00000  Uiso   1.00
H353   H     0.03348   0.03320   0.00148   0.00000  Uiso   1.00
H354   H     0.05422   0.11609   0.83560   0.00000  Uiso   1.00
H355   H     0.03138   0.88828   0.98229   0.00000  Uiso   1.00
H356   H     0.99868   0.09507   0.17751   0.00000  Uiso   1.00
H357   H     0.10269   0.20814   0.66593   0.00000  Uiso   1.00
H358   H     0.05450   0.72781   0.97528   0.00000  Uiso   1.00
H359   H     0.98556   0.16386   0.38695   0.00000  Uiso   1.00
O360   O     0.20386   0.26331   0.60583   0.00000  Uiso   1.00
O361   O     0.14064   0.63314   0.01170   0.00000  Uiso   1.00
O362   O     0.05019   0.20522   0.55180   0.00000  Uiso   1.00
N363   N     0.22827   0.19776   0.76067   0.00000  Uiso   1.00
N364   N     0.18322   0.74868   0.04988   0.00000  Uiso   1.00
N365   N     0.11876   0.15633   0.43477   0.00000  Uiso   1.00
N366   N     0.13789   0.19707   0.71003   0.00000  Uiso   1.00
N367   N     0.09284   0.74799   0.99924   0.00000  Uiso   1.00
N368   N     0.02839   0.15564   0.38412   0.00000  Uiso   1.00
