data_job_02121
_audit_creation_date              2018-12-19
_audit_creation_method            'Materials Studio'
_symmetry_space_group_name_H-M    'P1'
_symmetry_Int_Tables_number       1
_symmetry_cell_setting            triclinic
loop_
_symmetry_equiv_pos_as_xyz
  x,y,z
_cell_length_a                    15.9359
_cell_length_b                    8.2614
_cell_length_c                    10.0124
_cell_angle_alpha                 90.0000
_cell_angle_beta                  86.7838
_cell_angle_gamma                 90.0000
loop_
_atom_site_label
_atom_site_type_symbol
_atom_site_fract_x
_atom_site_fract_y
_atom_site_fract_z
_atom_site_U_iso_or_equiv
_atom_site_adp_type
_atom_site_occupancy
C1     C     0.74683   0.34908   0.68333   0.00000  Uiso   1.00
C2     C     0.74743   0.34016   0.53115   0.00000  Uiso   1.00
C3     C     0.78703   0.44876   0.44263   0.00000  Uiso   1.00
C4     C     0.78019   0.41950   0.30712   0.00000  Uiso   1.00
C5     C     0.78791   0.42594   0.07771   0.00000  Uiso   1.00
C6     C     0.65455   0.35128   0.73268   0.00000  Uiso   1.00
C7     C     0.61606   0.46921   0.81361   0.00000  Uiso   1.00
C8     C     0.53104   0.44929   0.84776   0.00000  Uiso   1.00
C9     C     0.39458   0.47292   0.93130   0.00000  Uiso   1.00
C10    C     0.78192   0.18788   0.72911   0.00000  Uiso   1.00
C11    C     0.85051   0.16841   0.80709   0.00000  Uiso   1.00
C12    C     0.87272   0.01092   0.83827   0.00000  Uiso   1.00
C13    C     0.93401   0.78086   0.91628   0.00000  Uiso   1.00
C14    C     0.66426   0.10402   0.60009   0.00000  Uiso   1.00
C15    C     0.70258   0.20705   0.48594   0.00000  Uiso   1.00
C16    C     0.69568   0.17762   0.35054   0.00000  Uiso   1.00
C17    C     0.73527   0.28615   0.26183   0.00000  Uiso   1.00
C18    C     0.60970   0.21817   0.68747   0.00000  Uiso   1.00
C19    C     0.52472   0.19807   0.72152   0.00000  Uiso   1.00
C20    C     0.48612   0.31594   0.80247   0.00000  Uiso   1.00
C21    C     0.73707   0.05476   0.68390   0.00000  Uiso   1.00
C22    C     0.75917   0.89728   0.71498   0.00000  Uiso   1.00
C23    C     0.82779   0.87757   0.79298   0.00000  Uiso   1.00
H24    H     0.78173   0.45272   0.71853   0.00000  Uiso   1.00
H25    H     0.82172   0.55177   0.47766   0.00000  Uiso   1.00
H26    H     0.65079   0.57219   0.84859   0.00000  Uiso   1.00
H27    H     0.88520   0.27145   0.84205   0.00000  Uiso   1.00
H28    H     0.84625   0.60290   0.19067   0.00000  Uiso   1.00
H29    H     0.48583   0.64596   0.97284   0.00000  Uiso   1.00
H30    H     0.98014   0.01178   0.95906   0.00000  Uiso   1.00
H31    H     0.62935   0.00038   0.56490   0.00000  Uiso   1.00
H32    H     0.66097   0.07460   0.31558   0.00000  Uiso   1.00
H33    H     0.49004   0.09504   0.68652   0.00000  Uiso   1.00
H34    H     0.72445   0.79429   0.67998   0.00000  Uiso   1.00
H35    H     0.71578   0.21563   0.05912   0.00000  Uiso   1.00
H36    H     0.35536   0.25868   0.84130   0.00000  Uiso   1.00
H37    H     0.84967   0.62450   0.82752   0.00000  Uiso   1.00
O38    O     0.80455   0.46628   0.96366   0.00000  Uiso   1.00
O39    O     0.33170   0.52275   0.98986   0.00000  Uiso   1.00
O40    O     0.98022   0.69073   0.97178   0.00000  Uiso   1.00
N41    N     0.81122   0.50155   0.19392   0.00000  Uiso   1.00
N42    N     0.47424   0.54182   0.92519   0.00000  Uiso   1.00
N43    N     0.93637   0.94892   0.91234   0.00000  Uiso   1.00
N44    N     0.74101   0.29316   0.12314   0.00000  Uiso   1.00
N45    N     0.40404   0.33343   0.85440   0.00000  Uiso   1.00
N46    N     0.86616   0.74053   0.84156   0.00000  Uiso   1.00
C47    C     0.25317   0.84908   0.31667   0.00000  Uiso   1.00
C48    C     0.25257   0.84016   0.46885   0.00000  Uiso   1.00
C49    C     0.21297   0.94876   0.55737   0.00000  Uiso   1.00
C50    C     0.21981   0.91950   0.69288   0.00000  Uiso   1.00
C51    C     0.21209   0.92594   0.92229   0.00000  Uiso   1.00
C52    C     0.34545   0.85128   0.26732   0.00000  Uiso   1.00
C53    C     0.38394   0.96921   0.18639   0.00000  Uiso   1.00
C54    C     0.46896   0.94929   0.15224   0.00000  Uiso   1.00
C55    C     0.60542   0.97292   0.06870   0.00000  Uiso   1.00
C56    C     0.21808   0.68788   0.27089   0.00000  Uiso   1.00
C57    C     0.14949   0.66841   0.19291   0.00000  Uiso   1.00
C58    C     0.12728   0.51092   0.16173   0.00000  Uiso   1.00
C59    C     0.06599   0.28086   0.08372   0.00000  Uiso   1.00
C60    C     0.33574   0.60402   0.39991   0.00000  Uiso   1.00
C61    C     0.29742   0.70705   0.51406   0.00000  Uiso   1.00
C62    C     0.30432   0.67762   0.64946   0.00000  Uiso   1.00
C63    C     0.26473   0.78615   0.73817   0.00000  Uiso   1.00
C64    C     0.39030   0.71817   0.31253   0.00000  Uiso   1.00
C65    C     0.47528   0.69807   0.27848   0.00000  Uiso   1.00
C66    C     0.51388   0.81594   0.19753   0.00000  Uiso   1.00
C67    C     0.26293   0.55476   0.31610   0.00000  Uiso   1.00
C68    C     0.24083   0.39728   0.28502   0.00000  Uiso   1.00
C69    C     0.17221   0.37757   0.20702   0.00000  Uiso   1.00
H70    H     0.21827   0.95272   0.28147   0.00000  Uiso   1.00
H71    H     0.17828   0.05177   0.52234   0.00000  Uiso   1.00
H72    H     0.34921   0.07219   0.15141   0.00000  Uiso   1.00
H73    H     0.11480   0.77145   0.15795   0.00000  Uiso   1.00
H74    H     0.15375   0.10290   0.80933   0.00000  Uiso   1.00
H75    H     0.51417   0.14596   0.02716   0.00000  Uiso   1.00
H76    H     0.01986   0.51178   0.04094   0.00000  Uiso   1.00
H77    H     0.37065   0.50038   0.43510   0.00000  Uiso   1.00
H78    H     0.33903   0.57460   0.68442   0.00000  Uiso   1.00
H79    H     0.50996   0.59504   0.31348   0.00000  Uiso   1.00
H80    H     0.27555   0.29429   0.32002   0.00000  Uiso   1.00
H81    H     0.28422   0.71563   0.94088   0.00000  Uiso   1.00
H82    H     0.64464   0.75868   0.15870   0.00000  Uiso   1.00
H83    H     0.15033   0.12450   0.17248   0.00000  Uiso   1.00
O84    O     0.19545   0.96628   0.03634   0.00000  Uiso   1.00
O85    O     0.66830   0.02275   0.01014   0.00000  Uiso   1.00
O86    O     0.01978   0.19073   0.02822   0.00000  Uiso   1.00
N87    N     0.18878   0.00155   0.80608   0.00000  Uiso   1.00
N88    N     0.52576   0.04182   0.07481   0.00000  Uiso   1.00
N89    N     0.06363   0.44892   0.08766   0.00000  Uiso   1.00
N90    N     0.25899   0.79316   0.87686   0.00000  Uiso   1.00
N91    N     0.59596   0.83343   0.14560   0.00000  Uiso   1.00
N92    N     0.13384   0.24053   0.15844   0.00000  Uiso   1.00
