data_job_02523
_audit_creation_date              2018-12-19
_audit_creation_method            'Materials Studio'
_symmetry_space_group_name_H-M    'P1'
_symmetry_Int_Tables_number       1
_symmetry_cell_setting            triclinic
loop_
_symmetry_equiv_pos_as_xyz
  x,y,z
_cell_length_a                    22.2255
_cell_length_b                    7.5260
_cell_length_c                    23.4070
_cell_angle_alpha                 90.0000
_cell_angle_beta                  107.3370
_cell_angle_gamma                 90.0000
loop_
_atom_site_label
_atom_site_type_symbol
_atom_site_fract_x
_atom_site_fract_y
_atom_site_fract_z
_atom_site_U_iso_or_equiv
_atom_site_adp_type
_atom_site_occupancy
C1     C     0.18383   0.91364   0.89967   0.00000  Uiso   1.00
C2     C     0.24447   0.01233   0.93153   0.00000  Uiso   1.00
C3     C     0.30519   0.95205   0.93819   0.00000  Uiso   1.00
C4     C     0.35443   0.06197   0.96878   0.00000  Uiso   1.00
C5     C     0.45030   0.19017   0.01476   0.00000  Uiso   1.00
C6     C     0.14737   0.89630   0.94523   0.00000  Uiso   1.00
C7     C     0.12644   0.73847   0.96340   0.00000  Uiso   1.00
C8     C     0.09393   0.75073   0.00553   0.00000  Uiso   1.00
C9     C     0.03901   0.69881   0.07274   0.00000  Uiso   1.00
C10    C     0.14556   0.03952   0.85139   0.00000  Uiso   1.00
C11    C     0.12309   0.00211   0.79066   0.00000  Uiso   1.00
C12    C     0.08903   0.13493   0.75379   0.00000  Uiso   1.00
C13    C     0.03129   0.30539   0.67531   0.00000  Uiso   1.00
C14    C     0.16329   0.21604   0.94217   0.00000  Uiso   1.00
C15    C     0.23332   0.17657   0.95461   0.00000  Uiso   1.00
C16    C     0.28247   0.28662   0.98520   0.00000  Uiso   1.00
C17    C     0.34325   0.22652   0.99191   0.00000  Uiso   1.00
C18    C     0.13622   0.06054   0.96831   0.00000  Uiso   1.00
C19    C     0.10372   0.07304   0.01042   0.00000  Uiso   1.00
C20    C     0.08275   0.91527   0.02865   0.00000  Uiso   1.00
C21    C     0.13440   0.20378   0.87447   0.00000  Uiso   1.00
C22    C     0.10037   0.33668   0.83768   0.00000  Uiso   1.00
C23    C     0.07786   0.29948   0.77691   0.00000  Uiso   1.00
H24    H     0.19251   0.78577   0.88170   0.00000  Uiso   1.00
H25    H     0.31381   0.82493   0.92032   0.00000  Uiso   1.00
H26    H     0.13508   0.61139   0.94553   0.00000  Uiso   1.00
H27    H     0.13173   0.87499   0.77282   0.00000  Uiso   1.00
H28    H     0.44337   0.94075   0.97333   0.00000  Uiso   1.00
H29    H     0.06649   0.49050   0.02647   0.00000  Uiso   1.00
H30    H     0.05943   0.04634   0.66228   0.00000  Uiso   1.00
H31    H     0.15460   0.34392   0.96014   0.00000  Uiso   1.00
H32    H     0.27382   0.41371   0.00306   0.00000  Uiso   1.00
H33    H     0.09510   0.20017   0.02827   0.00000  Uiso   1.00
H34    H     0.09175   0.46376   0.85556   0.00000  Uiso   1.00
H35    H     0.41092   0.41863   0.04049   0.00000  Uiso   1.00
H36    H     0.03404   0.96837   0.09362   0.00000  Uiso   1.00
H37    H     0.02698   0.52422   0.72943   0.00000  Uiso   1.00
O38    O     0.50626   0.21550   0.03375   0.00000  Uiso   1.00
O39    O     0.01180   0.62479   0.10345   0.00000  Uiso   1.00
O40    O     0.00253   0.35404   0.62564   0.00000  Uiso   1.00
N41    N     0.41937   0.04366   0.98324   0.00000  Uiso   1.00
N42    N     0.06702   0.62269   0.03292   0.00000  Uiso   1.00
N43    N     0.06040   0.14234   0.69244   0.00000  Uiso   1.00
N44    N     0.40191   0.30080   0.01937   0.00000  Uiso   1.00
N45    N     0.04956   0.87983   0.06906   0.00000  Uiso   1.00
N46    N     0.04294   0.39948   0.72857   0.00000  Uiso   1.00
C47    C     0.81617   0.41364   0.60033   0.00000  Uiso   1.00
C48    C     0.75553   0.51233   0.56847   0.00000  Uiso   1.00
C49    C     0.69481   0.45205   0.56181   0.00000  Uiso   1.00
C50    C     0.64557   0.56197   0.53122   0.00000  Uiso   1.00
C51    C     0.54970   0.69017   0.48524   0.00000  Uiso   1.00
C52    C     0.85263   0.39630   0.55477   0.00000  Uiso   1.00
C53    C     0.87356   0.23847   0.53660   0.00000  Uiso   1.00
C54    C     0.90607   0.25073   0.49447   0.00000  Uiso   1.00
C55    C     0.96099   0.19881   0.42726   0.00000  Uiso   1.00
C56    C     0.85444   0.53952   0.64861   0.00000  Uiso   1.00
C57    C     0.87691   0.50211   0.70934   0.00000  Uiso   1.00
C58    C     0.91097   0.63493   0.74621   0.00000  Uiso   1.00
C59    C     0.96871   0.80539   0.82469   0.00000  Uiso   1.00
C60    C     0.83671   0.71604   0.55783   0.00000  Uiso   1.00
C61    C     0.76668   0.67657   0.54539   0.00000  Uiso   1.00
C62    C     0.71753   0.78662   0.51480   0.00000  Uiso   1.00
C63    C     0.65675   0.72652   0.50809   0.00000  Uiso   1.00
C64    C     0.86378   0.56054   0.53169   0.00000  Uiso   1.00
C65    C     0.89628   0.57304   0.48958   0.00000  Uiso   1.00
C66    C     0.91725   0.41527   0.47135   0.00000  Uiso   1.00
C67    C     0.86560   0.70378   0.62553   0.00000  Uiso   1.00
C68    C     0.89963   0.83668   0.66232   0.00000  Uiso   1.00
C69    C     0.92214   0.79948   0.72309   0.00000  Uiso   1.00
H70    H     0.80749   0.28577   0.61830   0.00000  Uiso   1.00
H71    H     0.68619   0.32493   0.57968   0.00000  Uiso   1.00
H72    H     0.86492   0.11139   0.55447   0.00000  Uiso   1.00
H73    H     0.86827   0.37499   0.72718   0.00000  Uiso   1.00
H74    H     0.55663   0.44075   0.52667   0.00000  Uiso   1.00
H75    H     0.93351   0.99050   0.47353   0.00000  Uiso   1.00
H76    H     0.94057   0.54634   0.83772   0.00000  Uiso   1.00
H77    H     0.84540   0.84392   0.53986   0.00000  Uiso   1.00
H78    H     0.72618   0.91371   0.49694   0.00000  Uiso   1.00
H79    H     0.90490   0.70017   0.47173   0.00000  Uiso   1.00
H80    H     0.90825   0.96376   0.64444   0.00000  Uiso   1.00
H81    H     0.58908   0.91863   0.45951   0.00000  Uiso   1.00
H82    H     0.96596   0.46837   0.40638   0.00000  Uiso   1.00
H83    H     0.97302   0.02422   0.77057   0.00000  Uiso   1.00
O84    O     0.49374   0.71550   0.46625   0.00000  Uiso   1.00
O85    O     0.98820   0.12479   0.39655   0.00000  Uiso   1.00
O86    O     0.99747   0.85404   0.87436   0.00000  Uiso   1.00
N87    N     0.58063   0.54366   0.51676   0.00000  Uiso   1.00
N88    N     0.93298   0.12269   0.46708   0.00000  Uiso   1.00
N89    N     0.93960   0.64234   0.80756   0.00000  Uiso   1.00
N90    N     0.59809   0.80080   0.48063   0.00000  Uiso   1.00
N91    N     0.95044   0.37983   0.43094   0.00000  Uiso   1.00
N92    N     0.95706   0.89948   0.77143   0.00000  Uiso   1.00
C93    C     0.81617   0.08636   0.10033   0.00000  Uiso   1.00
C94    C     0.75553   0.98767   0.06847   0.00000  Uiso   1.00
C95    C     0.69481   0.04795   0.06181   0.00000  Uiso   1.00
C96    C     0.64557   0.93803   0.03122   0.00000  Uiso   1.00
C97    C     0.54970   0.80983   0.98524   0.00000  Uiso   1.00
C98    C     0.85263   0.10370   0.05477   0.00000  Uiso   1.00
C99    C     0.87356   0.26153   0.03660   0.00000  Uiso   1.00
C100   C     0.90607   0.24927   0.99447   0.00000  Uiso   1.00
C101   C     0.96099   0.30119   0.92726   0.00000  Uiso   1.00
C102   C     0.85444   0.96048   0.14861   0.00000  Uiso   1.00
C103   C     0.87691   0.99789   0.20934   0.00000  Uiso   1.00
C104   C     0.91097   0.86507   0.24621   0.00000  Uiso   1.00
C105   C     0.96871   0.69461   0.32469   0.00000  Uiso   1.00
C106   C     0.83671   0.78396   0.05783   0.00000  Uiso   1.00
C107   C     0.76668   0.82343   0.04539   0.00000  Uiso   1.00
C108   C     0.71753   0.71338   0.01480   0.00000  Uiso   1.00
C109   C     0.65675   0.77348   0.00809   0.00000  Uiso   1.00
C110   C     0.86378   0.93946   0.03169   0.00000  Uiso   1.00
C111   C     0.89628   0.92696   0.98958   0.00000  Uiso   1.00
C112   C     0.91725   0.08473   0.97135   0.00000  Uiso   1.00
C113   C     0.86560   0.79622   0.12553   0.00000  Uiso   1.00
C114   C     0.89963   0.66332   0.16232   0.00000  Uiso   1.00
C115   C     0.92214   0.70052   0.22309   0.00000  Uiso   1.00
H116   H     0.80749   0.21423   0.11830   0.00000  Uiso   1.00
H117   H     0.68619   0.17507   0.07968   0.00000  Uiso   1.00
H118   H     0.86492   0.38861   0.05447   0.00000  Uiso   1.00
H119   H     0.86827   0.12501   0.22718   0.00000  Uiso   1.00
H120   H     0.55663   0.05925   0.02667   0.00000  Uiso   1.00
H121   H     0.93351   0.50950   0.97353   0.00000  Uiso   1.00
H122   H     0.94057   0.95366   0.33772   0.00000  Uiso   1.00
H123   H     0.84540   0.65608   0.03986   0.00000  Uiso   1.00
H124   H     0.72618   0.58629   0.99694   0.00000  Uiso   1.00
H125   H     0.90490   0.79983   0.97173   0.00000  Uiso   1.00
H126   H     0.90825   0.53624   0.14444   0.00000  Uiso   1.00
H127   H     0.58908   0.58137   0.95951   0.00000  Uiso   1.00
H128   H     0.96596   0.03163   0.90638   0.00000  Uiso   1.00
H129   H     0.97302   0.47578   0.27057   0.00000  Uiso   1.00
O130   O     0.49374   0.78450   0.96625   0.00000  Uiso   1.00
O131   O     0.98820   0.37521   0.89655   0.00000  Uiso   1.00
O132   O     0.99747   0.64596   0.37436   0.00000  Uiso   1.00
N133   N     0.58063   0.95634   0.01676   0.00000  Uiso   1.00
N134   N     0.93298   0.37731   0.96708   0.00000  Uiso   1.00
N135   N     0.93960   0.85766   0.30756   0.00000  Uiso   1.00
N136   N     0.59809   0.69920   0.98063   0.00000  Uiso   1.00
N137   N     0.95044   0.12017   0.93094   0.00000  Uiso   1.00
N138   N     0.95706   0.60052   0.27143   0.00000  Uiso   1.00
C139   C     0.18383   0.58636   0.39967   0.00000  Uiso   1.00
C140   C     0.24447   0.48767   0.43153   0.00000  Uiso   1.00
C141   C     0.30519   0.54795   0.43819   0.00000  Uiso   1.00
C142   C     0.35443   0.43803   0.46878   0.00000  Uiso   1.00
C143   C     0.45030   0.30983   0.51476   0.00000  Uiso   1.00
C144   C     0.14737   0.60370   0.44523   0.00000  Uiso   1.00
C145   C     0.12644   0.76153   0.46340   0.00000  Uiso   1.00
C146   C     0.09393   0.74927   0.50553   0.00000  Uiso   1.00
C147   C     0.03901   0.80119   0.57274   0.00000  Uiso   1.00
C148   C     0.14556   0.46048   0.35139   0.00000  Uiso   1.00
C149   C     0.12309   0.49789   0.29066   0.00000  Uiso   1.00
C150   C     0.08903   0.36507   0.25379   0.00000  Uiso   1.00
C151   C     0.03129   0.19461   0.17531   0.00000  Uiso   1.00
C152   C     0.16329   0.28396   0.44217   0.00000  Uiso   1.00
C153   C     0.23332   0.32343   0.45461   0.00000  Uiso   1.00
C154   C     0.28247   0.21338   0.48520   0.00000  Uiso   1.00
C155   C     0.34325   0.27348   0.49191   0.00000  Uiso   1.00
C156   C     0.13622   0.43946   0.46831   0.00000  Uiso   1.00
C157   C     0.10372   0.42696   0.51042   0.00000  Uiso   1.00
C158   C     0.08275   0.58473   0.52865   0.00000  Uiso   1.00
C159   C     0.13440   0.29622   0.37447   0.00000  Uiso   1.00
C160   C     0.10037   0.16332   0.33768   0.00000  Uiso   1.00
C161   C     0.07786   0.20052   0.27691   0.00000  Uiso   1.00
H162   H     0.19251   0.71423   0.38170   0.00000  Uiso   1.00
H163   H     0.31381   0.67507   0.42032   0.00000  Uiso   1.00
H164   H     0.13508   0.88861   0.44553   0.00000  Uiso   1.00
H165   H     0.13173   0.62501   0.27282   0.00000  Uiso   1.00
H166   H     0.44337   0.55925   0.47333   0.00000  Uiso   1.00
H167   H     0.06649   0.00950   0.52647   0.00000  Uiso   1.00
H168   H     0.05943   0.45366   0.16228   0.00000  Uiso   1.00
H169   H     0.15460   0.15608   0.46014   0.00000  Uiso   1.00
H170   H     0.27382   0.08629   0.50306   0.00000  Uiso   1.00
H171   H     0.09510   0.29983   0.52827   0.00000  Uiso   1.00
H172   H     0.09175   0.03624   0.35556   0.00000  Uiso   1.00
H173   H     0.41092   0.08137   0.54049   0.00000  Uiso   1.00
H174   H     0.03404   0.53163   0.59362   0.00000  Uiso   1.00
H175   H     0.02698   0.97578   0.22943   0.00000  Uiso   1.00
O176   O     0.50626   0.28450   0.53375   0.00000  Uiso   1.00
O177   O     0.01180   0.87521   0.60345   0.00000  Uiso   1.00
O178   O     0.00253   0.14596   0.12564   0.00000  Uiso   1.00
N179   N     0.41937   0.45634   0.48324   0.00000  Uiso   1.00
N180   N     0.06702   0.87731   0.53292   0.00000  Uiso   1.00
N181   N     0.06040   0.35766   0.19244   0.00000  Uiso   1.00
N182   N     0.40191   0.19920   0.51937   0.00000  Uiso   1.00
N183   N     0.04956   0.62017   0.56906   0.00000  Uiso   1.00
N184   N     0.04294   0.10052   0.22857   0.00000  Uiso   1.00
