data_job_05766
_audit_creation_date              2018-12-19
_audit_creation_method            'Materials Studio'
_symmetry_space_group_name_H-M    'P1'
_symmetry_Int_Tables_number       1
_symmetry_cell_setting            triclinic
loop_
_symmetry_equiv_pos_as_xyz
  x,y,z
_cell_length_a                    15.5133
_cell_length_b                    12.3158
_cell_length_c                    23.7516
_cell_angle_alpha                 90.0000
_cell_angle_beta                  129.6969
_cell_angle_gamma                 90.0000
loop_
_atom_site_label
_atom_site_type_symbol
_atom_site_fract_x
_atom_site_fract_y
_atom_site_fract_z
_atom_site_U_iso_or_equiv
_atom_site_adp_type
_atom_site_occupancy
C1     C     0.67801   0.63348   0.39616   0.00000  Uiso   1.00
C2     C     0.57436   0.63880   0.39035   0.00000  Uiso   1.00
C3     C     0.46564   0.61492   0.32840   0.00000  Uiso   1.00
C4     C     0.38242   0.62474   0.33420   0.00000  Uiso   1.00
C5     C     0.21771   0.62811   0.31522   0.00000  Uiso   1.00
C6     C     0.73143   0.74584   0.42108   0.00000  Uiso   1.00
C7     C     0.75478   0.81195   0.38498   0.00000  Uiso   1.00
C8     C     0.80379   0.91186   0.41667   0.00000  Uiso   1.00
C9     C     0.88300   0.08138   0.44543   0.00000  Uiso   1.00
C10    C     0.75945   0.55685   0.45959   0.00000  Uiso   1.00
C11    C     0.80640   0.46406   0.45587   0.00000  Uiso   1.00
C12    C     0.87903   0.40488   0.51998   0.00000  Uiso   1.00
C13    C     0.00175   0.28095   0.60853   0.00000  Uiso   1.00
C14    C     0.72355   0.69337   0.51662   0.00000  Uiso   1.00
C15    C     0.59910   0.67134   0.45578   0.00000  Uiso   1.00
C16    C     0.51603   0.68119   0.46168   0.00000  Uiso   1.00
C17    C     0.40720   0.65732   0.39975   0.00000  Uiso   1.00
C18    C     0.75616   0.77837   0.48651   0.00000  Uiso   1.00
C19    C     0.80516   0.87821   0.51826   0.00000  Uiso   1.00
C20    C     0.82857   0.94445   0.48222   0.00000  Uiso   1.00
C21    C     0.78419   0.58938   0.52502   0.00000  Uiso   1.00
C22    C     0.85677   0.53033   0.58915   0.00000  Uiso   1.00
C23    C     0.90381   0.43747   0.58553   0.00000  Uiso   1.00
H24    H     0.65876   0.60816   0.34522   0.00000  Uiso   1.00
H25    H     0.44653   0.58976   0.27777   0.00000  Uiso   1.00
H26    H     0.73563   0.78675   0.33435   0.00000  Uiso   1.00
H27    H     0.78723   0.43892   0.40523   0.00000  Uiso   1.00
H28    H     0.22214   0.58375   0.23185   0.00000  Uiso   1.00
H29    H     0.83176   0.99909   0.35116   0.00000  Uiso   1.00
H30    H     0.94058   0.26562   0.50062   0.00000  Uiso   1.00
H31    H     0.74281   0.71870   0.56757   0.00000  Uiso   1.00
H32    H     0.53519   0.70636   0.51233   0.00000  Uiso   1.00
H33    H     0.82430   0.90335   0.56890   0.00000  Uiso   1.00
H34    H     0.87590   0.55552   0.63978   0.00000  Uiso   1.00
H35    H     0.29410   0.67839   0.42222   0.00000  Uiso   1.00
H36    H     0.90373   0.09373   0.54153   0.00000  Uiso   1.00
H37    H     0.01255   0.36027   0.69099   0.00000  Uiso   1.00
O38    O     0.12002   0.62100   0.28667   0.00000  Uiso   1.00
O39    O     0.91984   0.16590   0.44321   0.00000  Uiso   1.00
O40    O     0.06260   0.20360   0.63930   0.00000  Uiso   1.00
N41    N     0.26757   0.60769   0.28424   0.00000  Uiso   1.00
N42    N     0.83752   0.99602   0.39578   0.00000  Uiso   1.00
N43    N     0.93928   0.31031   0.53552   0.00000  Uiso   1.00
N44    N     0.30630   0.65862   0.38667   0.00000  Uiso   1.00
N45    N     0.87624   0.04695   0.49822   0.00000  Uiso   1.00
N46    N     0.97800   0.36123   0.63795   0.00000  Uiso   1.00
C47    C     0.32199   0.63348   0.10384   0.00000  Uiso   1.00
C48    C     0.42564   0.63880   0.10965   0.00000  Uiso   1.00
C49    C     0.53436   0.61492   0.17160   0.00000  Uiso   1.00
C50    C     0.61758   0.62474   0.16580   0.00000  Uiso   1.00
C51    C     0.78229   0.62811   0.18478   0.00000  Uiso   1.00
C52    C     0.26857   0.74584   0.07892   0.00000  Uiso   1.00
C53    C     0.24522   0.81195   0.11502   0.00000  Uiso   1.00
C54    C     0.19621   0.91186   0.08333   0.00000  Uiso   1.00
C55    C     0.11700   0.08138   0.05457   0.00000  Uiso   1.00
C56    C     0.24055   0.55685   0.04041   0.00000  Uiso   1.00
C57    C     0.19360   0.46406   0.04413   0.00000  Uiso   1.00
C58    C     0.12097   0.40488   0.98002   0.00000  Uiso   1.00
C59    C     0.99825   0.28095   0.89147   0.00000  Uiso   1.00
C60    C     0.27645   0.69337   0.98338   0.00000  Uiso   1.00
C61    C     0.40090   0.67134   0.04422   0.00000  Uiso   1.00
C62    C     0.48397   0.68119   0.03832   0.00000  Uiso   1.00
C63    C     0.59280   0.65732   0.10025   0.00000  Uiso   1.00
C64    C     0.24384   0.77837   0.01349   0.00000  Uiso   1.00
C65    C     0.19484   0.87821   0.98174   0.00000  Uiso   1.00
C66    C     0.17143   0.94445   0.01778   0.00000  Uiso   1.00
C67    C     0.21581   0.58938   0.97498   0.00000  Uiso   1.00
C68    C     0.14323   0.53033   0.91085   0.00000  Uiso   1.00
C69    C     0.09619   0.43747   0.91447   0.00000  Uiso   1.00
H70    H     0.34124   0.60816   0.15478   0.00000  Uiso   1.00
H71    H     0.55347   0.58976   0.22223   0.00000  Uiso   1.00
H72    H     0.26437   0.78675   0.16565   0.00000  Uiso   1.00
H73    H     0.21277   0.43892   0.09477   0.00000  Uiso   1.00
H74    H     0.77786   0.58375   0.26815   0.00000  Uiso   1.00
H75    H     0.16824   0.99909   0.14884   0.00000  Uiso   1.00
H76    H     0.05942   0.26562   0.99938   0.00000  Uiso   1.00
H77    H     0.25719   0.71870   0.93243   0.00000  Uiso   1.00
H78    H     0.46481   0.70636   0.98767   0.00000  Uiso   1.00
H79    H     0.17570   0.90335   0.93110   0.00000  Uiso   1.00
H80    H     0.12410   0.55552   0.86022   0.00000  Uiso   1.00
H81    H     0.70590   0.67839   0.07778   0.00000  Uiso   1.00
H82    H     0.09627   0.09373   0.95847   0.00000  Uiso   1.00
H83    H     0.98745   0.36027   0.80901   0.00000  Uiso   1.00
O84    O     0.87998   0.62100   0.21333   0.00000  Uiso   1.00
O85    O     0.08016   0.16590   0.05679   0.00000  Uiso   1.00
O86    O     0.93740   0.20360   0.86070   0.00000  Uiso   1.00
N87    N     0.73243   0.60769   0.21576   0.00000  Uiso   1.00
N88    N     0.16248   0.99602   0.10422   0.00000  Uiso   1.00
N89    N     0.06072   0.31031   0.96448   0.00000  Uiso   1.00
N90    N     0.69370   0.65862   0.11333   0.00000  Uiso   1.00
N91    N     0.12376   0.04695   0.00178   0.00000  Uiso   1.00
N92    N     0.02200   0.36123   0.86205   0.00000  Uiso   1.00
C93    C     0.32199   0.36652   0.60384   0.00000  Uiso   1.00
C94    C     0.42564   0.36120   0.60965   0.00000  Uiso   1.00
C95    C     0.53436   0.38508   0.67160   0.00000  Uiso   1.00
C96    C     0.61758   0.37526   0.66580   0.00000  Uiso   1.00
C97    C     0.78229   0.37189   0.68478   0.00000  Uiso   1.00
C98    C     0.26857   0.25416   0.57892   0.00000  Uiso   1.00
C99    C     0.24522   0.18805   0.61502   0.00000  Uiso   1.00
C100   C     0.19621   0.08814   0.58333   0.00000  Uiso   1.00
C101   C     0.11700   0.91862   0.55457   0.00000  Uiso   1.00
C102   C     0.24055   0.44315   0.54041   0.00000  Uiso   1.00
C103   C     0.19360   0.53594   0.54413   0.00000  Uiso   1.00
C104   C     0.12097   0.59512   0.48002   0.00000  Uiso   1.00
C105   C     0.99825   0.71905   0.39147   0.00000  Uiso   1.00
C106   C     0.27645   0.30663   0.48338   0.00000  Uiso   1.00
C107   C     0.40090   0.32866   0.54422   0.00000  Uiso   1.00
C108   C     0.48397   0.31881   0.53832   0.00000  Uiso   1.00
C109   C     0.59280   0.34268   0.60025   0.00000  Uiso   1.00
C110   C     0.24384   0.22163   0.51349   0.00000  Uiso   1.00
C111   C     0.19484   0.12179   0.48174   0.00000  Uiso   1.00
C112   C     0.17143   0.05555   0.51778   0.00000  Uiso   1.00
C113   C     0.21581   0.41062   0.47498   0.00000  Uiso   1.00
C114   C     0.14323   0.46967   0.41085   0.00000  Uiso   1.00
C115   C     0.09619   0.56253   0.41447   0.00000  Uiso   1.00
H116   H     0.34124   0.39184   0.65478   0.00000  Uiso   1.00
H117   H     0.55347   0.41024   0.72223   0.00000  Uiso   1.00
H118   H     0.26437   0.21325   0.66565   0.00000  Uiso   1.00
H119   H     0.21277   0.56108   0.59477   0.00000  Uiso   1.00
H120   H     0.77786   0.41625   0.76815   0.00000  Uiso   1.00
H121   H     0.16824   0.00091   0.64884   0.00000  Uiso   1.00
H122   H     0.05942   0.73438   0.49938   0.00000  Uiso   1.00
H123   H     0.25719   0.28130   0.43243   0.00000  Uiso   1.00
H124   H     0.46481   0.29364   0.48767   0.00000  Uiso   1.00
H125   H     0.17570   0.09665   0.43110   0.00000  Uiso   1.00
H126   H     0.12410   0.44448   0.36022   0.00000  Uiso   1.00
H127   H     0.70590   0.32161   0.57778   0.00000  Uiso   1.00
H128   H     0.09627   0.90627   0.45847   0.00000  Uiso   1.00
H129   H     0.98745   0.63973   0.30901   0.00000  Uiso   1.00
O130   O     0.87998   0.37900   0.71333   0.00000  Uiso   1.00
O131   O     0.08016   0.83410   0.55679   0.00000  Uiso   1.00
O132   O     0.93740   0.79640   0.36070   0.00000  Uiso   1.00
N133   N     0.73243   0.39231   0.71576   0.00000  Uiso   1.00
N134   N     0.16248   0.00398   0.60422   0.00000  Uiso   1.00
N135   N     0.06072   0.68969   0.46448   0.00000  Uiso   1.00
N136   N     0.69370   0.34138   0.61333   0.00000  Uiso   1.00
N137   N     0.12376   0.95305   0.50178   0.00000  Uiso   1.00
N138   N     0.02200   0.63877   0.36205   0.00000  Uiso   1.00
C139   C     0.67801   0.36652   0.89616   0.00000  Uiso   1.00
C140   C     0.57436   0.36120   0.89035   0.00000  Uiso   1.00
C141   C     0.46564   0.38508   0.82840   0.00000  Uiso   1.00
C142   C     0.38242   0.37526   0.83420   0.00000  Uiso   1.00
C143   C     0.21771   0.37189   0.81522   0.00000  Uiso   1.00
C144   C     0.73143   0.25416   0.92108   0.00000  Uiso   1.00
C145   C     0.75478   0.18805   0.88498   0.00000  Uiso   1.00
C146   C     0.80379   0.08814   0.91667   0.00000  Uiso   1.00
C147   C     0.88300   0.91862   0.94543   0.00000  Uiso   1.00
C148   C     0.75945   0.44315   0.95959   0.00000  Uiso   1.00
C149   C     0.80640   0.53594   0.95587   0.00000  Uiso   1.00
C150   C     0.87903   0.59512   0.01998   0.00000  Uiso   1.00
C151   C     0.00175   0.71905   0.10853   0.00000  Uiso   1.00
C152   C     0.72355   0.30663   0.01662   0.00000  Uiso   1.00
C153   C     0.59910   0.32866   0.95578   0.00000  Uiso   1.00
C154   C     0.51603   0.31881   0.96168   0.00000  Uiso   1.00
C155   C     0.40720   0.34268   0.89975   0.00000  Uiso   1.00
C156   C     0.75616   0.22163   0.98651   0.00000  Uiso   1.00
C157   C     0.80516   0.12179   0.01826   0.00000  Uiso   1.00
C158   C     0.82857   0.05555   0.98222   0.00000  Uiso   1.00
C159   C     0.78419   0.41062   0.02502   0.00000  Uiso   1.00
C160   C     0.85677   0.46967   0.08915   0.00000  Uiso   1.00
C161   C     0.90381   0.56253   0.08553   0.00000  Uiso   1.00
H162   H     0.65876   0.39184   0.84522   0.00000  Uiso   1.00
H163   H     0.44653   0.41024   0.77777   0.00000  Uiso   1.00
H164   H     0.73563   0.21325   0.83435   0.00000  Uiso   1.00
H165   H     0.78723   0.56108   0.90523   0.00000  Uiso   1.00
H166   H     0.22214   0.41625   0.73185   0.00000  Uiso   1.00
H167   H     0.83176   0.00091   0.85116   0.00000  Uiso   1.00
H168   H     0.94058   0.73438   0.00062   0.00000  Uiso   1.00
H169   H     0.74281   0.28130   0.06757   0.00000  Uiso   1.00
H170   H     0.53519   0.29364   0.01233   0.00000  Uiso   1.00
H171   H     0.82430   0.09665   0.06890   0.00000  Uiso   1.00
H172   H     0.87590   0.44448   0.13978   0.00000  Uiso   1.00
H173   H     0.29410   0.32161   0.92222   0.00000  Uiso   1.00
H174   H     0.90373   0.90627   0.04153   0.00000  Uiso   1.00
H175   H     0.01255   0.63973   0.19099   0.00000  Uiso   1.00
O176   O     0.12002   0.37900   0.78667   0.00000  Uiso   1.00
O177   O     0.91984   0.83410   0.94321   0.00000  Uiso   1.00
O178   O     0.06260   0.79640   0.13930   0.00000  Uiso   1.00
N179   N     0.26757   0.39231   0.78424   0.00000  Uiso   1.00
N180   N     0.83752   0.00398   0.89578   0.00000  Uiso   1.00
N181   N     0.93928   0.68969   0.03552   0.00000  Uiso   1.00
N182   N     0.30630   0.34138   0.88667   0.00000  Uiso   1.00
N183   N     0.87624   0.95305   0.99822   0.00000  Uiso   1.00
N184   N     0.97800   0.63877   0.13795   0.00000  Uiso   1.00
