data_job_03029
_audit_creation_date              2018-12-19
_audit_creation_method            'Materials Studio'
_symmetry_space_group_name_H-M    'P1'
_symmetry_Int_Tables_number       1
_symmetry_cell_setting            triclinic
loop_
_symmetry_equiv_pos_as_xyz
  x,y,z
_cell_length_a                    35.2572
_cell_length_b                    35.2572
_cell_length_c                    7.0379
_cell_angle_alpha                 90.0000
_cell_angle_beta                  90.0000
_cell_angle_gamma                 120.0000
loop_
_atom_site_label
_atom_site_type_symbol
_atom_site_fract_x
_atom_site_fract_y
_atom_site_fract_z
_atom_site_U_iso_or_equiv
_atom_site_adp_type
_atom_site_occupancy
C1     C     0.05066   0.64187   0.99980   0.00000  Uiso   1.00
C2     C     0.08338   0.68069   0.88094   0.00000  Uiso   1.00
C3     C     0.11901   0.71858   0.95081   0.00000  Uiso   1.00
C4     C     0.14503   0.75028   0.81891   0.00000  Uiso   1.00
C5     C     0.19725   0.81149   0.66397   0.00000  Uiso   1.00
C6     C     0.00564   0.63546   0.95196   0.00000  Uiso   1.00
C7     C     0.97589   0.63532   0.08157   0.00000  Uiso   1.00
C8     C     0.93647   0.62894   0.00945   0.00000  Uiso   1.00
C9     C     0.86797   0.61990   0.96480   0.00000  Uiso   1.00
C10    C     0.05121   0.60187   0.92083   0.00000  Uiso   1.00
C11    C     0.05977   0.57347   0.02426   0.00000  Uiso   1.00
C12    C     0.05870   0.53881   0.92593   0.00000  Uiso   1.00
C13    C     0.06096   0.47761   0.83293   0.00000  Uiso   1.00
C14    C     0.03352   0.63081   0.64129   0.00000  Uiso   1.00
C15    C     0.07407   0.67468   0.68621   0.00000  Uiso   1.00
C16    C     0.10006   0.70634   0.55416   0.00000  Uiso   1.00
C17    C     0.13571   0.74426   0.62383   0.00000  Uiso   1.00
C18    C     0.99633   0.62946   0.75724   0.00000  Uiso   1.00
C19    C     0.95694   0.62308   0.68492   0.00000  Uiso   1.00
C20    C     0.92715   0.62292   0.81437   0.00000  Uiso   1.00
C21    C     0.04190   0.59587   0.72609   0.00000  Uiso   1.00
C22    C     0.04082   0.56124   0.62760   0.00000  Uiso   1.00
C23    C     0.04938   0.53279   0.73085   0.00000  Uiso   1.00
H24    H     0.05790   0.64655   0.15141   0.00000  Uiso   1.00
H25    H     0.12620   0.72321   0.10152   0.00000  Uiso   1.00
H26    H     0.98310   0.63996   0.23226   0.00000  Uiso   1.00
H27    H     0.06697   0.57813   0.17494   0.00000  Uiso   1.00
H28    H     0.19781   0.80557   0.96034   0.00000  Uiso   1.00
H29    H     0.89608   0.63002   0.23601   0.00000  Uiso   1.00
H30    H     0.07292   0.49963   0.11516   0.00000  Uiso   1.00
H31    H     0.02628   0.62613   0.48968   0.00000  Uiso   1.00
H32    H     0.09285   0.70168   0.40347   0.00000  Uiso   1.00
H33    H     0.94975   0.61843   0.53422   0.00000  Uiso   1.00
H34    H     0.03362   0.55660   0.47690   0.00000  Uiso   1.00
H35    H     0.17074   0.78810   0.39378   0.00000  Uiso   1.00
H36    H     0.86900   0.61254   0.66946   0.00000  Uiso   1.00
H37    H     0.04585   0.48215   0.54860   0.00000  Uiso   1.00
O38    O     0.22862   0.84691   0.63230   0.00000  Uiso   1.00
O39    O     0.83276   0.61657   0.99398   0.00000  Uiso   1.00
O40    O     0.06478   0.44552   0.83543   0.00000  Uiso   1.00
N41    N     0.18231   0.79109   0.83883   0.00000  Uiso   1.00
N42    N     0.90021   0.62696   0.09656   0.00000  Uiso   1.00
N43    N     0.06553   0.50505   0.98359   0.00000  Uiso   1.00
N44    N     0.16774   0.78169   0.53397   0.00000  Uiso   1.00
N45    N     0.88564   0.61756   0.79170   0.00000  Uiso   1.00
N46    N     0.05097   0.49565   0.67873   0.00000  Uiso   1.00
C47    C     0.35813   0.40879   0.33314   0.00000  Uiso   1.00
C48    C     0.31931   0.40269   0.21427   0.00000  Uiso   1.00
C49    C     0.28142   0.40043   0.28414   0.00000  Uiso   1.00
C50    C     0.24972   0.39475   0.15224   0.00000  Uiso   1.00
C51    C     0.18851   0.38577   0.99730   0.00000  Uiso   1.00
C52    C     0.36454   0.37017   0.28530   0.00000  Uiso   1.00
C53    C     0.36468   0.34058   0.41490   0.00000  Uiso   1.00
C54    C     0.37106   0.30753   0.34279   0.00000  Uiso   1.00
C55    C     0.38010   0.24807   0.29814   0.00000  Uiso   1.00
C56    C     0.39813   0.44933   0.25416   0.00000  Uiso   1.00
C57    C     0.42653   0.48630   0.35759   0.00000  Uiso   1.00
C58    C     0.46119   0.51989   0.25926   0.00000  Uiso   1.00
C59    C     0.52239   0.58335   0.16627   0.00000  Uiso   1.00
C60    C     0.36919   0.40271   0.97462   0.00000  Uiso   1.00
C61    C     0.32532   0.39939   0.01954   0.00000  Uiso   1.00
C62    C     0.29366   0.39372   0.88749   0.00000  Uiso   1.00
C63    C     0.25574   0.39145   0.95716   0.00000  Uiso   1.00
C64    C     0.37054   0.36687   0.09058   0.00000  Uiso   1.00
C65    C     0.37692   0.33386   0.01825   0.00000  Uiso   1.00
C66    C     0.37708   0.30422   0.14771   0.00000  Uiso   1.00
C67    C     0.40413   0.44604   0.05943   0.00000  Uiso   1.00
C68    C     0.43876   0.47958   0.96093   0.00000  Uiso   1.00
C69    C     0.46721   0.51659   0.06418   0.00000  Uiso   1.00
H70    H     0.35345   0.41135   0.48474   0.00000  Uiso   1.00
H71    H     0.27679   0.40298   0.43486   0.00000  Uiso   1.00
H72    H     0.36004   0.34314   0.56559   0.00000  Uiso   1.00
H73    H     0.42187   0.48884   0.50828   0.00000  Uiso   1.00
H74    H     0.19443   0.39223   0.29368   0.00000  Uiso   1.00
H75    H     0.36998   0.26606   0.56935   0.00000  Uiso   1.00
H76    H     0.50037   0.57329   0.44850   0.00000  Uiso   1.00
H77    H     0.37387   0.40015   0.82301   0.00000  Uiso   1.00
H78    H     0.29832   0.39116   0.73681   0.00000  Uiso   1.00
H79    H     0.38157   0.33132   0.86755   0.00000  Uiso   1.00
H80    H     0.44340   0.47702   0.81024   0.00000  Uiso   1.00
H81    H     0.21190   0.38264   0.72712   0.00000  Uiso   1.00
H82    H     0.38746   0.25647   0.00279   0.00000  Uiso   1.00
H83    H     0.51785   0.56370   0.88194   0.00000  Uiso   1.00
O84    O     0.15309   0.38171   0.96564   0.00000  Uiso   1.00
O85    O     0.38343   0.21619   0.32731   0.00000  Uiso   1.00
O86    O     0.55448   0.61927   0.16876   0.00000  Uiso   1.00
N87    N     0.20891   0.39122   0.17216   0.00000  Uiso   1.00
N88    N     0.37304   0.27325   0.42990   0.00000  Uiso   1.00
N89    N     0.49495   0.56048   0.31692   0.00000  Uiso   1.00
N90    N     0.21831   0.38605   0.86730   0.00000  Uiso   1.00
N91    N     0.38244   0.26809   0.12503   0.00000  Uiso   1.00
N92    N     0.50435   0.55532   0.01206   0.00000  Uiso   1.00
C93    C     0.59121   0.94934   0.66647   0.00000  Uiso   1.00
C94    C     0.59731   0.91662   0.54760   0.00000  Uiso   1.00
C95    C     0.59957   0.88099   0.61748   0.00000  Uiso   1.00
C96    C     0.60525   0.85497   0.48557   0.00000  Uiso   1.00
C97    C     0.61423   0.80275   0.33063   0.00000  Uiso   1.00
C98    C     0.62983   0.99436   0.61863   0.00000  Uiso   1.00
C99    C     0.65942   0.02411   0.74824   0.00000  Uiso   1.00
C100   C     0.69247   0.06353   0.67612   0.00000  Uiso   1.00
C101   C     0.75193   0.13203   0.63147   0.00000  Uiso   1.00
C102   C     0.55067   0.94879   0.58749   0.00000  Uiso   1.00
C103   C     0.51370   0.94023   0.69092   0.00000  Uiso   1.00
C104   C     0.48011   0.94130   0.59260   0.00000  Uiso   1.00
C105   C     0.41665   0.93904   0.49960   0.00000  Uiso   1.00
C106   C     0.59729   0.96648   0.30796   0.00000  Uiso   1.00
C107   C     0.60061   0.92593   0.35287   0.00000  Uiso   1.00
C108   C     0.60628   0.89994   0.22082   0.00000  Uiso   1.00
C109   C     0.60855   0.86429   0.29049   0.00000  Uiso   1.00
C110   C     0.63313   0.00367   0.42391   0.00000  Uiso   1.00
C111   C     0.66614   0.04306   0.35158   0.00000  Uiso   1.00
C112   C     0.69578   0.07285   0.48104   0.00000  Uiso   1.00
C113   C     0.55396   0.95810   0.39276   0.00000  Uiso   1.00
C114   C     0.52042   0.95918   0.29426   0.00000  Uiso   1.00
C115   C     0.48341   0.95062   0.39752   0.00000  Uiso   1.00
H116   H     0.58865   0.94210   0.81807   0.00000  Uiso   1.00
H117   H     0.59702   0.87380   0.76819   0.00000  Uiso   1.00
H118   H     0.65686   0.01690   0.89892   0.00000  Uiso   1.00
H119   H     0.51116   0.93303   0.84161   0.00000  Uiso   1.00
H120   H     0.60777   0.80219   0.62701   0.00000  Uiso   1.00
H121   H     0.73394   0.10392   0.90268   0.00000  Uiso   1.00
H122   H     0.42671   0.92708   0.78183   0.00000  Uiso   1.00
H123   H     0.59985   0.97372   0.15635   0.00000  Uiso   1.00
H124   H     0.60884   0.90715   0.07014   0.00000  Uiso   1.00
H125   H     0.66868   0.05025   0.20088   0.00000  Uiso   1.00
H126   H     0.52298   0.96638   0.14357   0.00000  Uiso   1.00
H127   H     0.61736   0.82926   0.06045   0.00000  Uiso   1.00
H128   H     0.74353   0.13100   0.33613   0.00000  Uiso   1.00
H129   H     0.43630   0.95415   0.21527   0.00000  Uiso   1.00
O130   O     0.61829   0.77138   0.29897   0.00000  Uiso   1.00
O131   O     0.78381   0.16724   0.66064   0.00000  Uiso   1.00
O132   O     0.38073   0.93522   0.50209   0.00000  Uiso   1.00
N133   N     0.60878   0.81769   0.50550   0.00000  Uiso   1.00
N134   N     0.72675   0.09979   0.76323   0.00000  Uiso   1.00
N135   N     0.43952   0.93447   0.65026   0.00000  Uiso   1.00
N136   N     0.61395   0.83226   0.20063   0.00000  Uiso   1.00
N137   N     0.73191   0.11436   0.45837   0.00000  Uiso   1.00
N138   N     0.44468   0.94903   0.34540   0.00000  Uiso   1.00
C139   C     0.94934   0.35813   0.49980   0.00000  Uiso   1.00
C140   C     0.91662   0.31931   0.38094   0.00000  Uiso   1.00
C141   C     0.88099   0.28142   0.45081   0.00000  Uiso   1.00
C142   C     0.85497   0.24972   0.31891   0.00000  Uiso   1.00
C143   C     0.80275   0.18851   0.16397   0.00000  Uiso   1.00
C144   C     0.99436   0.36454   0.45196   0.00000  Uiso   1.00
C145   C     0.02411   0.36468   0.58157   0.00000  Uiso   1.00
C146   C     0.06353   0.37106   0.50945   0.00000  Uiso   1.00
C147   C     0.13203   0.38010   0.46480   0.00000  Uiso   1.00
C148   C     0.94879   0.39813   0.42083   0.00000  Uiso   1.00
C149   C     0.94023   0.42653   0.52426   0.00000  Uiso   1.00
C150   C     0.94130   0.46119   0.42593   0.00000  Uiso   1.00
C151   C     0.93904   0.52239   0.33293   0.00000  Uiso   1.00
C152   C     0.96648   0.36919   0.14129   0.00000  Uiso   1.00
C153   C     0.92593   0.32532   0.18621   0.00000  Uiso   1.00
C154   C     0.89994   0.29366   0.05416   0.00000  Uiso   1.00
C155   C     0.86429   0.25574   0.12383   0.00000  Uiso   1.00
C156   C     0.00367   0.37054   0.25724   0.00000  Uiso   1.00
C157   C     0.04306   0.37692   0.18492   0.00000  Uiso   1.00
C158   C     0.07285   0.37708   0.31437   0.00000  Uiso   1.00
C159   C     0.95810   0.40413   0.22609   0.00000  Uiso   1.00
C160   C     0.95918   0.43876   0.12760   0.00000  Uiso   1.00
C161   C     0.95062   0.46721   0.23085   0.00000  Uiso   1.00
H162   H     0.94210   0.35345   0.65141   0.00000  Uiso   1.00
H163   H     0.87380   0.27679   0.60152   0.00000  Uiso   1.00
H164   H     0.01690   0.36004   0.73226   0.00000  Uiso   1.00
H165   H     0.93303   0.42187   0.67494   0.00000  Uiso   1.00
H166   H     0.80219   0.19443   0.46034   0.00000  Uiso   1.00
H167   H     0.10392   0.36998   0.73601   0.00000  Uiso   1.00
H168   H     0.92708   0.50037   0.61516   0.00000  Uiso   1.00
H169   H     0.97372   0.37387   0.98968   0.00000  Uiso   1.00
H170   H     0.90715   0.29832   0.90347   0.00000  Uiso   1.00
H171   H     0.05025   0.38157   0.03422   0.00000  Uiso   1.00
H172   H     0.96638   0.44340   0.97690   0.00000  Uiso   1.00
H173   H     0.82926   0.21190   0.89378   0.00000  Uiso   1.00
H174   H     0.13100   0.38746   0.16946   0.00000  Uiso   1.00
H175   H     0.95415   0.51785   0.04860   0.00000  Uiso   1.00
O176   O     0.77138   0.15309   0.13230   0.00000  Uiso   1.00
O177   O     0.16724   0.38343   0.49398   0.00000  Uiso   1.00
O178   O     0.93522   0.55448   0.33543   0.00000  Uiso   1.00
N179   N     0.81769   0.20891   0.33883   0.00000  Uiso   1.00
N180   N     0.09979   0.37304   0.59656   0.00000  Uiso   1.00
N181   N     0.93447   0.49495   0.48359   0.00000  Uiso   1.00
N182   N     0.83226   0.21831   0.03397   0.00000  Uiso   1.00
N183   N     0.11436   0.38244   0.29170   0.00000  Uiso   1.00
N184   N     0.94903   0.50435   0.17873   0.00000  Uiso   1.00
C185   C     0.64187   0.59121   0.83314   0.00000  Uiso   1.00
C186   C     0.68069   0.59731   0.71427   0.00000  Uiso   1.00
C187   C     0.71858   0.59957   0.78414   0.00000  Uiso   1.00
C188   C     0.75028   0.60525   0.65224   0.00000  Uiso   1.00
C189   C     0.81149   0.61423   0.49730   0.00000  Uiso   1.00
C190   C     0.63546   0.62983   0.78530   0.00000  Uiso   1.00
C191   C     0.63532   0.65942   0.91490   0.00000  Uiso   1.00
C192   C     0.62894   0.69247   0.84279   0.00000  Uiso   1.00
C193   C     0.61990   0.75193   0.79814   0.00000  Uiso   1.00
C194   C     0.60187   0.55067   0.75416   0.00000  Uiso   1.00
C195   C     0.57347   0.51370   0.85759   0.00000  Uiso   1.00
C196   C     0.53881   0.48011   0.75926   0.00000  Uiso   1.00
C197   C     0.47761   0.41665   0.66627   0.00000  Uiso   1.00
C198   C     0.63081   0.59729   0.47462   0.00000  Uiso   1.00
C199   C     0.67468   0.60061   0.51954   0.00000  Uiso   1.00
C200   C     0.70634   0.60628   0.38749   0.00000  Uiso   1.00
C201   C     0.74426   0.60855   0.45716   0.00000  Uiso   1.00
C202   C     0.62946   0.63313   0.59058   0.00000  Uiso   1.00
C203   C     0.62308   0.66614   0.51825   0.00000  Uiso   1.00
C204   C     0.62292   0.69578   0.64771   0.00000  Uiso   1.00
C205   C     0.59587   0.55396   0.55943   0.00000  Uiso   1.00
C206   C     0.56124   0.52042   0.46093   0.00000  Uiso   1.00
C207   C     0.53279   0.48341   0.56418   0.00000  Uiso   1.00
H208   H     0.64655   0.58865   0.98474   0.00000  Uiso   1.00
H209   H     0.72321   0.59702   0.93486   0.00000  Uiso   1.00
H210   H     0.63996   0.65686   0.06559   0.00000  Uiso   1.00
H211   H     0.57813   0.51116   0.00828   0.00000  Uiso   1.00
H212   H     0.80557   0.60777   0.79368   0.00000  Uiso   1.00
H213   H     0.63002   0.73394   0.06935   0.00000  Uiso   1.00
H214   H     0.49963   0.42671   0.94850   0.00000  Uiso   1.00
H215   H     0.62613   0.59985   0.32301   0.00000  Uiso   1.00
H216   H     0.70168   0.60884   0.23681   0.00000  Uiso   1.00
H217   H     0.61843   0.66868   0.36755   0.00000  Uiso   1.00
H218   H     0.55660   0.52298   0.31024   0.00000  Uiso   1.00
H219   H     0.78810   0.61736   0.22712   0.00000  Uiso   1.00
H220   H     0.61254   0.74353   0.50279   0.00000  Uiso   1.00
H221   H     0.48215   0.43630   0.38194   0.00000  Uiso   1.00
O222   O     0.84691   0.61829   0.46564   0.00000  Uiso   1.00
O223   O     0.61657   0.78381   0.82731   0.00000  Uiso   1.00
O224   O     0.44552   0.38073   0.66876   0.00000  Uiso   1.00
N225   N     0.79109   0.60878   0.67216   0.00000  Uiso   1.00
N226   N     0.62696   0.72675   0.92990   0.00000  Uiso   1.00
N227   N     0.50505   0.43952   0.81692   0.00000  Uiso   1.00
N228   N     0.78169   0.61395   0.36730   0.00000  Uiso   1.00
N229   N     0.61756   0.73191   0.62503   0.00000  Uiso   1.00
N230   N     0.49565   0.44468   0.51206   0.00000  Uiso   1.00
C231   C     0.40879   0.05066   0.16647   0.00000  Uiso   1.00
C232   C     0.40269   0.08338   0.04760   0.00000  Uiso   1.00
C233   C     0.40043   0.11901   0.11748   0.00000  Uiso   1.00
C234   C     0.39475   0.14503   0.98557   0.00000  Uiso   1.00
C235   C     0.38577   0.19725   0.83063   0.00000  Uiso   1.00
C236   C     0.37017   0.00564   0.11863   0.00000  Uiso   1.00
C237   C     0.34058   0.97589   0.24824   0.00000  Uiso   1.00
C238   C     0.30753   0.93647   0.17612   0.00000  Uiso   1.00
C239   C     0.24807   0.86797   0.13147   0.00000  Uiso   1.00
C240   C     0.44933   0.05121   0.08749   0.00000  Uiso   1.00
C241   C     0.48630   0.05977   0.19092   0.00000  Uiso   1.00
C242   C     0.51989   0.05870   0.09260   0.00000  Uiso   1.00
C243   C     0.58335   0.06096   0.99960   0.00000  Uiso   1.00
C244   C     0.40271   0.03352   0.80796   0.00000  Uiso   1.00
C245   C     0.39939   0.07407   0.85287   0.00000  Uiso   1.00
C246   C     0.39372   0.10006   0.72082   0.00000  Uiso   1.00
C247   C     0.39145   0.13571   0.79049   0.00000  Uiso   1.00
C248   C     0.36687   0.99633   0.92391   0.00000  Uiso   1.00
C249   C     0.33386   0.95694   0.85158   0.00000  Uiso   1.00
C250   C     0.30422   0.92715   0.98104   0.00000  Uiso   1.00
C251   C     0.44604   0.04190   0.89276   0.00000  Uiso   1.00
C252   C     0.47958   0.04082   0.79426   0.00000  Uiso   1.00
C253   C     0.51659   0.04938   0.89752   0.00000  Uiso   1.00
H254   H     0.41135   0.05790   0.31807   0.00000  Uiso   1.00
H255   H     0.40298   0.12620   0.26819   0.00000  Uiso   1.00
H256   H     0.34314   0.98310   0.39892   0.00000  Uiso   1.00
H257   H     0.48884   0.06697   0.34161   0.00000  Uiso   1.00
H258   H     0.39223   0.19781   0.12701   0.00000  Uiso   1.00
H259   H     0.26606   0.89608   0.40268   0.00000  Uiso   1.00
H260   H     0.57329   0.07292   0.28183   0.00000  Uiso   1.00
H261   H     0.40015   0.02628   0.65635   0.00000  Uiso   1.00
H262   H     0.39116   0.09285   0.57014   0.00000  Uiso   1.00
H263   H     0.33132   0.94975   0.70088   0.00000  Uiso   1.00
H264   H     0.47702   0.03362   0.64357   0.00000  Uiso   1.00
H265   H     0.38264   0.17074   0.56045   0.00000  Uiso   1.00
H266   H     0.25647   0.86900   0.83613   0.00000  Uiso   1.00
H267   H     0.56370   0.04585   0.71527   0.00000  Uiso   1.00
O268   O     0.38171   0.22862   0.79897   0.00000  Uiso   1.00
O269   O     0.21619   0.83276   0.16064   0.00000  Uiso   1.00
O270   O     0.61927   0.06478   0.00209   0.00000  Uiso   1.00
N271   N     0.39122   0.18231   0.00550   0.00000  Uiso   1.00
N272   N     0.27325   0.90021   0.26323   0.00000  Uiso   1.00
N273   N     0.56048   0.06553   0.15026   0.00000  Uiso   1.00
N274   N     0.38605   0.16774   0.70063   0.00000  Uiso   1.00
N275   N     0.26809   0.88564   0.95837   0.00000  Uiso   1.00
N276   N     0.55532   0.05097   0.84540   0.00000  Uiso   1.00
