data_job_03303
_audit_creation_date              2018-12-19
_audit_creation_method            'Materials Studio'
_symmetry_space_group_name_H-M    'P1'
_symmetry_Int_Tables_number       1
_symmetry_cell_setting            triclinic
loop_
_symmetry_equiv_pos_as_xyz
  x,y,z
_cell_length_a                    26.0679
_cell_length_b                    10.6530
_cell_length_c                    11.7070
_cell_angle_alpha                 90.0000
_cell_angle_beta                  115.7161
_cell_angle_gamma                 90.0000
loop_
_atom_site_label
_atom_site_type_symbol
_atom_site_fract_x
_atom_site_fract_y
_atom_site_fract_z
_atom_site_U_iso_or_equiv
_atom_site_adp_type
_atom_site_occupancy
C1     C     0.34170   0.10156   0.78587   0.00000  Uiso   1.00
C2     C     0.38160   0.01065   0.76345   0.00000  Uiso   1.00
C3     C     0.42091   0.04245   0.71780   0.00000  Uiso   1.00
C4     C     0.45341   0.94562   0.70392   0.00000  Uiso   1.00
C5     C     0.51634   0.82333   0.66436   0.00000  Uiso   1.00
C6     C     0.28165   0.05153   0.70834   0.00000  Uiso   1.00
C7     C     0.23693   0.11771   0.61637   0.00000  Uiso   1.00
C8     C     0.18529   0.05530   0.55612   0.00000  Uiso   1.00
C9     C     0.09304   0.99651   0.43107   0.00000  Uiso   1.00
C10    C     0.35350   0.08590   0.92456   0.00000  Uiso   1.00
C11    C     0.36917   0.18099   0.01439   0.00000  Uiso   1.00
C12    C     0.37801   0.14752   0.13617   0.00000  Uiso   1.00
C13    C     0.39732   0.14210   0.34685   0.00000  Uiso   1.00
C14    C     0.32951   0.87305   0.84241   0.00000  Uiso   1.00
C15    C     0.37497   0.88653   0.79415   0.00000  Uiso   1.00
C16    C     0.40742   0.78963   0.78034   0.00000  Uiso   1.00
C17    C     0.44678   0.82128   0.73468   0.00000  Uiso   1.00
C18    C     0.27503   0.92742   0.73904   0.00000  Uiso   1.00
C19    C     0.22344   0.86489   0.67892   0.00000  Uiso   1.00
C20    C     0.17865   0.93096   0.58687   0.00000  Uiso   1.00
C21    C     0.34688   0.96178   0.95527   0.00000  Uiso   1.00
C22    C     0.35569   0.92816   0.07693   0.00000  Uiso   1.00
C23    C     0.37138   0.02318   0.16693   0.00000  Uiso   1.00
H24    H     0.34685   0.19819   0.76196   0.00000  Uiso   1.00
H25    H     0.42602   0.13851   0.69403   0.00000  Uiso   1.00
H26    H     0.24207   0.21377   0.59264   0.00000  Uiso   1.00
H27    H     0.37429   0.27703   0.99059   0.00000  Uiso   1.00
H28    H     0.51085   0.01760   0.63222   0.00000  Uiso   1.00
H29    H     0.12297   0.17630   0.41845   0.00000  Uiso   1.00
H30    H     0.40180   0.30970   0.25762   0.00000  Uiso   1.00
H31    H     0.32435   0.77641   0.86631   0.00000  Uiso   1.00
H32    H     0.40229   0.69359   0.80411   0.00000  Uiso   1.00
H33    H     0.21833   0.76884   0.70271   0.00000  Uiso   1.00
H34    H     0.35056   0.83210   0.10066   0.00000  Uiso   1.00
H35    H     0.49159   0.65648   0.72156   0.00000  Uiso   1.00
H36    H     0.10370   0.81518   0.50779   0.00000  Uiso   1.00
H37    H     0.38253   0.94858   0.34695   0.00000  Uiso   1.00
O38    O     0.55288   0.79016   0.63405   0.00000  Uiso   1.00
O39    O     0.04399   0.99837   0.35361   0.00000  Uiso   1.00
O40    O     0.40981   0.17339   0.45457   0.00000  Uiso   1.00
N41    N     0.49563   0.94398   0.66181   0.00000  Uiso   1.00
N42    N     0.13299   0.09235   0.46193   0.00000  Uiso   1.00
N43    N     0.39365   0.21707   0.24647   0.00000  Uiso   1.00
N44    N     0.48527   0.74967   0.70988   0.00000  Uiso   1.00
N45    N     0.12262   0.89803   0.51000   0.00000  Uiso   1.00
N46    N     0.38329   0.02276   0.29454   0.00000  Uiso   1.00
C47    C     0.84170   0.60156   0.78587   0.00000  Uiso   1.00
C48    C     0.88160   0.51065   0.76345   0.00000  Uiso   1.00
C49    C     0.92091   0.54245   0.71780   0.00000  Uiso   1.00
C50    C     0.95341   0.44562   0.70392   0.00000  Uiso   1.00
C51    C     0.01634   0.32333   0.66436   0.00000  Uiso   1.00
C52    C     0.78165   0.55153   0.70834   0.00000  Uiso   1.00
C53    C     0.73693   0.61771   0.61637   0.00000  Uiso   1.00
C54    C     0.68529   0.55530   0.55612   0.00000  Uiso   1.00
C55    C     0.59304   0.49651   0.43107   0.00000  Uiso   1.00
C56    C     0.85350   0.58590   0.92456   0.00000  Uiso   1.00
C57    C     0.86917   0.68099   0.01439   0.00000  Uiso   1.00
C58    C     0.87801   0.64752   0.13617   0.00000  Uiso   1.00
C59    C     0.89732   0.64210   0.34685   0.00000  Uiso   1.00
C60    C     0.82951   0.37305   0.84241   0.00000  Uiso   1.00
C61    C     0.87497   0.38653   0.79415   0.00000  Uiso   1.00
C62    C     0.90742   0.28963   0.78034   0.00000  Uiso   1.00
C63    C     0.94678   0.32128   0.73468   0.00000  Uiso   1.00
C64    C     0.77503   0.42742   0.73904   0.00000  Uiso   1.00
C65    C     0.72344   0.36489   0.67892   0.00000  Uiso   1.00
C66    C     0.67865   0.43096   0.58687   0.00000  Uiso   1.00
C67    C     0.84688   0.46178   0.95527   0.00000  Uiso   1.00
C68    C     0.85569   0.42816   0.07693   0.00000  Uiso   1.00
C69    C     0.87138   0.52318   0.16693   0.00000  Uiso   1.00
H70    H     0.84685   0.69819   0.76196   0.00000  Uiso   1.00
H71    H     0.92602   0.63851   0.69403   0.00000  Uiso   1.00
H72    H     0.74207   0.71377   0.59264   0.00000  Uiso   1.00
H73    H     0.87429   0.77703   0.99059   0.00000  Uiso   1.00
H74    H     0.01085   0.51760   0.63222   0.00000  Uiso   1.00
H75    H     0.62297   0.67630   0.41845   0.00000  Uiso   1.00
H76    H     0.90180   0.80970   0.25762   0.00000  Uiso   1.00
H77    H     0.82435   0.27641   0.86631   0.00000  Uiso   1.00
H78    H     0.90229   0.19359   0.80411   0.00000  Uiso   1.00
H79    H     0.71833   0.26884   0.70271   0.00000  Uiso   1.00
H80    H     0.85056   0.33210   0.10066   0.00000  Uiso   1.00
H81    H     0.99159   0.15648   0.72156   0.00000  Uiso   1.00
H82    H     0.60370   0.31518   0.50779   0.00000  Uiso   1.00
H83    H     0.88253   0.44858   0.34695   0.00000  Uiso   1.00
O84    O     0.05288   0.29016   0.63405   0.00000  Uiso   1.00
O85    O     0.54399   0.49837   0.35361   0.00000  Uiso   1.00
O86    O     0.90981   0.67339   0.45457   0.00000  Uiso   1.00
N87    N     0.99563   0.44398   0.66181   0.00000  Uiso   1.00
N88    N     0.63299   0.59235   0.46193   0.00000  Uiso   1.00
N89    N     0.89365   0.71707   0.24647   0.00000  Uiso   1.00
N90    N     0.98527   0.24967   0.70988   0.00000  Uiso   1.00
N91    N     0.62262   0.39803   0.51000   0.00000  Uiso   1.00
N92    N     0.88329   0.52276   0.29454   0.00000  Uiso   1.00
C93    C     0.65830   0.10156   0.21413   0.00000  Uiso   1.00
C94    C     0.61840   0.01065   0.23655   0.00000  Uiso   1.00
C95    C     0.57909   0.04245   0.28220   0.00000  Uiso   1.00
C96    C     0.54659   0.94562   0.29608   0.00000  Uiso   1.00
C97    C     0.48366   0.82333   0.33564   0.00000  Uiso   1.00
C98    C     0.71835   0.05153   0.29166   0.00000  Uiso   1.00
C99    C     0.76307   0.11771   0.38363   0.00000  Uiso   1.00
C100   C     0.81471   0.05530   0.44388   0.00000  Uiso   1.00
C101   C     0.90696   0.99651   0.56893   0.00000  Uiso   1.00
C102   C     0.64650   0.08590   0.07544   0.00000  Uiso   1.00
C103   C     0.63083   0.18099   0.98561   0.00000  Uiso   1.00
C104   C     0.62199   0.14752   0.86383   0.00000  Uiso   1.00
C105   C     0.60268   0.14210   0.65315   0.00000  Uiso   1.00
C106   C     0.67049   0.87305   0.15759   0.00000  Uiso   1.00
C107   C     0.62503   0.88653   0.20585   0.00000  Uiso   1.00
C108   C     0.59258   0.78963   0.21966   0.00000  Uiso   1.00
C109   C     0.55322   0.82128   0.26532   0.00000  Uiso   1.00
C110   C     0.72497   0.92742   0.26096   0.00000  Uiso   1.00
C111   C     0.77656   0.86489   0.32108   0.00000  Uiso   1.00
C112   C     0.82135   0.93096   0.41313   0.00000  Uiso   1.00
C113   C     0.65312   0.96178   0.04473   0.00000  Uiso   1.00
C114   C     0.64431   0.92816   0.92307   0.00000  Uiso   1.00
C115   C     0.62862   0.02318   0.83307   0.00000  Uiso   1.00
H116   H     0.65315   0.19819   0.23804   0.00000  Uiso   1.00
H117   H     0.57398   0.13851   0.30597   0.00000  Uiso   1.00
H118   H     0.75793   0.21377   0.40736   0.00000  Uiso   1.00
H119   H     0.62571   0.27703   0.00941   0.00000  Uiso   1.00
H120   H     0.48915   0.01760   0.36778   0.00000  Uiso   1.00
H121   H     0.87703   0.17630   0.58155   0.00000  Uiso   1.00
H122   H     0.59820   0.30970   0.74238   0.00000  Uiso   1.00
H123   H     0.67565   0.77641   0.13369   0.00000  Uiso   1.00
H124   H     0.59771   0.69359   0.19589   0.00000  Uiso   1.00
H125   H     0.78167   0.76884   0.29729   0.00000  Uiso   1.00
H126   H     0.64944   0.83210   0.89934   0.00000  Uiso   1.00
H127   H     0.50841   0.65648   0.27844   0.00000  Uiso   1.00
H128   H     0.89630   0.81518   0.49221   0.00000  Uiso   1.00
H129   H     0.61747   0.94858   0.65305   0.00000  Uiso   1.00
O130   O     0.44712   0.79016   0.36595   0.00000  Uiso   1.00
O131   O     0.95601   0.99837   0.64639   0.00000  Uiso   1.00
O132   O     0.59019   0.17339   0.54543   0.00000  Uiso   1.00
N133   N     0.50437   0.94398   0.33819   0.00000  Uiso   1.00
N134   N     0.86701   0.09235   0.53807   0.00000  Uiso   1.00
N135   N     0.60635   0.21707   0.75353   0.00000  Uiso   1.00
N136   N     0.51473   0.74967   0.29012   0.00000  Uiso   1.00
N137   N     0.87738   0.89803   0.49000   0.00000  Uiso   1.00
N138   N     0.61671   0.02276   0.70546   0.00000  Uiso   1.00
C139   C     0.15830   0.60156   0.21413   0.00000  Uiso   1.00
C140   C     0.11840   0.51065   0.23655   0.00000  Uiso   1.00
C141   C     0.07909   0.54245   0.28220   0.00000  Uiso   1.00
C142   C     0.04659   0.44562   0.29608   0.00000  Uiso   1.00
C143   C     0.98366   0.32333   0.33564   0.00000  Uiso   1.00
C144   C     0.21835   0.55153   0.29166   0.00000  Uiso   1.00
C145   C     0.26307   0.61771   0.38363   0.00000  Uiso   1.00
C146   C     0.31471   0.55530   0.44388   0.00000  Uiso   1.00
C147   C     0.40696   0.49651   0.56893   0.00000  Uiso   1.00
C148   C     0.14650   0.58590   0.07544   0.00000  Uiso   1.00
C149   C     0.13083   0.68099   0.98561   0.00000  Uiso   1.00
C150   C     0.12199   0.64752   0.86383   0.00000  Uiso   1.00
C151   C     0.10268   0.64210   0.65315   0.00000  Uiso   1.00
C152   C     0.17049   0.37305   0.15759   0.00000  Uiso   1.00
C153   C     0.12503   0.38653   0.20585   0.00000  Uiso   1.00
C154   C     0.09258   0.28963   0.21966   0.00000  Uiso   1.00
C155   C     0.05322   0.32128   0.26532   0.00000  Uiso   1.00
C156   C     0.22497   0.42742   0.26096   0.00000  Uiso   1.00
C157   C     0.27656   0.36489   0.32108   0.00000  Uiso   1.00
C158   C     0.32135   0.43096   0.41313   0.00000  Uiso   1.00
C159   C     0.15312   0.46178   0.04473   0.00000  Uiso   1.00
C160   C     0.14431   0.42816   0.92307   0.00000  Uiso   1.00
C161   C     0.12862   0.52318   0.83307   0.00000  Uiso   1.00
H162   H     0.15315   0.69819   0.23804   0.00000  Uiso   1.00
H163   H     0.07398   0.63851   0.30597   0.00000  Uiso   1.00
H164   H     0.25793   0.71377   0.40736   0.00000  Uiso   1.00
H165   H     0.12571   0.77703   0.00941   0.00000  Uiso   1.00
H166   H     0.98915   0.51760   0.36778   0.00000  Uiso   1.00
H167   H     0.37703   0.67630   0.58155   0.00000  Uiso   1.00
H168   H     0.09820   0.80970   0.74238   0.00000  Uiso   1.00
H169   H     0.17565   0.27641   0.13369   0.00000  Uiso   1.00
H170   H     0.09771   0.19359   0.19589   0.00000  Uiso   1.00
H171   H     0.28167   0.26884   0.29729   0.00000  Uiso   1.00
H172   H     0.14944   0.33210   0.89934   0.00000  Uiso   1.00
H173   H     0.00841   0.15648   0.27844   0.00000  Uiso   1.00
H174   H     0.39630   0.31518   0.49221   0.00000  Uiso   1.00
H175   H     0.11747   0.44858   0.65305   0.00000  Uiso   1.00
O176   O     0.94712   0.29016   0.36595   0.00000  Uiso   1.00
O177   O     0.45601   0.49837   0.64639   0.00000  Uiso   1.00
O178   O     0.09019   0.67339   0.54543   0.00000  Uiso   1.00
N179   N     0.00437   0.44398   0.33819   0.00000  Uiso   1.00
N180   N     0.36701   0.59235   0.53807   0.00000  Uiso   1.00
N181   N     0.10635   0.71707   0.75353   0.00000  Uiso   1.00
N182   N     0.01473   0.24967   0.29012   0.00000  Uiso   1.00
N183   N     0.37738   0.39803   0.49000   0.00000  Uiso   1.00
N184   N     0.11671   0.52276   0.70546   0.00000  Uiso   1.00
