data_job_00258
_audit_creation_date              2018-12-19
_audit_creation_method            'Materials Studio'
_symmetry_space_group_name_H-M    'P1'
_symmetry_Int_Tables_number       1
_symmetry_cell_setting            triclinic
loop_
_symmetry_equiv_pos_as_xyz
  x,y,z
_cell_length_a                    27.7381
_cell_length_b                    15.6311
_cell_length_c                    9.8869
_cell_angle_alpha                 90.0000
_cell_angle_beta                  90.0000
_cell_angle_gamma                 90.0000
loop_
_atom_site_label
_atom_site_type_symbol
_atom_site_fract_x
_atom_site_fract_y
_atom_site_fract_z
_atom_site_U_iso_or_equiv
_atom_site_adp_type
_atom_site_occupancy
C1     C     0.14991   0.91019   0.29285   0.00000  Uiso   1.00
C2     C     0.15011   0.00364   0.33713   0.00000  Uiso   1.00
C3     C     0.18393   0.04156   0.42144   0.00000  Uiso   1.00
C4     C     0.17779   0.12785   0.44992   0.00000  Uiso   1.00
C5     C     0.18396   0.26585   0.52695   0.00000  Uiso   1.00
C6     C     0.10098   0.87446   0.33472   0.00000  Uiso   1.00
C7     C     0.09349   0.80375   0.41698   0.00000  Uiso   1.00
C8     C     0.04598   0.78129   0.44341   0.00000  Uiso   1.00
C9     C     0.97588   0.71869   0.51661   0.00000  Uiso   1.00
C10    C     0.14994   0.91129   0.13863   0.00000  Uiso   1.00
C11    C     0.18362   0.87153   0.05600   0.00000  Uiso   1.00
C12    C     0.17733   0.88007   0.91733   0.00000  Uiso   1.00
C13    C     0.18326   0.87466   0.68606   0.00000  Uiso   1.00
C14    C     0.07886   0.99602   0.19351   0.00000  Uiso   1.00
C15    C     0.11152   0.05026   0.28318   0.00000  Uiso   1.00
C16    C     0.10533   0.13652   0.31154   0.00000  Uiso   1.00
C17    C     0.13913   0.17455   0.39587   0.00000  Uiso   1.00
C18    C     0.06239   0.92107   0.28077   0.00000  Uiso   1.00
C19    C     0.01489   0.89871   0.30707   0.00000  Uiso   1.00
C20    C     0.00732   0.82799   0.38936   0.00000  Uiso   1.00
C21    C     0.11136   0.95791   0.08467   0.00000  Uiso   1.00
C22    C     0.10502   0.96650   0.94610   0.00000  Uiso   1.00
C23    C     0.13868   0.92677   0.86327   0.00000  Uiso   1.00
H24    H     0.17995   0.87390   0.33485   0.00000  Uiso   1.00
H25    H     0.21378   0.00546   0.46318   0.00000  Uiso   1.00
H26    H     0.12336   0.76768   0.45870   0.00000  Uiso   1.00
H27    H     0.21347   0.83546   0.09779   0.00000  Uiso   1.00
H28    H     0.23427   0.17187   0.58170   0.00000  Uiso   1.00
H29    H     0.04360   0.67049   0.57223   0.00000  Uiso   1.00
H30    H     0.23363   0.81341   0.81115   0.00000  Uiso   1.00
H31    H     0.04882   0.03231   0.15150   0.00000  Uiso   1.00
H32    H     0.07546   0.17257   0.26977   0.00000  Uiso   1.00
H33    H     0.98503   0.93480   0.26530   0.00000  Uiso   1.00
H34    H     0.07515   0.00258   0.90438   0.00000  Uiso   1.00
H35    H     0.12200   0.30750   0.42473   0.00000  Uiso   1.00
H36    H     0.93133   0.80612   0.41525   0.00000  Uiso   1.00
H37    H     0.12136   0.94905   0.65418   0.00000  Uiso   1.00
O38    O     0.19802   0.32909   0.58436   0.00000  Uiso   1.00
O39    O     0.94787   0.67129   0.57190   0.00000  Uiso   1.00
O40    O     0.19719   0.85881   0.57340   0.00000  Uiso   1.00
N41    N     0.20420   0.18454   0.52851   0.00000  Uiso   1.00
N42    N     0.02593   0.71580   0.51966   0.00000  Uiso   1.00
N43    N     0.20359   0.84940   0.80813   0.00000  Uiso   1.00
N44    N     0.14379   0.25753   0.44404   0.00000  Uiso   1.00
N45    N     0.96552   0.78878   0.43520   0.00000  Uiso   1.00
N46    N     0.14318   0.92238   0.72366   0.00000  Uiso   1.00
C47    C     0.35009   0.58981   0.29285   0.00000  Uiso   1.00
C48    C     0.34989   0.49636   0.33713   0.00000  Uiso   1.00
C49    C     0.31607   0.45844   0.42144   0.00000  Uiso   1.00
C50    C     0.32221   0.37215   0.44992   0.00000  Uiso   1.00
C51    C     0.31604   0.23415   0.52695   0.00000  Uiso   1.00
C52    C     0.39902   0.62554   0.33472   0.00000  Uiso   1.00
C53    C     0.40651   0.69625   0.41698   0.00000  Uiso   1.00
C54    C     0.45402   0.71871   0.44341   0.00000  Uiso   1.00
C55    C     0.52412   0.78131   0.51661   0.00000  Uiso   1.00
C56    C     0.35006   0.58871   0.13863   0.00000  Uiso   1.00
C57    C     0.31638   0.62847   0.05600   0.00000  Uiso   1.00
C58    C     0.32267   0.61993   0.91733   0.00000  Uiso   1.00
C59    C     0.31674   0.62534   0.68606   0.00000  Uiso   1.00
C60    C     0.42114   0.50398   0.19351   0.00000  Uiso   1.00
C61    C     0.38848   0.44974   0.28318   0.00000  Uiso   1.00
C62    C     0.39467   0.36348   0.31154   0.00000  Uiso   1.00
C63    C     0.36087   0.32545   0.39587   0.00000  Uiso   1.00
C64    C     0.43761   0.57893   0.28077   0.00000  Uiso   1.00
C65    C     0.48511   0.60129   0.30707   0.00000  Uiso   1.00
C66    C     0.49268   0.67201   0.38936   0.00000  Uiso   1.00
C67    C     0.38864   0.54209   0.08467   0.00000  Uiso   1.00
C68    C     0.39498   0.53350   0.94610   0.00000  Uiso   1.00
C69    C     0.36132   0.57323   0.86327   0.00000  Uiso   1.00
H70    H     0.32005   0.62610   0.33485   0.00000  Uiso   1.00
H71    H     0.28622   0.49454   0.46318   0.00000  Uiso   1.00
H72    H     0.37664   0.73232   0.45870   0.00000  Uiso   1.00
H73    H     0.28653   0.66454   0.09779   0.00000  Uiso   1.00
H74    H     0.26573   0.32813   0.58170   0.00000  Uiso   1.00
H75    H     0.45640   0.82951   0.57223   0.00000  Uiso   1.00
H76    H     0.26637   0.68659   0.81115   0.00000  Uiso   1.00
H77    H     0.45118   0.46769   0.15150   0.00000  Uiso   1.00
H78    H     0.42454   0.32743   0.26977   0.00000  Uiso   1.00
H79    H     0.51497   0.56520   0.26530   0.00000  Uiso   1.00
H80    H     0.42485   0.49742   0.90438   0.00000  Uiso   1.00
H81    H     0.37800   0.19250   0.42473   0.00000  Uiso   1.00
H82    H     0.56867   0.69388   0.41525   0.00000  Uiso   1.00
H83    H     0.37864   0.55095   0.65418   0.00000  Uiso   1.00
O84    O     0.30198   0.17091   0.58436   0.00000  Uiso   1.00
O85    O     0.55213   0.82871   0.57190   0.00000  Uiso   1.00
O86    O     0.30281   0.64119   0.57340   0.00000  Uiso   1.00
N87    N     0.29580   0.31546   0.52851   0.00000  Uiso   1.00
N88    N     0.47407   0.78420   0.51966   0.00000  Uiso   1.00
N89    N     0.29641   0.65060   0.80813   0.00000  Uiso   1.00
N90    N     0.35621   0.24247   0.44404   0.00000  Uiso   1.00
N91    N     0.53448   0.71122   0.43520   0.00000  Uiso   1.00
N92    N     0.35682   0.57762   0.72366   0.00000  Uiso   1.00
C93    C     0.85009   0.41019   0.20715   0.00000  Uiso   1.00
C94    C     0.84989   0.50364   0.16287   0.00000  Uiso   1.00
C95    C     0.81607   0.54156   0.07856   0.00000  Uiso   1.00
C96    C     0.82221   0.62785   0.05008   0.00000  Uiso   1.00
C97    C     0.81604   0.76585   0.97305   0.00000  Uiso   1.00
C98    C     0.89902   0.37446   0.16528   0.00000  Uiso   1.00
C99    C     0.90651   0.30375   0.08302   0.00000  Uiso   1.00
C100   C     0.95402   0.28129   0.05659   0.00000  Uiso   1.00
C101   C     0.02412   0.21869   0.98339   0.00000  Uiso   1.00
C102   C     0.85006   0.41129   0.36137   0.00000  Uiso   1.00
C103   C     0.81638   0.37153   0.44400   0.00000  Uiso   1.00
C104   C     0.82267   0.38007   0.58267   0.00000  Uiso   1.00
C105   C     0.81674   0.37466   0.81394   0.00000  Uiso   1.00
C106   C     0.92114   0.49602   0.30649   0.00000  Uiso   1.00
C107   C     0.88848   0.55026   0.21682   0.00000  Uiso   1.00
C108   C     0.89467   0.63652   0.18846   0.00000  Uiso   1.00
C109   C     0.86087   0.67455   0.10413   0.00000  Uiso   1.00
C110   C     0.93761   0.42107   0.21923   0.00000  Uiso   1.00
C111   C     0.98511   0.39871   0.19293   0.00000  Uiso   1.00
C112   C     0.99268   0.32799   0.11064   0.00000  Uiso   1.00
C113   C     0.88864   0.45791   0.41533   0.00000  Uiso   1.00
C114   C     0.89498   0.46650   0.55390   0.00000  Uiso   1.00
C115   C     0.86132   0.42677   0.63673   0.00000  Uiso   1.00
H116   H     0.82005   0.37390   0.16515   0.00000  Uiso   1.00
H117   H     0.78622   0.50546   0.03682   0.00000  Uiso   1.00
H118   H     0.87664   0.26768   0.04130   0.00000  Uiso   1.00
H119   H     0.78653   0.33546   0.40221   0.00000  Uiso   1.00
H120   H     0.76573   0.67187   0.91830   0.00000  Uiso   1.00
H121   H     0.95640   0.17049   0.92777   0.00000  Uiso   1.00
H122   H     0.76637   0.31341   0.68885   0.00000  Uiso   1.00
H123   H     0.95118   0.53231   0.34850   0.00000  Uiso   1.00
H124   H     0.92454   0.67257   0.23023   0.00000  Uiso   1.00
H125   H     0.01497   0.43480   0.23470   0.00000  Uiso   1.00
H126   H     0.92485   0.50258   0.59562   0.00000  Uiso   1.00
H127   H     0.87800   0.80750   0.07527   0.00000  Uiso   1.00
H128   H     0.06867   0.30612   0.08475   0.00000  Uiso   1.00
H129   H     0.87864   0.44905   0.84582   0.00000  Uiso   1.00
O130   O     0.80198   0.82909   0.91564   0.00000  Uiso   1.00
O131   O     0.05213   0.17129   0.92810   0.00000  Uiso   1.00
O132   O     0.80281   0.35881   0.92660   0.00000  Uiso   1.00
N133   N     0.79580   0.68454   0.97149   0.00000  Uiso   1.00
N134   N     0.97407   0.21580   0.98034   0.00000  Uiso   1.00
N135   N     0.79641   0.34940   0.69187   0.00000  Uiso   1.00
N136   N     0.85621   0.75753   0.05596   0.00000  Uiso   1.00
N137   N     0.03448   0.28878   0.06480   0.00000  Uiso   1.00
N138   N     0.85682   0.42238   0.77634   0.00000  Uiso   1.00
C139   C     0.64991   0.08981   0.20715   0.00000  Uiso   1.00
C140   C     0.65011   0.99636   0.16287   0.00000  Uiso   1.00
C141   C     0.68393   0.95844   0.07856   0.00000  Uiso   1.00
C142   C     0.67779   0.87215   0.05008   0.00000  Uiso   1.00
C143   C     0.68396   0.73415   0.97305   0.00000  Uiso   1.00
C144   C     0.60098   0.12554   0.16528   0.00000  Uiso   1.00
C145   C     0.59349   0.19625   0.08302   0.00000  Uiso   1.00
C146   C     0.54598   0.21871   0.05659   0.00000  Uiso   1.00
C147   C     0.47588   0.28131   0.98339   0.00000  Uiso   1.00
C148   C     0.64994   0.08871   0.36137   0.00000  Uiso   1.00
C149   C     0.68362   0.12847   0.44400   0.00000  Uiso   1.00
C150   C     0.67733   0.11993   0.58267   0.00000  Uiso   1.00
C151   C     0.68326   0.12534   0.81394   0.00000  Uiso   1.00
C152   C     0.57886   0.00398   0.30649   0.00000  Uiso   1.00
C153   C     0.61152   0.94974   0.21682   0.00000  Uiso   1.00
C154   C     0.60533   0.86348   0.18846   0.00000  Uiso   1.00
C155   C     0.63913   0.82545   0.10413   0.00000  Uiso   1.00
C156   C     0.56239   0.07893   0.21923   0.00000  Uiso   1.00
C157   C     0.51489   0.10129   0.19293   0.00000  Uiso   1.00
C158   C     0.50732   0.17201   0.11064   0.00000  Uiso   1.00
C159   C     0.61136   0.04209   0.41533   0.00000  Uiso   1.00
C160   C     0.60502   0.03350   0.55390   0.00000  Uiso   1.00
C161   C     0.63868   0.07323   0.63673   0.00000  Uiso   1.00
H162   H     0.67995   0.12610   0.16515   0.00000  Uiso   1.00
H163   H     0.71378   0.99454   0.03682   0.00000  Uiso   1.00
H164   H     0.62336   0.23232   0.04130   0.00000  Uiso   1.00
H165   H     0.71347   0.16454   0.40221   0.00000  Uiso   1.00
H166   H     0.73427   0.82813   0.91830   0.00000  Uiso   1.00
H167   H     0.54360   0.32951   0.92777   0.00000  Uiso   1.00
H168   H     0.73363   0.18659   0.68885   0.00000  Uiso   1.00
H169   H     0.54882   0.96769   0.34850   0.00000  Uiso   1.00
H170   H     0.57546   0.82743   0.23023   0.00000  Uiso   1.00
H171   H     0.48503   0.06520   0.23470   0.00000  Uiso   1.00
H172   H     0.57515   0.99742   0.59562   0.00000  Uiso   1.00
H173   H     0.62200   0.69250   0.07527   0.00000  Uiso   1.00
H174   H     0.43133   0.19388   0.08475   0.00000  Uiso   1.00
H175   H     0.62136   0.05095   0.84582   0.00000  Uiso   1.00
O176   O     0.69802   0.67091   0.91564   0.00000  Uiso   1.00
O177   O     0.44787   0.32871   0.92810   0.00000  Uiso   1.00
O178   O     0.69719   0.14119   0.92660   0.00000  Uiso   1.00
N179   N     0.70420   0.81546   0.97149   0.00000  Uiso   1.00
N180   N     0.52593   0.28420   0.98034   0.00000  Uiso   1.00
N181   N     0.70359   0.15060   0.69187   0.00000  Uiso   1.00
N182   N     0.64379   0.74247   0.05596   0.00000  Uiso   1.00
N183   N     0.46552   0.21122   0.06480   0.00000  Uiso   1.00
N184   N     0.64318   0.07762   0.77634   0.00000  Uiso   1.00
C185   C     0.85009   0.08981   0.70715   0.00000  Uiso   1.00
C186   C     0.84989   0.99636   0.66287   0.00000  Uiso   1.00
C187   C     0.81607   0.95844   0.57856   0.00000  Uiso   1.00
C188   C     0.82221   0.87215   0.55008   0.00000  Uiso   1.00
C189   C     0.81604   0.73415   0.47305   0.00000  Uiso   1.00
C190   C     0.89902   0.12554   0.66528   0.00000  Uiso   1.00
C191   C     0.90651   0.19625   0.58302   0.00000  Uiso   1.00
C192   C     0.95402   0.21871   0.55659   0.00000  Uiso   1.00
C193   C     0.02412   0.28131   0.48339   0.00000  Uiso   1.00
C194   C     0.85006   0.08871   0.86137   0.00000  Uiso   1.00
C195   C     0.81638   0.12847   0.94400   0.00000  Uiso   1.00
C196   C     0.82267   0.11993   0.08267   0.00000  Uiso   1.00
C197   C     0.81674   0.12534   0.31394   0.00000  Uiso   1.00
C198   C     0.92114   0.00398   0.80649   0.00000  Uiso   1.00
C199   C     0.88848   0.94974   0.71682   0.00000  Uiso   1.00
C200   C     0.89467   0.86348   0.68846   0.00000  Uiso   1.00
C201   C     0.86087   0.82545   0.60413   0.00000  Uiso   1.00
C202   C     0.93761   0.07893   0.71923   0.00000  Uiso   1.00
C203   C     0.98511   0.10129   0.69293   0.00000  Uiso   1.00
C204   C     0.99268   0.17201   0.61064   0.00000  Uiso   1.00
C205   C     0.88864   0.04209   0.91533   0.00000  Uiso   1.00
C206   C     0.89498   0.03350   0.05390   0.00000  Uiso   1.00
C207   C     0.86132   0.07323   0.13673   0.00000  Uiso   1.00
H208   H     0.82005   0.12610   0.66515   0.00000  Uiso   1.00
H209   H     0.78622   0.99454   0.53682   0.00000  Uiso   1.00
H210   H     0.87664   0.23232   0.54130   0.00000  Uiso   1.00
H211   H     0.78653   0.16454   0.90221   0.00000  Uiso   1.00
H212   H     0.76573   0.82813   0.41830   0.00000  Uiso   1.00
H213   H     0.95640   0.32951   0.42777   0.00000  Uiso   1.00
H214   H     0.76637   0.18659   0.18885   0.00000  Uiso   1.00
H215   H     0.95118   0.96769   0.84850   0.00000  Uiso   1.00
H216   H     0.92454   0.82743   0.73023   0.00000  Uiso   1.00
H217   H     0.01497   0.06520   0.73470   0.00000  Uiso   1.00
H218   H     0.92485   0.99742   0.09562   0.00000  Uiso   1.00
H219   H     0.87800   0.69250   0.57527   0.00000  Uiso   1.00
H220   H     0.06867   0.19388   0.58475   0.00000  Uiso   1.00
H221   H     0.87864   0.05095   0.34582   0.00000  Uiso   1.00
O222   O     0.80198   0.67091   0.41564   0.00000  Uiso   1.00
O223   O     0.05213   0.32871   0.42810   0.00000  Uiso   1.00
O224   O     0.80281   0.14119   0.42660   0.00000  Uiso   1.00
N225   N     0.79580   0.81546   0.47149   0.00000  Uiso   1.00
N226   N     0.97407   0.28420   0.48034   0.00000  Uiso   1.00
N227   N     0.79641   0.15060   0.19187   0.00000  Uiso   1.00
N228   N     0.85621   0.74247   0.55596   0.00000  Uiso   1.00
N229   N     0.03448   0.21122   0.56480   0.00000  Uiso   1.00
N230   N     0.85682   0.07762   0.27634   0.00000  Uiso   1.00
C231   C     0.64991   0.41019   0.70715   0.00000  Uiso   1.00
C232   C     0.65011   0.50364   0.66287   0.00000  Uiso   1.00
C233   C     0.68393   0.54156   0.57856   0.00000  Uiso   1.00
C234   C     0.67779   0.62785   0.55008   0.00000  Uiso   1.00
C235   C     0.68396   0.76585   0.47305   0.00000  Uiso   1.00
C236   C     0.60098   0.37446   0.66528   0.00000  Uiso   1.00
C237   C     0.59349   0.30375   0.58302   0.00000  Uiso   1.00
C238   C     0.54598   0.28129   0.55659   0.00000  Uiso   1.00
C239   C     0.47588   0.21869   0.48339   0.00000  Uiso   1.00
C240   C     0.64994   0.41129   0.86137   0.00000  Uiso   1.00
C241   C     0.68362   0.37153   0.94400   0.00000  Uiso   1.00
C242   C     0.67733   0.38007   0.08267   0.00000  Uiso   1.00
C243   C     0.68326   0.37466   0.31394   0.00000  Uiso   1.00
C244   C     0.57886   0.49602   0.80649   0.00000  Uiso   1.00
C245   C     0.61152   0.55026   0.71682   0.00000  Uiso   1.00
C246   C     0.60533   0.63652   0.68846   0.00000  Uiso   1.00
C247   C     0.63913   0.67455   0.60413   0.00000  Uiso   1.00
C248   C     0.56239   0.42107   0.71923   0.00000  Uiso   1.00
C249   C     0.51489   0.39871   0.69293   0.00000  Uiso   1.00
C250   C     0.50732   0.32799   0.61064   0.00000  Uiso   1.00
C251   C     0.61136   0.45791   0.91533   0.00000  Uiso   1.00
C252   C     0.60502   0.46650   0.05390   0.00000  Uiso   1.00
C253   C     0.63868   0.42677   0.13673   0.00000  Uiso   1.00
H254   H     0.67995   0.37390   0.66515   0.00000  Uiso   1.00
H255   H     0.71378   0.50546   0.53682   0.00000  Uiso   1.00
H256   H     0.62336   0.26768   0.54130   0.00000  Uiso   1.00
H257   H     0.71347   0.33546   0.90221   0.00000  Uiso   1.00
H258   H     0.73427   0.67187   0.41830   0.00000  Uiso   1.00
H259   H     0.54360   0.17049   0.42777   0.00000  Uiso   1.00
H260   H     0.73363   0.31341   0.18885   0.00000  Uiso   1.00
H261   H     0.54882   0.53231   0.84850   0.00000  Uiso   1.00
H262   H     0.57546   0.67257   0.73023   0.00000  Uiso   1.00
H263   H     0.48503   0.43480   0.73470   0.00000  Uiso   1.00
H264   H     0.57515   0.50258   0.09562   0.00000  Uiso   1.00
H265   H     0.62200   0.80750   0.57527   0.00000  Uiso   1.00
H266   H     0.43133   0.30612   0.58475   0.00000  Uiso   1.00
H267   H     0.62136   0.44905   0.34582   0.00000  Uiso   1.00
O268   O     0.69802   0.82909   0.41564   0.00000  Uiso   1.00
O269   O     0.44787   0.17129   0.42810   0.00000  Uiso   1.00
O270   O     0.69719   0.35881   0.42660   0.00000  Uiso   1.00
N271   N     0.70420   0.68454   0.47149   0.00000  Uiso   1.00
N272   N     0.52593   0.21580   0.48034   0.00000  Uiso   1.00
N273   N     0.70359   0.34940   0.19187   0.00000  Uiso   1.00
N274   N     0.64379   0.75753   0.55596   0.00000  Uiso   1.00
N275   N     0.46552   0.28878   0.56480   0.00000  Uiso   1.00
N276   N     0.64318   0.42238   0.27634   0.00000  Uiso   1.00
C277   C     0.14991   0.58981   0.79285   0.00000  Uiso   1.00
C278   C     0.15011   0.49636   0.83713   0.00000  Uiso   1.00
C279   C     0.18393   0.45844   0.92144   0.00000  Uiso   1.00
C280   C     0.17779   0.37215   0.94992   0.00000  Uiso   1.00
C281   C     0.18396   0.23415   0.02695   0.00000  Uiso   1.00
C282   C     0.10098   0.62554   0.83472   0.00000  Uiso   1.00
C283   C     0.09349   0.69625   0.91698   0.00000  Uiso   1.00
C284   C     0.04598   0.71871   0.94341   0.00000  Uiso   1.00
C285   C     0.97588   0.78131   0.01661   0.00000  Uiso   1.00
C286   C     0.14994   0.58871   0.63863   0.00000  Uiso   1.00
C287   C     0.18362   0.62847   0.55600   0.00000  Uiso   1.00
C288   C     0.17733   0.61993   0.41733   0.00000  Uiso   1.00
C289   C     0.18326   0.62534   0.18606   0.00000  Uiso   1.00
C290   C     0.07886   0.50398   0.69351   0.00000  Uiso   1.00
C291   C     0.11152   0.44974   0.78318   0.00000  Uiso   1.00
C292   C     0.10533   0.36348   0.81154   0.00000  Uiso   1.00
C293   C     0.13913   0.32545   0.89587   0.00000  Uiso   1.00
C294   C     0.06239   0.57893   0.78077   0.00000  Uiso   1.00
C295   C     0.01489   0.60129   0.80707   0.00000  Uiso   1.00
C296   C     0.00732   0.67201   0.88936   0.00000  Uiso   1.00
C297   C     0.11136   0.54209   0.58467   0.00000  Uiso   1.00
C298   C     0.10502   0.53350   0.44610   0.00000  Uiso   1.00
C299   C     0.13868   0.57323   0.36327   0.00000  Uiso   1.00
H300   H     0.17995   0.62610   0.83485   0.00000  Uiso   1.00
H301   H     0.21378   0.49454   0.96318   0.00000  Uiso   1.00
H302   H     0.12336   0.73232   0.95870   0.00000  Uiso   1.00
H303   H     0.21347   0.66454   0.59779   0.00000  Uiso   1.00
H304   H     0.23427   0.32813   0.08170   0.00000  Uiso   1.00
H305   H     0.04360   0.82951   0.07223   0.00000  Uiso   1.00
H306   H     0.23363   0.68659   0.31115   0.00000  Uiso   1.00
H307   H     0.04882   0.46769   0.65150   0.00000  Uiso   1.00
H308   H     0.07546   0.32743   0.76977   0.00000  Uiso   1.00
H309   H     0.98503   0.56520   0.76530   0.00000  Uiso   1.00
H310   H     0.07515   0.49742   0.40438   0.00000  Uiso   1.00
H311   H     0.12200   0.19250   0.92473   0.00000  Uiso   1.00
H312   H     0.93133   0.69388   0.91525   0.00000  Uiso   1.00
H313   H     0.12136   0.55095   0.15418   0.00000  Uiso   1.00
O314   O     0.19802   0.17091   0.08436   0.00000  Uiso   1.00
O315   O     0.94787   0.82871   0.07190   0.00000  Uiso   1.00
O316   O     0.19719   0.64119   0.07340   0.00000  Uiso   1.00
N317   N     0.20420   0.31546   0.02851   0.00000  Uiso   1.00
N318   N     0.02593   0.78420   0.01966   0.00000  Uiso   1.00
N319   N     0.20359   0.65060   0.30813   0.00000  Uiso   1.00
N320   N     0.14379   0.24247   0.94404   0.00000  Uiso   1.00
N321   N     0.96552   0.71122   0.93520   0.00000  Uiso   1.00
N322   N     0.14318   0.57762   0.22366   0.00000  Uiso   1.00
C323   C     0.35009   0.91019   0.79285   0.00000  Uiso   1.00
C324   C     0.34989   0.00364   0.83713   0.00000  Uiso   1.00
C325   C     0.31607   0.04156   0.92144   0.00000  Uiso   1.00
C326   C     0.32221   0.12785   0.94992   0.00000  Uiso   1.00
C327   C     0.31604   0.26585   0.02695   0.00000  Uiso   1.00
C328   C     0.39902   0.87446   0.83472   0.00000  Uiso   1.00
C329   C     0.40651   0.80375   0.91698   0.00000  Uiso   1.00
C330   C     0.45402   0.78129   0.94341   0.00000  Uiso   1.00
C331   C     0.52412   0.71869   0.01661   0.00000  Uiso   1.00
C332   C     0.35006   0.91129   0.63863   0.00000  Uiso   1.00
C333   C     0.31638   0.87153   0.55600   0.00000  Uiso   1.00
C334   C     0.32267   0.88007   0.41733   0.00000  Uiso   1.00
C335   C     0.31674   0.87466   0.18606   0.00000  Uiso   1.00
C336   C     0.42114   0.99602   0.69351   0.00000  Uiso   1.00
C337   C     0.38848   0.05026   0.78318   0.00000  Uiso   1.00
C338   C     0.39467   0.13652   0.81154   0.00000  Uiso   1.00
C339   C     0.36087   0.17455   0.89587   0.00000  Uiso   1.00
C340   C     0.43761   0.92107   0.78077   0.00000  Uiso   1.00
C341   C     0.48511   0.89871   0.80707   0.00000  Uiso   1.00
C342   C     0.49268   0.82799   0.88936   0.00000  Uiso   1.00
C343   C     0.38864   0.95791   0.58467   0.00000  Uiso   1.00
C344   C     0.39498   0.96650   0.44610   0.00000  Uiso   1.00
C345   C     0.36132   0.92677   0.36327   0.00000  Uiso   1.00
H346   H     0.32005   0.87390   0.83485   0.00000  Uiso   1.00
H347   H     0.28622   0.00546   0.96318   0.00000  Uiso   1.00
H348   H     0.37664   0.76768   0.95870   0.00000  Uiso   1.00
H349   H     0.28653   0.83546   0.59779   0.00000  Uiso   1.00
H350   H     0.26573   0.17187   0.08170   0.00000  Uiso   1.00
H351   H     0.45640   0.67049   0.07223   0.00000  Uiso   1.00
H352   H     0.26637   0.81341   0.31115   0.00000  Uiso   1.00
H353   H     0.45118   0.03231   0.65150   0.00000  Uiso   1.00
H354   H     0.42454   0.17257   0.76977   0.00000  Uiso   1.00
H355   H     0.51497   0.93480   0.76530   0.00000  Uiso   1.00
H356   H     0.42485   0.00258   0.40438   0.00000  Uiso   1.00
H357   H     0.37800   0.30750   0.92473   0.00000  Uiso   1.00
H358   H     0.56867   0.80612   0.91525   0.00000  Uiso   1.00
H359   H     0.37864   0.94905   0.15418   0.00000  Uiso   1.00
O360   O     0.30198   0.32909   0.08436   0.00000  Uiso   1.00
O361   O     0.55213   0.67129   0.07190   0.00000  Uiso   1.00
O362   O     0.30281   0.85881   0.07340   0.00000  Uiso   1.00
N363   N     0.29580   0.18454   0.02851   0.00000  Uiso   1.00
N364   N     0.47407   0.71580   0.01966   0.00000  Uiso   1.00
N365   N     0.29641   0.84940   0.30813   0.00000  Uiso   1.00
N366   N     0.35621   0.25753   0.94404   0.00000  Uiso   1.00
N367   N     0.53448   0.78878   0.93520   0.00000  Uiso   1.00
N368   N     0.35682   0.92238   0.22366   0.00000  Uiso   1.00
