data_job_06307
_audit_creation_date              2018-12-19
_audit_creation_method            'Materials Studio'
_symmetry_space_group_name_H-M    'P1'
_symmetry_Int_Tables_number       1
_symmetry_cell_setting            triclinic
loop_
_symmetry_equiv_pos_as_xyz
  x,y,z
_cell_length_a                    17.0481
_cell_length_b                    16.7407
_cell_length_c                    16.0080
_cell_angle_alpha                 89.5687
_cell_angle_beta                  89.8454
_cell_angle_gamma                 89.0881
loop_
_atom_site_label
_atom_site_type_symbol
_atom_site_fract_x
_atom_site_fract_y
_atom_site_fract_z
_atom_site_U_iso_or_equiv
_atom_site_adp_type
_atom_site_occupancy
C1     C     0.03672   0.20854   0.51416   0.00000  Uiso   1.00
C2     C     0.07549   0.28153   0.47550   0.00000  Uiso   1.00
C3     C     0.15364   0.30181   0.48425   0.00000  Uiso   1.00
C4     C     0.17774   0.37098   0.44399   0.00000  Uiso   1.00
C5     C     0.24588   0.47718   0.39119   0.00000  Uiso   1.00
C6     C     0.96778   0.24044   0.56557   0.00000  Uiso   1.00
C7     C     0.95536   0.22615   0.65005   0.00000  Uiso   1.00
C8     C     0.88877   0.26072   0.68560   0.00000  Uiso   1.00
C9     C     0.78966   0.30307   0.77263   0.00000  Uiso   1.00
C10    C     0.00098   0.16311   0.44174   0.00000  Uiso   1.00
C11    C     0.01646   0.08380   0.42211   0.00000  Uiso   1.00
C12    C     0.97783   0.05325   0.35341   0.00000  Uiso   1.00
C13    C     0.93027   0.97554   0.24817   0.00000  Uiso   1.00
C14    C     0.94055   0.29532   0.42708   0.00000  Uiso   1.00
C15    C     0.02326   0.32867   0.42821   0.00000  Uiso   1.00
C16    C     0.04724   0.39783   0.38791   0.00000  Uiso   1.00
C17    C     0.12542   0.41820   0.39660   0.00000  Uiso   1.00
C18    C     0.91554   0.28758   0.51828   0.00000  Uiso   1.00
C19    C     0.84896   0.32217   0.55371   0.00000  Uiso   1.00
C20    C     0.83645   0.30794   0.63822   0.00000  Uiso   1.00
C21    C     0.94875   0.21025   0.39444   0.00000  Uiso   1.00
C22    C     0.91007   0.17982   0.32576   0.00000  Uiso   1.00
C23    C     0.92550   0.10047   0.30603   0.00000  Uiso   1.00
H24    H     0.07738   0.17184   0.55099   0.00000  Uiso   1.00
H25    H     0.19404   0.26532   0.52087   0.00000  Uiso   1.00
H26    H     0.99578   0.18967   0.68664   0.00000  Uiso   1.00
H27    H     0.05689   0.04734   0.45873   0.00000  Uiso   1.00
H28    H     0.30034   0.38976   0.46664   0.00000  Uiso   1.00
H29    H     0.88229   0.23022   0.81617   0.00000  Uiso   1.00
H30    H     0.01114   0.93009   0.33558   0.00000  Uiso   1.00
H31    H     0.89988   0.33202   0.39026   0.00000  Uiso   1.00
H32    H     0.00681   0.43429   0.35131   0.00000  Uiso   1.00
H33    H     0.80855   0.35864   0.51709   0.00000  Uiso   1.00
H34    H     0.86966   0.21631   0.28918   0.00000  Uiso   1.00
H35    H     0.14838   0.52691   0.32903   0.00000  Uiso   1.00
H36    H     0.73032   0.36737   0.67856   0.00000  Uiso   1.00
H37    H     0.85917   0.06724   0.19796   0.00000  Uiso   1.00
O38    O     0.29789   0.52274   0.37514   0.00000  Uiso   1.00
O39    O     0.74942   0.31341   0.83370   0.00000  Uiso   1.00
O40    O     0.91847   0.91965   0.20318   0.00000  Uiso   1.00
N41    N     0.24991   0.40800   0.43958   0.00000  Uiso   1.00
N42    N     0.85906   0.25885   0.76638   0.00000  Uiso   1.00
N43    N     0.97951   0.97824   0.31708   0.00000  Uiso   1.00
N44    N     0.16814   0.48179   0.36553   0.00000  Uiso   1.00
N45    N     0.77729   0.33264   0.69233   0.00000  Uiso   1.00
N46    N     0.89774   0.05204   0.24303   0.00000  Uiso   1.00
C47    C     0.51413   0.03773   0.20808   0.00000  Uiso   1.00
C48    C     0.47686   0.07735   0.28427   0.00000  Uiso   1.00
C49    C     0.48394   0.15696   0.30614   0.00000  Uiso   1.00
C50    C     0.44537   0.18164   0.37819   0.00000  Uiso   1.00
C51    C     0.39424   0.25123   0.48915   0.00000  Uiso   1.00
C52    C     0.56309   0.96755   0.24153   0.00000  Uiso   1.00
C53    C     0.64266   0.95484   0.22746   0.00000  Uiso   1.00
C54    C     0.67668   0.88707   0.26352   0.00000  Uiso   1.00
C55    C     0.75940   0.78616   0.30808   0.00000  Uiso   1.00
C56    C     0.44689   0.00130   0.15950   0.00000  Uiso   1.00
C57    C     0.42877   0.01694   0.07645   0.00000  Uiso   1.00
C58    C     0.36496   0.97757   0.04344   0.00000  Uiso   1.00
C59    C     0.26727   0.92906   0.96063   0.00000  Uiso   1.00
C60    C     0.43306   0.93997   0.29715   0.00000  Uiso   1.00
C61    C     0.43283   0.02425   0.33264   0.00000  Uiso   1.00
C62    C     0.39424   0.04881   0.40468   0.00000  Uiso   1.00
C63    C     0.40126   0.12845   0.42665   0.00000  Uiso   1.00
C64    C     0.51906   0.91445   0.28990   0.00000  Uiso   1.00
C65    C     0.55297   0.84668   0.32600   0.00000  Uiso   1.00
C66    C     0.63257   0.83388   0.31199   0.00000  Uiso   1.00
C67    C     0.40285   0.94820   0.20787   0.00000  Uiso   1.00
C68    C     0.33907   0.90879   0.17499   0.00000  Uiso   1.00
C69    C     0.32085   0.92438   0.09191   0.00000  Uiso   1.00
H70    H     0.54842   0.07907   0.17042   0.00000  Uiso   1.00
H71    H     0.51803   0.19804   0.26869   0.00000  Uiso   1.00
H72    H     0.67672   0.99594   0.19001   0.00000  Uiso   1.00
H73    H     0.46286   0.05804   0.03903   0.00000  Uiso   1.00
H74    H     0.46494   0.30652   0.39899   0.00000  Uiso   1.00
H75    H     0.79955   0.88036   0.23307   0.00000  Uiso   1.00
H76    H     0.34858   0.01131   0.91469   0.00000  Uiso   1.00
H77    H     0.39878   0.89863   0.33481   0.00000  Uiso   1.00
H78    H     0.36017   0.00770   0.44210   0.00000  Uiso   1.00
H79    H     0.51887   0.80560   0.36343   0.00000  Uiso   1.00
H80    H     0.30501   0.86770   0.21244   0.00000  Uiso   1.00
H81    H     0.33682   0.15203   0.53974   0.00000  Uiso   1.00
H82    H     0.67143   0.72588   0.37381   0.00000  Uiso   1.00
H83    H     0.22046   0.85683   0.05544   0.00000  Uiso   1.00
O84    O     0.37820   0.30428   0.53699   0.00000  Uiso   1.00
O85    O     0.81720   0.74517   0.31929   0.00000  Uiso   1.00
O86    O     0.22554   0.91698   0.90160   0.00000  Uiso   1.00
N87    N     0.44007   0.25519   0.41738   0.00000  Uiso   1.00
N88    N     0.75292   0.85677   0.26226   0.00000  Uiso   1.00
N89    N     0.33131   0.97918   0.96460   0.00000  Uiso   1.00
N90    N     0.37113   0.17207   0.49312   0.00000  Uiso   1.00
N91    N     0.68398   0.77365   0.33800   0.00000  Uiso   1.00
N92    N     0.26237   0.89606   0.04034   0.00000  Uiso   1.00
C93    C     0.20883   0.51403   0.04016   0.00000  Uiso   1.00
C94    C     0.28058   0.47611   0.08219   0.00000  Uiso   1.00
C95    C     0.30051   0.48343   0.16574   0.00000  Uiso   1.00
C96    C     0.36850   0.44417   0.19208   0.00000  Uiso   1.00
C97    C     0.47290   0.39215   0.26574   0.00000  Uiso   1.00
C98    C     0.24004   0.56377   0.96751   0.00000  Uiso   1.00
C99    C     0.22588   0.64479   0.95464   0.00000  Uiso   1.00
C100   C     0.25974   0.67931   0.88442   0.00000  Uiso   1.00
C101   C     0.30115   0.76337   0.78000   0.00000  Uiso   1.00
C102   C     0.16431   0.44552   0.00102   0.00000  Uiso   1.00
C103   C     0.08647   0.42712   0.01631   0.00000  Uiso   1.00
C104   C     0.05656   0.36209   0.97430   0.00000  Uiso   1.00
C105   C     0.98038   0.26256   0.92191   0.00000  Uiso   1.00
C106   C     0.29413   0.43127   0.93835   0.00000  Uiso   1.00
C107   C     0.32691   0.43116   0.02688   0.00000  Uiso   1.00
C108   C     0.39489   0.39187   0.05310   0.00000  Uiso   1.00
C109   C     0.41492   0.39913   0.13669   0.00000  Uiso   1.00
C110   C     0.28638   0.51882   0.91221   0.00000  Uiso   1.00
C111   C     0.32026   0.55323   0.84199   0.00000  Uiso   1.00
C112   C     0.30616   0.63428   0.82902   0.00000  Uiso   1.00
C113   C     0.21064   0.40056   0.94572   0.00000  Uiso   1.00
C114   C     0.18085   0.33556   0.90367   0.00000  Uiso   1.00
C115   C     0.10298   0.31706   0.91890   0.00000  Uiso   1.00
H116   H     0.17275   0.54903   0.08321   0.00000  Uiso   1.00
H117   H     0.26465   0.51823   0.20852   0.00000  Uiso   1.00
H118   H     0.19002   0.67956   0.99744   0.00000  Uiso   1.00
H119   H     0.05063   0.46192   0.05911   0.00000  Uiso   1.00
H120   H     0.38697   0.46428   0.32305   0.00000  Uiso   1.00
H121   H     0.22960   0.80444   0.87796   0.00000  Uiso   1.00
H122   H     0.93567   0.34552   0.00800   0.00000  Uiso   1.00
H123   H     0.33020   0.39628   0.89529   0.00000  Uiso   1.00
H124   H     0.43073   0.35709   0.01029   0.00000  Uiso   1.00
H125   H     0.35611   0.51842   0.79921   0.00000  Uiso   1.00
H126   H     0.21672   0.30078   0.86088   0.00000  Uiso   1.00
H127   H     0.52178   0.33349   0.16216   0.00000  Uiso   1.00
H128   H     0.36440   0.67366   0.71707   0.00000  Uiso   1.00
H129   H     0.07047   0.21473   0.84711   0.00000  Uiso   1.00
O130   O     0.51768   0.37589   0.32165   0.00000  Uiso   1.00
O131   O     0.31119   0.82216   0.73769   0.00000  Uiso   1.00
O132   O     0.92557   0.22006   0.90830   0.00000  Uiso   1.00
N133   N     0.40490   0.43886   0.26941   0.00000  Uiso   1.00
N134   N     0.25777   0.75690   0.85328   0.00000  Uiso   1.00
N135   N     0.98296   0.32786   0.97484   0.00000  Uiso   1.00
N136   N     0.47743   0.36849   0.18284   0.00000  Uiso   1.00
N137   N     0.33030   0.68653   0.76671   0.00000  Uiso   1.00
N138   N     0.05550   0.25748   0.88827   0.00000  Uiso   1.00
C139   C     0.96328   0.79146   0.48584   0.00000  Uiso   1.00
C140   C     0.92451   0.71847   0.52450   0.00000  Uiso   1.00
C141   C     0.84636   0.69819   0.51575   0.00000  Uiso   1.00
C142   C     0.82226   0.62902   0.55601   0.00000  Uiso   1.00
C143   C     0.75412   0.52282   0.60881   0.00000  Uiso   1.00
C144   C     0.03222   0.75956   0.43443   0.00000  Uiso   1.00
C145   C     0.04464   0.77385   0.34995   0.00000  Uiso   1.00
C146   C     0.11123   0.73928   0.31440   0.00000  Uiso   1.00
C147   C     0.21034   0.69693   0.22737   0.00000  Uiso   1.00
C148   C     0.99902   0.83689   0.55826   0.00000  Uiso   1.00
C149   C     0.98354   0.91620   0.57789   0.00000  Uiso   1.00
C150   C     0.02217   0.94675   0.64659   0.00000  Uiso   1.00
C151   C     0.06973   0.02446   0.75183   0.00000  Uiso   1.00
C152   C     0.05945   0.70468   0.57292   0.00000  Uiso   1.00
C153   C     0.97674   0.67133   0.57179   0.00000  Uiso   1.00
C154   C     0.95276   0.60218   0.61209   0.00000  Uiso   1.00
C155   C     0.87458   0.58180   0.60340   0.00000  Uiso   1.00
C156   C     0.08446   0.71242   0.48172   0.00000  Uiso   1.00
C157   C     0.15104   0.67783   0.44629   0.00000  Uiso   1.00
C158   C     0.16355   0.69206   0.36178   0.00000  Uiso   1.00
C159   C     0.05125   0.78975   0.60556   0.00000  Uiso   1.00
C160   C     0.08993   0.82018   0.67423   0.00000  Uiso   1.00
C161   C     0.07450   0.89953   0.69397   0.00000  Uiso   1.00
H162   H     0.92262   0.82816   0.44901   0.00000  Uiso   1.00
H163   H     0.80596   0.73468   0.47913   0.00000  Uiso   1.00
H164   H     0.00422   0.81033   0.31336   0.00000  Uiso   1.00
H165   H     0.94311   0.95266   0.54127   0.00000  Uiso   1.00
H166   H     0.69966   0.61024   0.53336   0.00000  Uiso   1.00
H167   H     0.11771   0.76978   0.18383   0.00000  Uiso   1.00
H168   H     0.98886   0.06991   0.66442   0.00000  Uiso   1.00
H169   H     0.10012   0.66798   0.60974   0.00000  Uiso   1.00
H170   H     0.99319   0.56571   0.64869   0.00000  Uiso   1.00
H171   H     0.19145   0.64136   0.48291   0.00000  Uiso   1.00
H172   H     0.13034   0.78369   0.71082   0.00000  Uiso   1.00
H173   H     0.85162   0.47309   0.67097   0.00000  Uiso   1.00
H174   H     0.26968   0.63263   0.32144   0.00000  Uiso   1.00
H175   H     0.14083   0.93276   0.80203   0.00000  Uiso   1.00
O176   O     0.70211   0.47726   0.62486   0.00000  Uiso   1.00
O177   O     0.25058   0.68659   0.16630   0.00000  Uiso   1.00
O178   O     0.08153   0.08035   0.79682   0.00000  Uiso   1.00
N179   N     0.75009   0.59200   0.56042   0.00000  Uiso   1.00
N180   N     0.14094   0.74115   0.23362   0.00000  Uiso   1.00
N181   N     0.02049   0.02176   0.68292   0.00000  Uiso   1.00
N182   N     0.83186   0.51821   0.63447   0.00000  Uiso   1.00
N183   N     0.22271   0.66736   0.30767   0.00000  Uiso   1.00
N184   N     0.10226   0.94796   0.75697   0.00000  Uiso   1.00
C185   C     0.48587   0.96227   0.79192   0.00000  Uiso   1.00
C186   C     0.52314   0.92265   0.71573   0.00000  Uiso   1.00
C187   C     0.51606   0.84304   0.69386   0.00000  Uiso   1.00
C188   C     0.55463   0.81836   0.62181   0.00000  Uiso   1.00
C189   C     0.60576   0.74877   0.51085   0.00000  Uiso   1.00
C190   C     0.43691   0.03245   0.75847   0.00000  Uiso   1.00
C191   C     0.35734   0.04516   0.77254   0.00000  Uiso   1.00
C192   C     0.32332   0.11293   0.73648   0.00000  Uiso   1.00
C193   C     0.24060   0.21384   0.69192   0.00000  Uiso   1.00
C194   C     0.55311   0.99870   0.84050   0.00000  Uiso   1.00
C195   C     0.57123   0.98306   0.92355   0.00000  Uiso   1.00
C196   C     0.63504   0.02243   0.95656   0.00000  Uiso   1.00
C197   C     0.73273   0.07094   0.03937   0.00000  Uiso   1.00
C198   C     0.56694   0.06003   0.70285   0.00000  Uiso   1.00
C199   C     0.56717   0.97575   0.66736   0.00000  Uiso   1.00
C200   C     0.60576   0.95119   0.59532   0.00000  Uiso   1.00
C201   C     0.59874   0.87155   0.57335   0.00000  Uiso   1.00
C202   C     0.48094   0.08555   0.71010   0.00000  Uiso   1.00
C203   C     0.44703   0.15332   0.67400   0.00000  Uiso   1.00
C204   C     0.36743   0.16612   0.68801   0.00000  Uiso   1.00
C205   C     0.59715   0.05180   0.79212   0.00000  Uiso   1.00
C206   C     0.66093   0.09121   0.82501   0.00000  Uiso   1.00
C207   C     0.67915   0.07562   0.90809   0.00000  Uiso   1.00
H208   H     0.45158   0.92093   0.82958   0.00000  Uiso   1.00
H209   H     0.48197   0.80196   0.73131   0.00000  Uiso   1.00
H210   H     0.32328   0.00406   0.80999   0.00000  Uiso   1.00
H211   H     0.53714   0.94196   0.96097   0.00000  Uiso   1.00
H212   H     0.53506   0.69348   0.60101   0.00000  Uiso   1.00
H213   H     0.20045   0.11964   0.76693   0.00000  Uiso   1.00
H214   H     0.65142   0.98869   0.08531   0.00000  Uiso   1.00
H215   H     0.60122   0.10137   0.66519   0.00000  Uiso   1.00
H216   H     0.63983   0.99230   0.55790   0.00000  Uiso   1.00
H217   H     0.48113   0.19440   0.63657   0.00000  Uiso   1.00
H218   H     0.69499   0.13230   0.78755   0.00000  Uiso   1.00
H219   H     0.66318   0.84797   0.46026   0.00000  Uiso   1.00
H220   H     0.32857   0.27412   0.62619   0.00000  Uiso   1.00
H221   H     0.77954   0.14317   0.94456   0.00000  Uiso   1.00
O222   O     0.62180   0.69572   0.46301   0.00000  Uiso   1.00
O223   O     0.18280   0.25483   0.68071   0.00000  Uiso   1.00
O224   O     0.77446   0.08302   0.09840   0.00000  Uiso   1.00
N225   N     0.55993   0.74481   0.58262   0.00000  Uiso   1.00
N226   N     0.24708   0.14323   0.73774   0.00000  Uiso   1.00
N227   N     0.66869   0.02082   0.03540   0.00000  Uiso   1.00
N228   N     0.62887   0.82793   0.50688   0.00000  Uiso   1.00
N229   N     0.31602   0.22635   0.66200   0.00000  Uiso   1.00
N230   N     0.73763   0.10394   0.95966   0.00000  Uiso   1.00
C231   C     0.79117   0.48597   0.95984   0.00000  Uiso   1.00
C232   C     0.71942   0.52389   0.91781   0.00000  Uiso   1.00
C233   C     0.69949   0.51657   0.83426   0.00000  Uiso   1.00
C234   C     0.63150   0.55583   0.80792   0.00000  Uiso   1.00
C235   C     0.52710   0.60785   0.73426   0.00000  Uiso   1.00
C236   C     0.75996   0.43623   0.03249   0.00000  Uiso   1.00
C237   C     0.77412   0.35521   0.04536   0.00000  Uiso   1.00
C238   C     0.74026   0.32069   0.11558   0.00000  Uiso   1.00
C239   C     0.69885   0.23663   0.22000   0.00000  Uiso   1.00
C240   C     0.83569   0.55448   0.99898   0.00000  Uiso   1.00
C241   C     0.91353   0.57288   0.98369   0.00000  Uiso   1.00
C242   C     0.94344   0.63791   0.02570   0.00000  Uiso   1.00
C243   C     0.01962   0.73744   0.07809   0.00000  Uiso   1.00
C244   C     0.70587   0.56873   0.06165   0.00000  Uiso   1.00
C245   C     0.67309   0.56884   0.97312   0.00000  Uiso   1.00
C246   C     0.60511   0.60813   0.94690   0.00000  Uiso   1.00
C247   C     0.58508   0.60087   0.86331   0.00000  Uiso   1.00
C248   C     0.71362   0.48118   0.08779   0.00000  Uiso   1.00
C249   C     0.67974   0.44677   0.15801   0.00000  Uiso   1.00
C250   C     0.69384   0.36572   0.17098   0.00000  Uiso   1.00
C251   C     0.78936   0.59944   0.05428   0.00000  Uiso   1.00
C252   C     0.81915   0.66444   0.09633   0.00000  Uiso   1.00
C253   C     0.89702   0.68294   0.08110   0.00000  Uiso   1.00
H254   H     0.82725   0.45097   0.91679   0.00000  Uiso   1.00
H255   H     0.73535   0.48177   0.79148   0.00000  Uiso   1.00
H256   H     0.80998   0.32044   0.00256   0.00000  Uiso   1.00
H257   H     0.94937   0.53808   0.94089   0.00000  Uiso   1.00
H258   H     0.61303   0.53572   0.67695   0.00000  Uiso   1.00
H259   H     0.77040   0.19556   0.12204   0.00000  Uiso   1.00
H260   H     0.06433   0.65448   0.99200   0.00000  Uiso   1.00
H261   H     0.66980   0.60372   0.10471   0.00000  Uiso   1.00
H262   H     0.56927   0.64291   0.98971   0.00000  Uiso   1.00
H263   H     0.64389   0.48158   0.20079   0.00000  Uiso   1.00
H264   H     0.78328   0.69922   0.13912   0.00000  Uiso   1.00
H265   H     0.47822   0.66651   0.83784   0.00000  Uiso   1.00
H266   H     0.63560   0.32634   0.28293   0.00000  Uiso   1.00
H267   H     0.92953   0.78527   0.15289   0.00000  Uiso   1.00
O268   O     0.48232   0.62411   0.67835   0.00000  Uiso   1.00
O269   O     0.68881   0.17784   0.26231   0.00000  Uiso   1.00
O270   O     0.07443   0.77994   0.09170   0.00000  Uiso   1.00
N271   N     0.59510   0.56114   0.73059   0.00000  Uiso   1.00
N272   N     0.74223   0.24310   0.14672   0.00000  Uiso   1.00
N273   N     0.01704   0.67214   0.02516   0.00000  Uiso   1.00
N274   N     0.52257   0.63151   0.81716   0.00000  Uiso   1.00
N275   N     0.66970   0.31347   0.23329   0.00000  Uiso   1.00
N276   N     0.94450   0.74252   0.11173   0.00000  Uiso   1.00
