data_job_05269
_audit_creation_date              2018-12-19
_audit_creation_method            'Materials Studio'
_symmetry_space_group_name_H-M    'P1'
_symmetry_Int_Tables_number       1
_symmetry_cell_setting            triclinic
loop_
_symmetry_equiv_pos_as_xyz
  x,y,z
_cell_length_a                    12.4754
_cell_length_b                    12.4754
_cell_length_c                    16.7312
_cell_angle_alpha                 90.0000
_cell_angle_beta                  90.0000
_cell_angle_gamma                 90.0000
loop_
_atom_site_label
_atom_site_type_symbol
_atom_site_fract_x
_atom_site_fract_y
_atom_site_fract_z
_atom_site_U_iso_or_equiv
_atom_site_adp_type
_atom_site_occupancy
C1     C     0.04321   0.46579   0.25637   0.00000  Uiso   1.00
C2     C     0.15115   0.51983   0.27070   0.00000  Uiso   1.00
C3     C     0.21600   0.50552   0.33724   0.00000  Uiso   1.00
C4     C     0.31172   0.56224   0.33909   0.00000  Uiso   1.00
C5     C     0.47478   0.63578   0.37087   0.00000  Uiso   1.00
C6     C     0.96288   0.55619   0.24311   0.00000  Uiso   1.00
C7     C     0.86943   0.57242   0.28646   0.00000  Uiso   1.00
C8     C     0.80665   0.65974   0.26508   0.00000  Uiso   1.00
C9     C     0.67738   0.78966   0.25398   0.00000  Uiso   1.00
C10    C     0.05306   0.40782   0.17647   0.00000  Uiso   1.00
C11    C     0.03541   0.29931   0.16377   0.00000  Uiso   1.00
C12    C     0.04854   0.26171   0.08628   0.00000  Uiso   1.00
C13    C     0.05929   0.16128   0.97171   0.00000  Uiso   1.00
C14    C     0.09788   0.59196   0.14133   0.00000  Uiso   1.00
C15    C     0.18084   0.58837   0.20821   0.00000  Uiso   1.00
C16    C     0.27649   0.64512   0.20996   0.00000  Uiso   1.00
C17    C     0.34147   0.63090   0.27650   0.00000  Uiso   1.00
C18    C     0.99257   0.62472   0.18063   0.00000  Uiso   1.00
C19    C     0.92992   0.71202   0.15918   0.00000  Uiso   1.00
C20    C     0.83640   0.72840   0.20248   0.00000  Uiso   1.00
C21    C     0.08276   0.47635   0.11399   0.00000  Uiso   1.00
C22    C     0.09591   0.43891   0.03650   0.00000  Uiso   1.00
C23    C     0.07829   0.33037   0.02368   0.00000  Uiso   1.00
H24    H     0.02009   0.41244   0.30502   0.00000  Uiso   1.00
H25    H     0.19299   0.45249   0.38559   0.00000  Uiso   1.00
H26    H     0.84646   0.51937   0.33480   0.00000  Uiso   1.00
H27    H     0.01243   0.24630   0.21214   0.00000  Uiso   1.00
H28    H     0.39776   0.52715   0.44737   0.00000  Uiso   1.00
H29    H     0.66708   0.66815   0.34027   0.00000  Uiso   1.00
H30    H     0.01705   0.09233   0.08161   0.00000  Uiso   1.00
H31    H     0.12100   0.64532   0.09268   0.00000  Uiso   1.00
H32    H     0.29945   0.69815   0.16160   0.00000  Uiso   1.00
H33    H     0.95292   0.76504   0.11082   0.00000  Uiso   1.00
H34    H     0.11889   0.49197   0.98816   0.00000  Uiso   1.00
H35    H     0.48416   0.72654   0.26558   0.00000  Uiso   1.00
H36    H     0.75347   0.86754   0.15848   0.00000  Uiso   1.00
H37    H     0.10345   0.29173   0.89982   0.00000  Uiso   1.00
O38    O     0.55651   0.65742   0.40566   0.00000  Uiso   1.00
O39    O     0.59787   0.84240   0.26513   0.00000  Uiso   1.00
O40    O     0.05704   0.08694   0.92578   0.00000  Uiso   1.00
N41    N     0.39361   0.56681   0.39512   0.00000  Uiso   1.00
N42    N     0.71048   0.69865   0.29500   0.00000  Uiso   1.00
N43    N     0.03764   0.16031   0.05317   0.00000  Uiso   1.00
N44    N     0.44011   0.67410   0.29730   0.00000  Uiso   1.00
N45    N     0.75697   0.80594   0.19718   0.00000  Uiso   1.00
N46    N     0.08414   0.26760   0.95535   0.00000  Uiso   1.00
C47    C     0.95679   0.53421   0.75637   0.00000  Uiso   1.00
C48    C     0.84885   0.48017   0.77070   0.00000  Uiso   1.00
C49    C     0.78400   0.49448   0.83724   0.00000  Uiso   1.00
C50    C     0.68828   0.43776   0.83909   0.00000  Uiso   1.00
C51    C     0.52522   0.36422   0.87087   0.00000  Uiso   1.00
C52    C     0.03712   0.44381   0.74311   0.00000  Uiso   1.00
C53    C     0.13057   0.42758   0.78646   0.00000  Uiso   1.00
C54    C     0.19335   0.34026   0.76508   0.00000  Uiso   1.00
C55    C     0.32262   0.21034   0.75398   0.00000  Uiso   1.00
C56    C     0.94694   0.59218   0.67647   0.00000  Uiso   1.00
C57    C     0.96459   0.70069   0.66377   0.00000  Uiso   1.00
C58    C     0.95146   0.73829   0.58628   0.00000  Uiso   1.00
C59    C     0.94071   0.83872   0.47171   0.00000  Uiso   1.00
C60    C     0.90212   0.40804   0.64133   0.00000  Uiso   1.00
C61    C     0.81916   0.41163   0.70821   0.00000  Uiso   1.00
C62    C     0.72351   0.35488   0.70996   0.00000  Uiso   1.00
C63    C     0.65853   0.36910   0.77650   0.00000  Uiso   1.00
C64    C     0.00743   0.37528   0.68063   0.00000  Uiso   1.00
C65    C     0.07008   0.28798   0.65918   0.00000  Uiso   1.00
C66    C     0.16360   0.27160   0.70248   0.00000  Uiso   1.00
C67    C     0.91724   0.52365   0.61399   0.00000  Uiso   1.00
C68    C     0.90409   0.56109   0.53650   0.00000  Uiso   1.00
C69    C     0.92171   0.66963   0.52368   0.00000  Uiso   1.00
H70    H     0.97991   0.58756   0.80502   0.00000  Uiso   1.00
H71    H     0.80701   0.54751   0.88559   0.00000  Uiso   1.00
H72    H     0.15354   0.48063   0.83480   0.00000  Uiso   1.00
H73    H     0.98757   0.75370   0.71214   0.00000  Uiso   1.00
H74    H     0.60224   0.47285   0.94737   0.00000  Uiso   1.00
H75    H     0.33292   0.33185   0.84027   0.00000  Uiso   1.00
H76    H     0.98295   0.90767   0.58161   0.00000  Uiso   1.00
H77    H     0.87900   0.35468   0.59268   0.00000  Uiso   1.00
H78    H     0.70055   0.30185   0.66160   0.00000  Uiso   1.00
H79    H     0.04708   0.23496   0.61082   0.00000  Uiso   1.00
H80    H     0.88111   0.50803   0.48816   0.00000  Uiso   1.00
H81    H     0.51584   0.27346   0.76558   0.00000  Uiso   1.00
H82    H     0.24653   0.13246   0.65848   0.00000  Uiso   1.00
H83    H     0.89655   0.70827   0.39982   0.00000  Uiso   1.00
O84    O     0.44349   0.34258   0.90566   0.00000  Uiso   1.00
O85    O     0.40213   0.15760   0.76513   0.00000  Uiso   1.00
O86    O     0.94296   0.91306   0.42578   0.00000  Uiso   1.00
N87    N     0.60639   0.43319   0.89512   0.00000  Uiso   1.00
N88    N     0.28952   0.30135   0.79500   0.00000  Uiso   1.00
N89    N     0.96236   0.83969   0.55317   0.00000  Uiso   1.00
N90    N     0.55989   0.32590   0.79730   0.00000  Uiso   1.00
N91    N     0.24303   0.19406   0.69718   0.00000  Uiso   1.00
N92    N     0.91586   0.73240   0.45535   0.00000  Uiso   1.00
C93    C     0.53421   0.04321   0.50637   0.00000  Uiso   1.00
C94    C     0.48017   0.15115   0.52070   0.00000  Uiso   1.00
C95    C     0.49448   0.21600   0.58724   0.00000  Uiso   1.00
C96    C     0.43776   0.31172   0.58909   0.00000  Uiso   1.00
C97    C     0.36422   0.47478   0.62087   0.00000  Uiso   1.00
C98    C     0.44381   0.96288   0.49311   0.00000  Uiso   1.00
C99    C     0.42758   0.86943   0.53646   0.00000  Uiso   1.00
C100   C     0.34026   0.80665   0.51508   0.00000  Uiso   1.00
C101   C     0.21034   0.67738   0.50398   0.00000  Uiso   1.00
C102   C     0.59218   0.05306   0.42647   0.00000  Uiso   1.00
C103   C     0.70069   0.03541   0.41377   0.00000  Uiso   1.00
C104   C     0.73829   0.04854   0.33628   0.00000  Uiso   1.00
C105   C     0.83872   0.05929   0.22171   0.00000  Uiso   1.00
C106   C     0.40804   0.09788   0.39133   0.00000  Uiso   1.00
C107   C     0.41163   0.18084   0.45821   0.00000  Uiso   1.00
C108   C     0.35488   0.27649   0.45996   0.00000  Uiso   1.00
C109   C     0.36910   0.34147   0.52650   0.00000  Uiso   1.00
C110   C     0.37528   0.99257   0.43063   0.00000  Uiso   1.00
C111   C     0.28798   0.92992   0.40918   0.00000  Uiso   1.00
C112   C     0.27160   0.83640   0.45248   0.00000  Uiso   1.00
C113   C     0.52365   0.08276   0.36399   0.00000  Uiso   1.00
C114   C     0.56109   0.09591   0.28650   0.00000  Uiso   1.00
C115   C     0.66963   0.07829   0.27368   0.00000  Uiso   1.00
H116   H     0.58756   0.02009   0.55502   0.00000  Uiso   1.00
H117   H     0.54751   0.19299   0.63559   0.00000  Uiso   1.00
H118   H     0.48063   0.84646   0.58480   0.00000  Uiso   1.00
H119   H     0.75370   0.01243   0.46214   0.00000  Uiso   1.00
H120   H     0.47285   0.39776   0.69737   0.00000  Uiso   1.00
H121   H     0.33185   0.66708   0.59027   0.00000  Uiso   1.00
H122   H     0.90767   0.01705   0.33161   0.00000  Uiso   1.00
H123   H     0.35468   0.12100   0.34268   0.00000  Uiso   1.00
H124   H     0.30185   0.29945   0.41160   0.00000  Uiso   1.00
H125   H     0.23496   0.95292   0.36082   0.00000  Uiso   1.00
H126   H     0.50803   0.11889   0.23816   0.00000  Uiso   1.00
H127   H     0.27346   0.48416   0.51558   0.00000  Uiso   1.00
H128   H     0.13246   0.75347   0.40848   0.00000  Uiso   1.00
H129   H     0.70827   0.10345   0.14982   0.00000  Uiso   1.00
O130   O     0.34258   0.55651   0.65566   0.00000  Uiso   1.00
O131   O     0.15760   0.59787   0.51513   0.00000  Uiso   1.00
O132   O     0.91306   0.05704   0.17578   0.00000  Uiso   1.00
N133   N     0.43319   0.39361   0.64512   0.00000  Uiso   1.00
N134   N     0.30135   0.71048   0.54500   0.00000  Uiso   1.00
N135   N     0.83969   0.03764   0.30317   0.00000  Uiso   1.00
N136   N     0.32590   0.44011   0.54730   0.00000  Uiso   1.00
N137   N     0.19406   0.75697   0.44718   0.00000  Uiso   1.00
N138   N     0.73240   0.08414   0.20535   0.00000  Uiso   1.00
C139   C     0.46579   0.95679   0.00637   0.00000  Uiso   1.00
C140   C     0.51983   0.84885   0.02070   0.00000  Uiso   1.00
C141   C     0.50552   0.78400   0.08724   0.00000  Uiso   1.00
C142   C     0.56224   0.68828   0.08909   0.00000  Uiso   1.00
C143   C     0.63578   0.52522   0.12087   0.00000  Uiso   1.00
C144   C     0.55619   0.03712   0.99311   0.00000  Uiso   1.00
C145   C     0.57242   0.13057   0.03646   0.00000  Uiso   1.00
C146   C     0.65974   0.19335   0.01508   0.00000  Uiso   1.00
C147   C     0.78966   0.32262   0.00398   0.00000  Uiso   1.00
C148   C     0.40782   0.94694   0.92647   0.00000  Uiso   1.00
C149   C     0.29931   0.96459   0.91377   0.00000  Uiso   1.00
C150   C     0.26171   0.95146   0.83628   0.00000  Uiso   1.00
C151   C     0.16128   0.94071   0.72171   0.00000  Uiso   1.00
C152   C     0.59196   0.90212   0.89133   0.00000  Uiso   1.00
C153   C     0.58837   0.81916   0.95821   0.00000  Uiso   1.00
C154   C     0.64512   0.72351   0.95996   0.00000  Uiso   1.00
C155   C     0.63090   0.65853   0.02650   0.00000  Uiso   1.00
C156   C     0.62472   0.00743   0.93063   0.00000  Uiso   1.00
C157   C     0.71202   0.07008   0.90918   0.00000  Uiso   1.00
C158   C     0.72840   0.16360   0.95248   0.00000  Uiso   1.00
C159   C     0.47635   0.91724   0.86399   0.00000  Uiso   1.00
C160   C     0.43891   0.90409   0.78650   0.00000  Uiso   1.00
C161   C     0.33037   0.92171   0.77368   0.00000  Uiso   1.00
H162   H     0.41244   0.97991   0.05502   0.00000  Uiso   1.00
H163   H     0.45249   0.80701   0.13559   0.00000  Uiso   1.00
H164   H     0.51937   0.15354   0.08480   0.00000  Uiso   1.00
H165   H     0.24630   0.98757   0.96214   0.00000  Uiso   1.00
H166   H     0.52715   0.60224   0.19737   0.00000  Uiso   1.00
H167   H     0.66815   0.33292   0.09027   0.00000  Uiso   1.00
H168   H     0.09233   0.98295   0.83161   0.00000  Uiso   1.00
H169   H     0.64532   0.87900   0.84268   0.00000  Uiso   1.00
H170   H     0.69815   0.70055   0.91160   0.00000  Uiso   1.00
H171   H     0.76504   0.04708   0.86082   0.00000  Uiso   1.00
H172   H     0.49197   0.88111   0.73816   0.00000  Uiso   1.00
H173   H     0.72654   0.51584   0.01558   0.00000  Uiso   1.00
H174   H     0.86754   0.24653   0.90848   0.00000  Uiso   1.00
H175   H     0.29173   0.89655   0.64982   0.00000  Uiso   1.00
O176   O     0.65742   0.44349   0.15566   0.00000  Uiso   1.00
O177   O     0.84240   0.40213   0.01513   0.00000  Uiso   1.00
O178   O     0.08694   0.94296   0.67578   0.00000  Uiso   1.00
N179   N     0.56681   0.60639   0.14512   0.00000  Uiso   1.00
N180   N     0.69865   0.28952   0.04500   0.00000  Uiso   1.00
N181   N     0.16031   0.96236   0.80317   0.00000  Uiso   1.00
N182   N     0.67410   0.55989   0.04730   0.00000  Uiso   1.00
N183   N     0.80594   0.24303   0.94718   0.00000  Uiso   1.00
N184   N     0.26760   0.91586   0.70535   0.00000  Uiso   1.00
