data_job_03107
_audit_creation_date              2018-12-19
_audit_creation_method            'Materials Studio'
_symmetry_space_group_name_H-M    'P1'
_symmetry_Int_Tables_number       1
_symmetry_cell_setting            triclinic
loop_
_symmetry_equiv_pos_as_xyz
  x,y,z
_cell_length_a                    16.6249
_cell_length_b                    16.6249
_cell_length_c                    15.9481
_cell_angle_alpha                 90.0000
_cell_angle_beta                  90.0000
_cell_angle_gamma                 90.0000
loop_
_atom_site_label
_atom_site_type_symbol
_atom_site_fract_x
_atom_site_fract_y
_atom_site_fract_z
_atom_site_U_iso_or_equiv
_atom_site_adp_type
_atom_site_occupancy
C1     C     0.97644   0.84821   0.27749   0.00000  Uiso   1.00
C2     C     0.89479   0.85082   0.23399   0.00000  Uiso   1.00
C3     C     0.85624   0.91960   0.20541   0.00000  Uiso   1.00
C4     C     0.78185   0.90932   0.16730   0.00000  Uiso   1.00
C5     C     0.66031   0.92500   0.10119   0.00000  Uiso   1.00
C6     C     0.96250   0.80618   0.36123   0.00000  Uiso   1.00
C7     C     0.98088   0.83742   0.43962   0.00000  Uiso   1.00
C8     C     0.96350   0.78955   0.50862   0.00000  Uiso   1.00
C9     C     0.94713   0.73590   0.64005   0.00000  Uiso   1.00
C10    C     0.02847   0.79131   0.22571   0.00000  Uiso   1.00
C11    C     0.10234   0.81002   0.19017   0.00000  Uiso   1.00
C12    C     0.14052   0.74963   0.14510   0.00000  Uiso   1.00
C13    C     0.22658   0.67287   0.06611   0.00000  Uiso   1.00
C14    C     0.91290   0.70766   0.26064   0.00000  Uiso   1.00
C15    C     0.86028   0.77448   0.22484   0.00000  Uiso   1.00
C16    C     0.78594   0.76410   0.18677   0.00000  Uiso   1.00
C17    C     0.74728   0.83284   0.15814   0.00000  Uiso   1.00
C18    C     0.92799   0.72984   0.35208   0.00000  Uiso   1.00
C19    C     0.91059   0.68192   0.42098   0.00000  Uiso   1.00
C20    C     0.92893   0.71307   0.49946   0.00000  Uiso   1.00
C21    C     0.99396   0.71496   0.21656   0.00000  Uiso   1.00
C22    C     0.03204   0.65452   0.17154   0.00000  Uiso   1.00
C23    C     0.10595   0.67315   0.13594   0.00000  Uiso   1.00
H24    H     0.00330   0.90764   0.28461   0.00000  Uiso   1.00
H25    H     0.88296   0.97867   0.21251   0.00000  Uiso   1.00
H26    H     0.00759   0.89649   0.44668   0.00000  Uiso   1.00
H27    H     0.12903   0.86911   0.19727   0.00000  Uiso   1.00
H28    H     0.73430   0.02375   0.12855   0.00000  Uiso   1.00
H29    H     0.99713   0.85047   0.62232   0.00000  Uiso   1.00
H30    H     0.25320   0.79272   0.09639   0.00000  Uiso   1.00
H31    H     0.88603   0.64822   0.25352   0.00000  Uiso   1.00
H32    H     0.75925   0.70501   0.17970   0.00000  Uiso   1.00
H33    H     0.88388   0.62284   0.41388   0.00000  Uiso   1.00
H34    H     0.00532   0.59545   0.16447   0.00000  Uiso   1.00
H35    H     0.63389   0.80164   0.10193   0.00000  Uiso   1.00
H36    H     0.89672   0.62836   0.59570   0.00000  Uiso   1.00
H37    H     0.15279   0.57061   0.06977   0.00000  Uiso   1.00
O38    O     0.60280   0.95474   0.06727   0.00000  Uiso   1.00
O39    O     0.94763   0.72740   0.71507   0.00000  Uiso   1.00
O40    O     0.28358   0.65163   0.02506   0.00000  Uiso   1.00
N41    N     0.72808   0.96368   0.13240   0.00000  Uiso   1.00
N42    N     0.97379   0.80168   0.59405   0.00000  Uiso   1.00
N43    N     0.21320   0.74768   0.10237   0.00000  Uiso   1.00
N44    N     0.67405   0.84417   0.11808   0.00000  Uiso   1.00
N45    N     0.91976   0.68217   0.57972   0.00000  Uiso   1.00
N46    N     0.15918   0.62817   0.08804   0.00000  Uiso   1.00
C47    C     0.02356   0.15179   0.27749   0.00000  Uiso   1.00
C48    C     0.10521   0.14918   0.23399   0.00000  Uiso   1.00
C49    C     0.14376   0.08040   0.20541   0.00000  Uiso   1.00
C50    C     0.21815   0.09068   0.16730   0.00000  Uiso   1.00
C51    C     0.33969   0.07500   0.10119   0.00000  Uiso   1.00
C52    C     0.03750   0.19382   0.36123   0.00000  Uiso   1.00
C53    C     0.01912   0.16258   0.43962   0.00000  Uiso   1.00
C54    C     0.03650   0.21045   0.50862   0.00000  Uiso   1.00
C55    C     0.05287   0.26410   0.64005   0.00000  Uiso   1.00
C56    C     0.97153   0.20869   0.22571   0.00000  Uiso   1.00
C57    C     0.89766   0.18998   0.19017   0.00000  Uiso   1.00
C58    C     0.85948   0.25037   0.14510   0.00000  Uiso   1.00
C59    C     0.77342   0.32713   0.06611   0.00000  Uiso   1.00
C60    C     0.08710   0.29234   0.26064   0.00000  Uiso   1.00
C61    C     0.13972   0.22552   0.22484   0.00000  Uiso   1.00
C62    C     0.21406   0.23590   0.18677   0.00000  Uiso   1.00
C63    C     0.25272   0.16716   0.15814   0.00000  Uiso   1.00
C64    C     0.07201   0.27016   0.35208   0.00000  Uiso   1.00
C65    C     0.08941   0.31808   0.42098   0.00000  Uiso   1.00
C66    C     0.07107   0.28693   0.49946   0.00000  Uiso   1.00
C67    C     0.00604   0.28504   0.21656   0.00000  Uiso   1.00
C68    C     0.96796   0.34548   0.17154   0.00000  Uiso   1.00
C69    C     0.89405   0.32685   0.13594   0.00000  Uiso   1.00
H70    H     0.99670   0.09236   0.28461   0.00000  Uiso   1.00
H71    H     0.11704   0.02133   0.21251   0.00000  Uiso   1.00
H72    H     0.99241   0.10351   0.44668   0.00000  Uiso   1.00
H73    H     0.87097   0.13089   0.19727   0.00000  Uiso   1.00
H74    H     0.26570   0.97625   0.12855   0.00000  Uiso   1.00
H75    H     0.00287   0.14953   0.62232   0.00000  Uiso   1.00
H76    H     0.74680   0.20728   0.09639   0.00000  Uiso   1.00
H77    H     0.11397   0.35178   0.25352   0.00000  Uiso   1.00
H78    H     0.24075   0.29499   0.17970   0.00000  Uiso   1.00
H79    H     0.11612   0.37716   0.41388   0.00000  Uiso   1.00
H80    H     0.99468   0.40455   0.16447   0.00000  Uiso   1.00
H81    H     0.36611   0.19836   0.10193   0.00000  Uiso   1.00
H82    H     0.10328   0.37164   0.59570   0.00000  Uiso   1.00
H83    H     0.84721   0.42939   0.06977   0.00000  Uiso   1.00
O84    O     0.39720   0.04526   0.06727   0.00000  Uiso   1.00
O85    O     0.05237   0.27260   0.71507   0.00000  Uiso   1.00
O86    O     0.71642   0.34837   0.02506   0.00000  Uiso   1.00
N87    N     0.27192   0.03632   0.13240   0.00000  Uiso   1.00
N88    N     0.02621   0.19832   0.59405   0.00000  Uiso   1.00
N89    N     0.78680   0.25232   0.10237   0.00000  Uiso   1.00
N90    N     0.32595   0.15583   0.11808   0.00000  Uiso   1.00
N91    N     0.08024   0.31783   0.57972   0.00000  Uiso   1.00
N92    N     0.84082   0.37183   0.08804   0.00000  Uiso   1.00
C93    C     0.84821   0.02356   0.72251   0.00000  Uiso   1.00
C94    C     0.85082   0.10521   0.76601   0.00000  Uiso   1.00
C95    C     0.91960   0.14376   0.79459   0.00000  Uiso   1.00
C96    C     0.90932   0.21815   0.83270   0.00000  Uiso   1.00
C97    C     0.92500   0.33969   0.89881   0.00000  Uiso   1.00
C98    C     0.80618   0.03750   0.63877   0.00000  Uiso   1.00
C99    C     0.83742   0.01912   0.56038   0.00000  Uiso   1.00
C100   C     0.78955   0.03650   0.49138   0.00000  Uiso   1.00
C101   C     0.73590   0.05287   0.35995   0.00000  Uiso   1.00
C102   C     0.79131   0.97153   0.77429   0.00000  Uiso   1.00
C103   C     0.81002   0.89766   0.80983   0.00000  Uiso   1.00
C104   C     0.74963   0.85948   0.85490   0.00000  Uiso   1.00
C105   C     0.67287   0.77342   0.93389   0.00000  Uiso   1.00
C106   C     0.70766   0.08710   0.73936   0.00000  Uiso   1.00
C107   C     0.77448   0.13972   0.77516   0.00000  Uiso   1.00
C108   C     0.76410   0.21406   0.81323   0.00000  Uiso   1.00
C109   C     0.83284   0.25272   0.84186   0.00000  Uiso   1.00
C110   C     0.72984   0.07201   0.64792   0.00000  Uiso   1.00
C111   C     0.68192   0.08941   0.57902   0.00000  Uiso   1.00
C112   C     0.71307   0.07107   0.50054   0.00000  Uiso   1.00
C113   C     0.71496   0.00604   0.78344   0.00000  Uiso   1.00
C114   C     0.65452   0.96796   0.82846   0.00000  Uiso   1.00
C115   C     0.67315   0.89405   0.86406   0.00000  Uiso   1.00
H116   H     0.90764   0.99670   0.71539   0.00000  Uiso   1.00
H117   H     0.97867   0.11704   0.78749   0.00000  Uiso   1.00
H118   H     0.89649   0.99241   0.55332   0.00000  Uiso   1.00
H119   H     0.86911   0.87097   0.80273   0.00000  Uiso   1.00
H120   H     0.02375   0.26570   0.87145   0.00000  Uiso   1.00
H121   H     0.85047   0.00287   0.37768   0.00000  Uiso   1.00
H122   H     0.79272   0.74680   0.90361   0.00000  Uiso   1.00
H123   H     0.64822   0.11397   0.74648   0.00000  Uiso   1.00
H124   H     0.70501   0.24075   0.82030   0.00000  Uiso   1.00
H125   H     0.62284   0.11612   0.58612   0.00000  Uiso   1.00
H126   H     0.59545   0.99468   0.83553   0.00000  Uiso   1.00
H127   H     0.80164   0.36611   0.89807   0.00000  Uiso   1.00
H128   H     0.62836   0.10328   0.40430   0.00000  Uiso   1.00
H129   H     0.57061   0.84721   0.93023   0.00000  Uiso   1.00
O130   O     0.95474   0.39720   0.93273   0.00000  Uiso   1.00
O131   O     0.72740   0.05237   0.28493   0.00000  Uiso   1.00
O132   O     0.65163   0.71642   0.97494   0.00000  Uiso   1.00
N133   N     0.96368   0.27192   0.86760   0.00000  Uiso   1.00
N134   N     0.80168   0.02621   0.40595   0.00000  Uiso   1.00
N135   N     0.74768   0.78680   0.89763   0.00000  Uiso   1.00
N136   N     0.84417   0.32595   0.88192   0.00000  Uiso   1.00
N137   N     0.68217   0.08024   0.42028   0.00000  Uiso   1.00
N138   N     0.62817   0.84082   0.91196   0.00000  Uiso   1.00
C139   C     0.15179   0.97644   0.72251   0.00000  Uiso   1.00
C140   C     0.14918   0.89479   0.76601   0.00000  Uiso   1.00
C141   C     0.08040   0.85624   0.79459   0.00000  Uiso   1.00
C142   C     0.09068   0.78185   0.83270   0.00000  Uiso   1.00
C143   C     0.07500   0.66031   0.89881   0.00000  Uiso   1.00
C144   C     0.19382   0.96250   0.63877   0.00000  Uiso   1.00
C145   C     0.16258   0.98088   0.56038   0.00000  Uiso   1.00
C146   C     0.21045   0.96350   0.49138   0.00000  Uiso   1.00
C147   C     0.26410   0.94713   0.35995   0.00000  Uiso   1.00
C148   C     0.20869   0.02847   0.77429   0.00000  Uiso   1.00
C149   C     0.18998   0.10234   0.80983   0.00000  Uiso   1.00
C150   C     0.25037   0.14052   0.85490   0.00000  Uiso   1.00
C151   C     0.32713   0.22658   0.93389   0.00000  Uiso   1.00
C152   C     0.29234   0.91290   0.73936   0.00000  Uiso   1.00
C153   C     0.22552   0.86028   0.77516   0.00000  Uiso   1.00
C154   C     0.23590   0.78594   0.81323   0.00000  Uiso   1.00
C155   C     0.16716   0.74728   0.84186   0.00000  Uiso   1.00
C156   C     0.27016   0.92799   0.64792   0.00000  Uiso   1.00
C157   C     0.31808   0.91059   0.57902   0.00000  Uiso   1.00
C158   C     0.28693   0.92893   0.50054   0.00000  Uiso   1.00
C159   C     0.28504   0.99396   0.78344   0.00000  Uiso   1.00
C160   C     0.34548   0.03204   0.82846   0.00000  Uiso   1.00
C161   C     0.32685   0.10595   0.86406   0.00000  Uiso   1.00
H162   H     0.09236   0.00330   0.71539   0.00000  Uiso   1.00
H163   H     0.02133   0.88296   0.78749   0.00000  Uiso   1.00
H164   H     0.10351   0.00759   0.55332   0.00000  Uiso   1.00
H165   H     0.13089   0.12903   0.80273   0.00000  Uiso   1.00
H166   H     0.97625   0.73430   0.87145   0.00000  Uiso   1.00
H167   H     0.14953   0.99713   0.37768   0.00000  Uiso   1.00
H168   H     0.20728   0.25320   0.90361   0.00000  Uiso   1.00
H169   H     0.35178   0.88603   0.74648   0.00000  Uiso   1.00
H170   H     0.29499   0.75925   0.82030   0.00000  Uiso   1.00
H171   H     0.37716   0.88388   0.58612   0.00000  Uiso   1.00
H172   H     0.40455   0.00532   0.83553   0.00000  Uiso   1.00
H173   H     0.19836   0.63389   0.89807   0.00000  Uiso   1.00
H174   H     0.37164   0.89672   0.40430   0.00000  Uiso   1.00
H175   H     0.42939   0.15279   0.93023   0.00000  Uiso   1.00
O176   O     0.04526   0.60280   0.93273   0.00000  Uiso   1.00
O177   O     0.27260   0.94763   0.28493   0.00000  Uiso   1.00
O178   O     0.34837   0.28358   0.97494   0.00000  Uiso   1.00
N179   N     0.03632   0.72808   0.86760   0.00000  Uiso   1.00
N180   N     0.19832   0.97379   0.40595   0.00000  Uiso   1.00
N181   N     0.25232   0.21320   0.89763   0.00000  Uiso   1.00
N182   N     0.15583   0.67405   0.88192   0.00000  Uiso   1.00
N183   N     0.31783   0.91976   0.42028   0.00000  Uiso   1.00
N184   N     0.37183   0.15918   0.91196   0.00000  Uiso   1.00
C185   C     0.52356   0.34821   0.22251   0.00000  Uiso   1.00
C186   C     0.60521   0.35082   0.26601   0.00000  Uiso   1.00
C187   C     0.64376   0.41960   0.29459   0.00000  Uiso   1.00
C188   C     0.71815   0.40932   0.33270   0.00000  Uiso   1.00
C189   C     0.83969   0.42500   0.39881   0.00000  Uiso   1.00
C190   C     0.53750   0.30618   0.13877   0.00000  Uiso   1.00
C191   C     0.51912   0.33742   0.06038   0.00000  Uiso   1.00
C192   C     0.53650   0.28955   0.99138   0.00000  Uiso   1.00
C193   C     0.55287   0.23590   0.85995   0.00000  Uiso   1.00
C194   C     0.47153   0.29131   0.27429   0.00000  Uiso   1.00
C195   C     0.39766   0.31002   0.30983   0.00000  Uiso   1.00
C196   C     0.35948   0.24963   0.35490   0.00000  Uiso   1.00
C197   C     0.27342   0.17287   0.43389   0.00000  Uiso   1.00
C198   C     0.58710   0.20766   0.23936   0.00000  Uiso   1.00
C199   C     0.63972   0.27448   0.27516   0.00000  Uiso   1.00
C200   C     0.71406   0.26410   0.31323   0.00000  Uiso   1.00
C201   C     0.75272   0.33284   0.34186   0.00000  Uiso   1.00
C202   C     0.57201   0.22984   0.14792   0.00000  Uiso   1.00
C203   C     0.58941   0.18192   0.07902   0.00000  Uiso   1.00
C204   C     0.57107   0.21307   0.00054   0.00000  Uiso   1.00
C205   C     0.50604   0.21496   0.28344   0.00000  Uiso   1.00
C206   C     0.46796   0.15452   0.32846   0.00000  Uiso   1.00
C207   C     0.39405   0.17315   0.36406   0.00000  Uiso   1.00
H208   H     0.49670   0.40764   0.21539   0.00000  Uiso   1.00
H209   H     0.61704   0.47867   0.28749   0.00000  Uiso   1.00
H210   H     0.49241   0.39649   0.05332   0.00000  Uiso   1.00
H211   H     0.37097   0.36911   0.30273   0.00000  Uiso   1.00
H212   H     0.76570   0.52375   0.37145   0.00000  Uiso   1.00
H213   H     0.50287   0.35047   0.87768   0.00000  Uiso   1.00
H214   H     0.24680   0.29272   0.40361   0.00000  Uiso   1.00
H215   H     0.61397   0.14822   0.24648   0.00000  Uiso   1.00
H216   H     0.74075   0.20501   0.32030   0.00000  Uiso   1.00
H217   H     0.61612   0.12284   0.08612   0.00000  Uiso   1.00
H218   H     0.49468   0.09545   0.33553   0.00000  Uiso   1.00
H219   H     0.86611   0.30164   0.39807   0.00000  Uiso   1.00
H220   H     0.60328   0.12836   0.90430   0.00000  Uiso   1.00
H221   H     0.34721   0.07061   0.43023   0.00000  Uiso   1.00
O222   O     0.89720   0.45474   0.43273   0.00000  Uiso   1.00
O223   O     0.55237   0.22740   0.78493   0.00000  Uiso   1.00
O224   O     0.21642   0.15163   0.47494   0.00000  Uiso   1.00
N225   N     0.77192   0.46368   0.36760   0.00000  Uiso   1.00
N226   N     0.52621   0.30168   0.90595   0.00000  Uiso   1.00
N227   N     0.28680   0.24768   0.39763   0.00000  Uiso   1.00
N228   N     0.82595   0.34417   0.38192   0.00000  Uiso   1.00
N229   N     0.58024   0.18217   0.92028   0.00000  Uiso   1.00
N230   N     0.34082   0.12817   0.41196   0.00000  Uiso   1.00
C231   C     0.47644   0.65179   0.22251   0.00000  Uiso   1.00
C232   C     0.39479   0.64918   0.26601   0.00000  Uiso   1.00
C233   C     0.35624   0.58040   0.29459   0.00000  Uiso   1.00
C234   C     0.28185   0.59068   0.33270   0.00000  Uiso   1.00
C235   C     0.16031   0.57500   0.39881   0.00000  Uiso   1.00
C236   C     0.46250   0.69382   0.13877   0.00000  Uiso   1.00
C237   C     0.48088   0.66258   0.06038   0.00000  Uiso   1.00
C238   C     0.46350   0.71045   0.99138   0.00000  Uiso   1.00
C239   C     0.44713   0.76410   0.85995   0.00000  Uiso   1.00
C240   C     0.52847   0.70869   0.27429   0.00000  Uiso   1.00
C241   C     0.60234   0.68998   0.30983   0.00000  Uiso   1.00
C242   C     0.64052   0.75037   0.35490   0.00000  Uiso   1.00
C243   C     0.72658   0.82713   0.43389   0.00000  Uiso   1.00
C244   C     0.41290   0.79234   0.23936   0.00000  Uiso   1.00
C245   C     0.36028   0.72552   0.27516   0.00000  Uiso   1.00
C246   C     0.28594   0.73590   0.31323   0.00000  Uiso   1.00
C247   C     0.24728   0.66716   0.34186   0.00000  Uiso   1.00
C248   C     0.42799   0.77016   0.14792   0.00000  Uiso   1.00
C249   C     0.41059   0.81808   0.07902   0.00000  Uiso   1.00
C250   C     0.42893   0.78693   0.00054   0.00000  Uiso   1.00
C251   C     0.49396   0.78504   0.28344   0.00000  Uiso   1.00
C252   C     0.53204   0.84548   0.32846   0.00000  Uiso   1.00
C253   C     0.60595   0.82685   0.36406   0.00000  Uiso   1.00
H254   H     0.50330   0.59236   0.21539   0.00000  Uiso   1.00
H255   H     0.38296   0.52133   0.28749   0.00000  Uiso   1.00
H256   H     0.50759   0.60351   0.05332   0.00000  Uiso   1.00
H257   H     0.62903   0.63089   0.30273   0.00000  Uiso   1.00
H258   H     0.23430   0.47625   0.37145   0.00000  Uiso   1.00
H259   H     0.49713   0.64953   0.87768   0.00000  Uiso   1.00
H260   H     0.75320   0.70728   0.40361   0.00000  Uiso   1.00
H261   H     0.38603   0.85178   0.24648   0.00000  Uiso   1.00
H262   H     0.25925   0.79499   0.32030   0.00000  Uiso   1.00
H263   H     0.38388   0.87716   0.08612   0.00000  Uiso   1.00
H264   H     0.50532   0.90455   0.33553   0.00000  Uiso   1.00
H265   H     0.13389   0.69836   0.39807   0.00000  Uiso   1.00
H266   H     0.39672   0.87164   0.90430   0.00000  Uiso   1.00
H267   H     0.65279   0.92939   0.43023   0.00000  Uiso   1.00
O268   O     0.10280   0.54526   0.43273   0.00000  Uiso   1.00
O269   O     0.44763   0.77260   0.78493   0.00000  Uiso   1.00
O270   O     0.78358   0.84837   0.47494   0.00000  Uiso   1.00
N271   N     0.22808   0.53632   0.36760   0.00000  Uiso   1.00
N272   N     0.47379   0.69832   0.90595   0.00000  Uiso   1.00
N273   N     0.71320   0.75232   0.39763   0.00000  Uiso   1.00
N274   N     0.17405   0.65583   0.38192   0.00000  Uiso   1.00
N275   N     0.41976   0.81783   0.92028   0.00000  Uiso   1.00
N276   N     0.65918   0.87183   0.41196   0.00000  Uiso   1.00
C277   C     0.65179   0.52356   0.77749   0.00000  Uiso   1.00
C278   C     0.64918   0.60521   0.73399   0.00000  Uiso   1.00
C279   C     0.58040   0.64376   0.70541   0.00000  Uiso   1.00
C280   C     0.59068   0.71815   0.66730   0.00000  Uiso   1.00
C281   C     0.57500   0.83969   0.60119   0.00000  Uiso   1.00
C282   C     0.69382   0.53750   0.86123   0.00000  Uiso   1.00
C283   C     0.66258   0.51912   0.93962   0.00000  Uiso   1.00
C284   C     0.71045   0.53650   0.00862   0.00000  Uiso   1.00
C285   C     0.76410   0.55287   0.14005   0.00000  Uiso   1.00
C286   C     0.70869   0.47153   0.72571   0.00000  Uiso   1.00
C287   C     0.68998   0.39766   0.69017   0.00000  Uiso   1.00
C288   C     0.75037   0.35948   0.64510   0.00000  Uiso   1.00
C289   C     0.82713   0.27342   0.56611   0.00000  Uiso   1.00
C290   C     0.79234   0.58710   0.76064   0.00000  Uiso   1.00
C291   C     0.72552   0.63972   0.72484   0.00000  Uiso   1.00
C292   C     0.73590   0.71406   0.68677   0.00000  Uiso   1.00
C293   C     0.66716   0.75272   0.65814   0.00000  Uiso   1.00
C294   C     0.77016   0.57201   0.85208   0.00000  Uiso   1.00
C295   C     0.81808   0.58941   0.92098   0.00000  Uiso   1.00
C296   C     0.78693   0.57107   0.99946   0.00000  Uiso   1.00
C297   C     0.78504   0.50604   0.71656   0.00000  Uiso   1.00
C298   C     0.84548   0.46796   0.67154   0.00000  Uiso   1.00
C299   C     0.82685   0.39405   0.63594   0.00000  Uiso   1.00
H300   H     0.59236   0.49670   0.78461   0.00000  Uiso   1.00
H301   H     0.52133   0.61704   0.71251   0.00000  Uiso   1.00
H302   H     0.60351   0.49241   0.94668   0.00000  Uiso   1.00
H303   H     0.63089   0.37097   0.69727   0.00000  Uiso   1.00
H304   H     0.47625   0.76570   0.62855   0.00000  Uiso   1.00
H305   H     0.64953   0.50287   0.12232   0.00000  Uiso   1.00
H306   H     0.70728   0.24680   0.59639   0.00000  Uiso   1.00
H307   H     0.85178   0.61397   0.75352   0.00000  Uiso   1.00
H308   H     0.79499   0.74075   0.67970   0.00000  Uiso   1.00
H309   H     0.87716   0.61612   0.91388   0.00000  Uiso   1.00
H310   H     0.90455   0.49468   0.66447   0.00000  Uiso   1.00
H311   H     0.69836   0.86611   0.60193   0.00000  Uiso   1.00
H312   H     0.87164   0.60328   0.09570   0.00000  Uiso   1.00
H313   H     0.92939   0.34721   0.56977   0.00000  Uiso   1.00
O314   O     0.54526   0.89720   0.56727   0.00000  Uiso   1.00
O315   O     0.77260   0.55237   0.21507   0.00000  Uiso   1.00
O316   O     0.84837   0.21642   0.52506   0.00000  Uiso   1.00
N317   N     0.53632   0.77192   0.63240   0.00000  Uiso   1.00
N318   N     0.69832   0.52621   0.09405   0.00000  Uiso   1.00
N319   N     0.75232   0.28680   0.60237   0.00000  Uiso   1.00
N320   N     0.65583   0.82595   0.61808   0.00000  Uiso   1.00
N321   N     0.81783   0.58024   0.07972   0.00000  Uiso   1.00
N322   N     0.87183   0.34082   0.58804   0.00000  Uiso   1.00
C323   C     0.34821   0.47644   0.77749   0.00000  Uiso   1.00
C324   C     0.35082   0.39479   0.73399   0.00000  Uiso   1.00
C325   C     0.41960   0.35624   0.70541   0.00000  Uiso   1.00
C326   C     0.40932   0.28185   0.66730   0.00000  Uiso   1.00
C327   C     0.42500   0.16031   0.60119   0.00000  Uiso   1.00
C328   C     0.30618   0.46250   0.86123   0.00000  Uiso   1.00
C329   C     0.33742   0.48088   0.93962   0.00000  Uiso   1.00
C330   C     0.28955   0.46350   0.00862   0.00000  Uiso   1.00
C331   C     0.23590   0.44713   0.14005   0.00000  Uiso   1.00
C332   C     0.29131   0.52847   0.72571   0.00000  Uiso   1.00
C333   C     0.31002   0.60234   0.69017   0.00000  Uiso   1.00
C334   C     0.24963   0.64052   0.64510   0.00000  Uiso   1.00
C335   C     0.17287   0.72658   0.56611   0.00000  Uiso   1.00
C336   C     0.20766   0.41290   0.76064   0.00000  Uiso   1.00
C337   C     0.27448   0.36028   0.72484   0.00000  Uiso   1.00
C338   C     0.26410   0.28594   0.68677   0.00000  Uiso   1.00
C339   C     0.33284   0.24728   0.65814   0.00000  Uiso   1.00
C340   C     0.22984   0.42799   0.85208   0.00000  Uiso   1.00
C341   C     0.18192   0.41059   0.92098   0.00000  Uiso   1.00
C342   C     0.21307   0.42893   0.99946   0.00000  Uiso   1.00
C343   C     0.21496   0.49396   0.71656   0.00000  Uiso   1.00
C344   C     0.15452   0.53204   0.67154   0.00000  Uiso   1.00
C345   C     0.17315   0.60595   0.63594   0.00000  Uiso   1.00
H346   H     0.40764   0.50330   0.78461   0.00000  Uiso   1.00
H347   H     0.47867   0.38296   0.71251   0.00000  Uiso   1.00
H348   H     0.39649   0.50759   0.94668   0.00000  Uiso   1.00
H349   H     0.36911   0.62903   0.69727   0.00000  Uiso   1.00
H350   H     0.52375   0.23430   0.62855   0.00000  Uiso   1.00
H351   H     0.35047   0.49713   0.12232   0.00000  Uiso   1.00
H352   H     0.29272   0.75320   0.59639   0.00000  Uiso   1.00
H353   H     0.14822   0.38603   0.75352   0.00000  Uiso   1.00
H354   H     0.20501   0.25925   0.67970   0.00000  Uiso   1.00
H355   H     0.12284   0.38388   0.91388   0.00000  Uiso   1.00
H356   H     0.09545   0.50532   0.66447   0.00000  Uiso   1.00
H357   H     0.30164   0.13389   0.60193   0.00000  Uiso   1.00
H358   H     0.12836   0.39672   0.09570   0.00000  Uiso   1.00
H359   H     0.07061   0.65279   0.56977   0.00000  Uiso   1.00
O360   O     0.45474   0.10280   0.56727   0.00000  Uiso   1.00
O361   O     0.22740   0.44763   0.21507   0.00000  Uiso   1.00
O362   O     0.15163   0.78358   0.52506   0.00000  Uiso   1.00
N363   N     0.46368   0.22808   0.63240   0.00000  Uiso   1.00
N364   N     0.30168   0.47379   0.09405   0.00000  Uiso   1.00
N365   N     0.24768   0.71320   0.60237   0.00000  Uiso   1.00
N366   N     0.34417   0.17405   0.61808   0.00000  Uiso   1.00
N367   N     0.18217   0.41976   0.07972   0.00000  Uiso   1.00
N368   N     0.12817   0.65918   0.58804   0.00000  Uiso   1.00
