data_job_02446
_audit_creation_date              2018-12-19
_audit_creation_method            'Materials Studio'
_symmetry_space_group_name_H-M    'P1'
_symmetry_Int_Tables_number       1
_symmetry_cell_setting            triclinic
loop_
_symmetry_equiv_pos_as_xyz
  x,y,z
_cell_length_a                    12.4955
_cell_length_b                    10.7337
_cell_length_c                    30.9669
_cell_angle_alpha                 90.0000
_cell_angle_beta                  93.2923
_cell_angle_gamma                 90.0000
loop_
_atom_site_label
_atom_site_type_symbol
_atom_site_fract_x
_atom_site_fract_y
_atom_site_fract_z
_atom_site_U_iso_or_equiv
_atom_site_adp_type
_atom_site_occupancy
C1     C     0.91584   0.78823   0.89013   0.00000  Uiso   1.00
C2     C     0.89482   0.69567   0.85326   0.00000  Uiso   1.00
C3     C     0.90839   0.56754   0.85604   0.00000  Uiso   1.00
C4     C     0.88486   0.49906   0.81866   0.00000  Uiso   1.00
C5     C     0.85773   0.34658   0.76728   0.00000  Uiso   1.00
C6     C     0.99617   0.88215   0.87417   0.00000  Uiso   1.00
C7     C     0.09494   0.91082   0.89454   0.00000  Uiso   1.00
C8     C     0.15672   0.99933   0.87476   0.00000  Uiso   1.00
C9     C     0.28690   0.13643   0.85588   0.00000  Uiso   1.00
C10    C     0.81137   0.85965   0.89409   0.00000  Uiso   1.00
C11    C     0.75476   0.86943   0.93121   0.00000  Uiso   1.00
C12    C     0.66095   0.93902   0.92821   0.00000  Uiso   1.00
C13    C     0.50420   0.04117   0.94026   0.00000  Uiso   1.00
C14    C     0.84994   0.89445   0.81881   0.00000  Uiso   1.00
C15    C     0.85903   0.75337   0.81452   0.00000  Uiso   1.00
C16    C     0.83548   0.68507   0.77712   0.00000  Uiso   1.00
C17    C     0.84900   0.55686   0.77985   0.00000  Uiso   1.00
C18    C     0.96038   0.93985   0.83543   0.00000  Uiso   1.00
C19    C     0.02203   0.02834   0.81563   0.00000  Uiso   1.00
C20    C     0.12086   0.05713   0.83595   0.00000  Uiso   1.00
C21    C     0.77557   0.91734   0.85535   0.00000  Uiso   1.00
C22    C     0.68184   0.98694   0.85230   0.00000  Uiso   1.00
C23    C     0.62510   0.99682   0.88940   0.00000  Uiso   1.00
H24    H     0.94371   0.74331   0.92030   0.00000  Uiso   1.00
H25    H     0.93610   0.52293   0.88602   0.00000  Uiso   1.00
H26    H     0.12261   0.86616   0.92452   0.00000  Uiso   1.00
H27    H     0.78248   0.82477   0.96119   0.00000  Uiso   1.00
H28    H     0.91191   0.30404   0.83094   0.00000  Uiso   1.00
H29    H     0.30517   0.02780   0.91212   0.00000  Uiso   1.00
H30    H     0.58794   0.94051   0.98944   0.00000  Uiso   1.00
H31    H     0.82207   0.93937   0.78865   0.00000  Uiso   1.00
H32    H     0.80778   0.72974   0.74715   0.00000  Uiso   1.00
H33    H     0.99430   0.07298   0.78565   0.00000  Uiso   1.00
H34    H     0.65417   0.03158   0.82231   0.00000  Uiso   1.00
H35    H     0.80777   0.47190   0.71822   0.00000  Uiso   1.00
H36    H     0.20103   0.19566   0.79940   0.00000  Uiso   1.00
H37    H     0.48380   0.10837   0.87672   0.00000  Uiso   1.00
O38    O     0.85267   0.24654   0.74965   0.00000  Uiso   1.00
O39    O     0.36860   0.19609   0.85616   0.00000  Uiso   1.00
O40    O     0.42761   0.08157   0.95760   0.00000  Uiso   1.00
N41    N     0.88934   0.37231   0.81011   0.00000  Uiso   1.00
N42    N     0.25703   0.04897   0.88600   0.00000  Uiso   1.00
N43    N     0.58649   0.96739   0.95829   0.00000  Uiso   1.00
N44    N     0.83330   0.46264   0.74945   0.00000  Uiso   1.00
N45    N     0.20099   0.13929   0.82535   0.00000  Uiso   1.00
N46    N     0.53045   0.05771   0.89764   0.00000  Uiso   1.00
C47    C     0.08416   0.78823   0.60987   0.00000  Uiso   1.00
C48    C     0.10518   0.69567   0.64674   0.00000  Uiso   1.00
C49    C     0.09161   0.56754   0.64396   0.00000  Uiso   1.00
C50    C     0.11514   0.49906   0.68134   0.00000  Uiso   1.00
C51    C     0.14227   0.34658   0.73272   0.00000  Uiso   1.00
C52    C     0.00383   0.88215   0.62583   0.00000  Uiso   1.00
C53    C     0.90506   0.91082   0.60546   0.00000  Uiso   1.00
C54    C     0.84328   0.99933   0.62524   0.00000  Uiso   1.00
C55    C     0.71310   0.13643   0.64412   0.00000  Uiso   1.00
C56    C     0.18863   0.85965   0.60591   0.00000  Uiso   1.00
C57    C     0.24524   0.86943   0.56879   0.00000  Uiso   1.00
C58    C     0.33905   0.93902   0.57179   0.00000  Uiso   1.00
C59    C     0.49580   0.04117   0.55974   0.00000  Uiso   1.00
C60    C     0.15006   0.89445   0.68119   0.00000  Uiso   1.00
C61    C     0.14097   0.75337   0.68548   0.00000  Uiso   1.00
C62    C     0.16452   0.68507   0.72288   0.00000  Uiso   1.00
C63    C     0.15100   0.55686   0.72015   0.00000  Uiso   1.00
C64    C     0.03962   0.93985   0.66457   0.00000  Uiso   1.00
C65    C     0.97797   0.02834   0.68437   0.00000  Uiso   1.00
C66    C     0.87914   0.05713   0.66405   0.00000  Uiso   1.00
C67    C     0.22443   0.91734   0.64465   0.00000  Uiso   1.00
C68    C     0.31816   0.98694   0.64770   0.00000  Uiso   1.00
C69    C     0.37490   0.99682   0.61060   0.00000  Uiso   1.00
H70    H     0.05629   0.74331   0.57970   0.00000  Uiso   1.00
H71    H     0.06390   0.52293   0.61398   0.00000  Uiso   1.00
H72    H     0.87739   0.86616   0.57548   0.00000  Uiso   1.00
H73    H     0.21752   0.82477   0.53881   0.00000  Uiso   1.00
H74    H     0.08809   0.30404   0.66906   0.00000  Uiso   1.00
H75    H     0.69483   0.02780   0.58788   0.00000  Uiso   1.00
H76    H     0.41206   0.94051   0.51056   0.00000  Uiso   1.00
H77    H     0.17793   0.93937   0.71135   0.00000  Uiso   1.00
H78    H     0.19222   0.72974   0.75285   0.00000  Uiso   1.00
H79    H     0.00570   0.07298   0.71435   0.00000  Uiso   1.00
H80    H     0.34583   0.03158   0.67769   0.00000  Uiso   1.00
H81    H     0.19223   0.47190   0.78178   0.00000  Uiso   1.00
H82    H     0.79897   0.19566   0.70060   0.00000  Uiso   1.00
H83    H     0.51620   0.10837   0.62328   0.00000  Uiso   1.00
O84    O     0.14733   0.24654   0.75035   0.00000  Uiso   1.00
O85    O     0.63140   0.19609   0.64384   0.00000  Uiso   1.00
O86    O     0.57239   0.08157   0.54240   0.00000  Uiso   1.00
N87    N     0.11066   0.37231   0.68989   0.00000  Uiso   1.00
N88    N     0.74297   0.04897   0.61400   0.00000  Uiso   1.00
N89    N     0.41351   0.96739   0.54171   0.00000  Uiso   1.00
N90    N     0.16670   0.46264   0.75055   0.00000  Uiso   1.00
N91    N     0.79901   0.13929   0.67465   0.00000  Uiso   1.00
N92    N     0.46955   0.05771   0.60236   0.00000  Uiso   1.00
C93    C     0.08416   0.21177   0.10987   0.00000  Uiso   1.00
C94    C     0.10518   0.30433   0.14674   0.00000  Uiso   1.00
C95    C     0.09161   0.43246   0.14396   0.00000  Uiso   1.00
C96    C     0.11514   0.50094   0.18134   0.00000  Uiso   1.00
C97    C     0.14227   0.65342   0.23272   0.00000  Uiso   1.00
C98    C     0.00383   0.11785   0.12583   0.00000  Uiso   1.00
C99    C     0.90506   0.08918   0.10546   0.00000  Uiso   1.00
C100   C     0.84328   0.00067   0.12524   0.00000  Uiso   1.00
C101   C     0.71310   0.86357   0.14412   0.00000  Uiso   1.00
C102   C     0.18863   0.14035   0.10591   0.00000  Uiso   1.00
C103   C     0.24524   0.13057   0.06879   0.00000  Uiso   1.00
C104   C     0.33905   0.06098   0.07179   0.00000  Uiso   1.00
C105   C     0.49580   0.95883   0.05974   0.00000  Uiso   1.00
C106   C     0.15006   0.10555   0.18119   0.00000  Uiso   1.00
C107   C     0.14097   0.24663   0.18548   0.00000  Uiso   1.00
C108   C     0.16452   0.31493   0.22288   0.00000  Uiso   1.00
C109   C     0.15100   0.44314   0.22015   0.00000  Uiso   1.00
C110   C     0.03962   0.06015   0.16457   0.00000  Uiso   1.00
C111   C     0.97797   0.97166   0.18437   0.00000  Uiso   1.00
C112   C     0.87914   0.94287   0.16405   0.00000  Uiso   1.00
C113   C     0.22443   0.08266   0.14465   0.00000  Uiso   1.00
C114   C     0.31816   0.01306   0.14770   0.00000  Uiso   1.00
C115   C     0.37490   0.00318   0.11060   0.00000  Uiso   1.00
H116   H     0.05629   0.25669   0.07970   0.00000  Uiso   1.00
H117   H     0.06390   0.47707   0.11398   0.00000  Uiso   1.00
H118   H     0.87739   0.13384   0.07548   0.00000  Uiso   1.00
H119   H     0.21752   0.17523   0.03881   0.00000  Uiso   1.00
H120   H     0.08809   0.69596   0.16906   0.00000  Uiso   1.00
H121   H     0.69483   0.97220   0.08788   0.00000  Uiso   1.00
H122   H     0.41206   0.05949   0.01056   0.00000  Uiso   1.00
H123   H     0.17793   0.06063   0.21135   0.00000  Uiso   1.00
H124   H     0.19222   0.27026   0.25285   0.00000  Uiso   1.00
H125   H     0.00570   0.92702   0.21435   0.00000  Uiso   1.00
H126   H     0.34583   0.96842   0.17769   0.00000  Uiso   1.00
H127   H     0.19223   0.52810   0.28178   0.00000  Uiso   1.00
H128   H     0.79897   0.80434   0.20060   0.00000  Uiso   1.00
H129   H     0.51620   0.89163   0.12328   0.00000  Uiso   1.00
O130   O     0.14733   0.75346   0.25035   0.00000  Uiso   1.00
O131   O     0.63140   0.80391   0.14384   0.00000  Uiso   1.00
O132   O     0.57239   0.91843   0.04240   0.00000  Uiso   1.00
N133   N     0.11066   0.62769   0.18989   0.00000  Uiso   1.00
N134   N     0.74297   0.95103   0.11400   0.00000  Uiso   1.00
N135   N     0.41351   0.03261   0.04171   0.00000  Uiso   1.00
N136   N     0.16670   0.53736   0.25055   0.00000  Uiso   1.00
N137   N     0.79901   0.86071   0.17465   0.00000  Uiso   1.00
N138   N     0.46955   0.94229   0.10236   0.00000  Uiso   1.00
C139   C     0.91584   0.21177   0.39013   0.00000  Uiso   1.00
C140   C     0.89482   0.30433   0.35326   0.00000  Uiso   1.00
C141   C     0.90839   0.43246   0.35604   0.00000  Uiso   1.00
C142   C     0.88486   0.50094   0.31866   0.00000  Uiso   1.00
C143   C     0.85773   0.65342   0.26728   0.00000  Uiso   1.00
C144   C     0.99617   0.11785   0.37417   0.00000  Uiso   1.00
C145   C     0.09494   0.08918   0.39454   0.00000  Uiso   1.00
C146   C     0.15672   0.00067   0.37476   0.00000  Uiso   1.00
C147   C     0.28690   0.86357   0.35588   0.00000  Uiso   1.00
C148   C     0.81137   0.14035   0.39409   0.00000  Uiso   1.00
C149   C     0.75476   0.13057   0.43121   0.00000  Uiso   1.00
C150   C     0.66095   0.06098   0.42821   0.00000  Uiso   1.00
C151   C     0.50420   0.95883   0.44026   0.00000  Uiso   1.00
C152   C     0.84994   0.10555   0.31881   0.00000  Uiso   1.00
C153   C     0.85903   0.24663   0.31452   0.00000  Uiso   1.00
C154   C     0.83548   0.31493   0.27712   0.00000  Uiso   1.00
C155   C     0.84900   0.44314   0.27985   0.00000  Uiso   1.00
C156   C     0.96038   0.06015   0.33543   0.00000  Uiso   1.00
C157   C     0.02203   0.97166   0.31563   0.00000  Uiso   1.00
C158   C     0.12086   0.94287   0.33595   0.00000  Uiso   1.00
C159   C     0.77557   0.08266   0.35535   0.00000  Uiso   1.00
C160   C     0.68184   0.01306   0.35230   0.00000  Uiso   1.00
C161   C     0.62510   0.00318   0.38940   0.00000  Uiso   1.00
H162   H     0.94371   0.25669   0.42030   0.00000  Uiso   1.00
H163   H     0.93610   0.47707   0.38602   0.00000  Uiso   1.00
H164   H     0.12261   0.13384   0.42452   0.00000  Uiso   1.00
H165   H     0.78248   0.17523   0.46119   0.00000  Uiso   1.00
H166   H     0.91191   0.69596   0.33094   0.00000  Uiso   1.00
H167   H     0.30517   0.97220   0.41212   0.00000  Uiso   1.00
H168   H     0.58794   0.05949   0.48944   0.00000  Uiso   1.00
H169   H     0.82207   0.06063   0.28865   0.00000  Uiso   1.00
H170   H     0.80778   0.27026   0.24715   0.00000  Uiso   1.00
H171   H     0.99430   0.92702   0.28565   0.00000  Uiso   1.00
H172   H     0.65417   0.96842   0.32231   0.00000  Uiso   1.00
H173   H     0.80777   0.52810   0.21822   0.00000  Uiso   1.00
H174   H     0.20103   0.80434   0.29940   0.00000  Uiso   1.00
H175   H     0.48380   0.89163   0.37672   0.00000  Uiso   1.00
O176   O     0.85267   0.75346   0.24965   0.00000  Uiso   1.00
O177   O     0.36860   0.80391   0.35616   0.00000  Uiso   1.00
O178   O     0.42761   0.91843   0.45760   0.00000  Uiso   1.00
N179   N     0.88934   0.62769   0.31011   0.00000  Uiso   1.00
N180   N     0.25703   0.95103   0.38600   0.00000  Uiso   1.00
N181   N     0.58649   0.03261   0.45829   0.00000  Uiso   1.00
N182   N     0.83330   0.53736   0.24945   0.00000  Uiso   1.00
N183   N     0.20099   0.86071   0.32535   0.00000  Uiso   1.00
N184   N     0.53045   0.94229   0.39764   0.00000  Uiso   1.00
