data_job_03393
_audit_creation_date              2018-12-19
_audit_creation_method            'Materials Studio'
_symmetry_space_group_name_H-M    'P1'
_symmetry_Int_Tables_number       1
_symmetry_cell_setting            triclinic
loop_
_symmetry_equiv_pos_as_xyz
  x,y,z
_cell_length_a                    25.8844
_cell_length_b                    12.4012
_cell_length_c                    13.0805
_cell_angle_alpha                 90.0000
_cell_angle_beta                  119.3380
_cell_angle_gamma                 90.0000
loop_
_atom_site_label
_atom_site_type_symbol
_atom_site_fract_x
_atom_site_fract_y
_atom_site_fract_z
_atom_site_U_iso_or_equiv
_atom_site_adp_type
_atom_site_occupancy
C1     C     0.20742   0.56790   0.25593   0.00000  Uiso   1.00
C2     C     0.17970   0.67948   0.21840   0.00000  Uiso   1.00
C3     C     0.16245   0.74583   0.28177   0.00000  Uiso   1.00
C4     C     0.13796   0.84490   0.23237   0.00000  Uiso   1.00
C5     C     0.09594   0.01334   0.19063   0.00000  Uiso   1.00
C6     C     0.16773   0.49141   0.15708   0.00000  Uiso   1.00
C7     C     0.14043   0.39962   0.16891   0.00000  Uiso   1.00
C8     C     0.10587   0.34037   0.06789   0.00000  Uiso   1.00
C9     C     0.04531   0.21678   0.93097   0.00000  Uiso   1.00
C10    C     0.26604   0.57255   0.25495   0.00000  Uiso   1.00
C11    C     0.32141   0.54894   0.34906   0.00000  Uiso   1.00
C12    C     0.36963   0.55798   0.33043   0.00000  Uiso   1.00
C13    C     0.46172   0.56037   0.34546   0.00000  Uiso   1.00
C14    C     0.19460   0.62588   0.05551   0.00000  Uiso   1.00
C15    C     0.17273   0.71097   0.10954   0.00000  Uiso   1.00
C16    C     0.14827   0.80998   0.06003   0.00000  Uiso   1.00
C17    C     0.13099   0.87646   0.12332   0.00000  Uiso   1.00
C18    C     0.16076   0.52290   0.04822   0.00000  Uiso   1.00
C19    C     0.12624   0.46377   0.94717   0.00000  Uiso   1.00
C20    C     0.09890   0.37192   0.95883   0.00000  Uiso   1.00
C21    C     0.25908   0.60404   0.14609   0.00000  Uiso   1.00
C22    C     0.30723   0.61310   0.12731   0.00000  Uiso   1.00
C23    C     0.36266   0.58953   0.22137   0.00000  Uiso   1.00
H24    H     0.21284   0.54338   0.34068   0.00000  Uiso   1.00
H25    H     0.16784   0.72142   0.36601   0.00000  Uiso   1.00
H26    H     0.14583   0.37526   0.25317   0.00000  Uiso   1.00
H27    H     0.32678   0.52458   0.43328   0.00000  Uiso   1.00
H28    H     0.11486   0.93268   0.34607   0.00000  Uiso   1.00
H29    H     0.06847   0.20278   0.10814   0.00000  Uiso   1.00
H30    H     0.45004   0.51762   0.48795   0.00000  Uiso   1.00
H31    H     0.18918   0.65040   0.97075   0.00000  Uiso   1.00
H32    H     0.14288   0.83433   0.97578   0.00000  Uiso   1.00
H33    H     0.12087   0.48816   0.86294   0.00000  Uiso   1.00
H34    H     0.30182   0.63748   0.04305   0.00000  Uiso   1.00
H35    H     0.09460   0.02432   0.02934   0.00000  Uiso   1.00
H36    H     0.04821   0.29440   0.79141   0.00000  Uiso   1.00
H37    H     0.42978   0.60926   0.17122   0.00000  Uiso   1.00
O38    O     0.07468   0.09754   0.19767   0.00000  Uiso   1.00
O39    O     0.01383   0.13992   0.88552   0.00000  Uiso   1.00
O40    O     0.51444   0.55300   0.38383   0.00000  Uiso   1.00
N41    N     0.11646   0.92902   0.27085   0.00000  Uiso   1.00
N42    N     0.07307   0.24661   0.04839   0.00000  Uiso   1.00
N43    N     0.42981   0.54093   0.40348   0.00000  Uiso   1.00
N44    N     0.10556   0.97833   0.10042   0.00000  Uiso   1.00
N45    N     0.06217   0.29592   0.87796   0.00000  Uiso   1.00
N46    N     0.41891   0.59024   0.23305   0.00000  Uiso   1.00
C47    C     0.79258   0.56790   0.24407   0.00000  Uiso   1.00
C48    C     0.82030   0.67948   0.28160   0.00000  Uiso   1.00
C49    C     0.83755   0.74583   0.21823   0.00000  Uiso   1.00
C50    C     0.86204   0.84490   0.26763   0.00000  Uiso   1.00
C51    C     0.90406   0.01334   0.30937   0.00000  Uiso   1.00
C52    C     0.83227   0.49141   0.34292   0.00000  Uiso   1.00
C53    C     0.85957   0.39962   0.33109   0.00000  Uiso   1.00
C54    C     0.89413   0.34037   0.43211   0.00000  Uiso   1.00
C55    C     0.95469   0.21678   0.56903   0.00000  Uiso   1.00
C56    C     0.73396   0.57255   0.24505   0.00000  Uiso   1.00
C57    C     0.67859   0.54894   0.15094   0.00000  Uiso   1.00
C58    C     0.63037   0.55798   0.16957   0.00000  Uiso   1.00
C59    C     0.53828   0.56037   0.15454   0.00000  Uiso   1.00
C60    C     0.80540   0.62588   0.44449   0.00000  Uiso   1.00
C61    C     0.82727   0.71097   0.39046   0.00000  Uiso   1.00
C62    C     0.85173   0.80998   0.43997   0.00000  Uiso   1.00
C63    C     0.86901   0.87646   0.37668   0.00000  Uiso   1.00
C64    C     0.83924   0.52290   0.45178   0.00000  Uiso   1.00
C65    C     0.87376   0.46377   0.55283   0.00000  Uiso   1.00
C66    C     0.90110   0.37192   0.54117   0.00000  Uiso   1.00
C67    C     0.74092   0.60404   0.35391   0.00000  Uiso   1.00
C68    C     0.69277   0.61310   0.37269   0.00000  Uiso   1.00
C69    C     0.63734   0.58953   0.27863   0.00000  Uiso   1.00
H70    H     0.78716   0.54338   0.15932   0.00000  Uiso   1.00
H71    H     0.83216   0.72142   0.13399   0.00000  Uiso   1.00
H72    H     0.85417   0.37526   0.24683   0.00000  Uiso   1.00
H73    H     0.67322   0.52458   0.06672   0.00000  Uiso   1.00
H74    H     0.88514   0.93268   0.15393   0.00000  Uiso   1.00
H75    H     0.93153   0.20278   0.39186   0.00000  Uiso   1.00
H76    H     0.54996   0.51762   0.01205   0.00000  Uiso   1.00
H77    H     0.81082   0.65040   0.52925   0.00000  Uiso   1.00
H78    H     0.85712   0.83433   0.52422   0.00000  Uiso   1.00
H79    H     0.87913   0.48816   0.63706   0.00000  Uiso   1.00
H80    H     0.69818   0.63748   0.45695   0.00000  Uiso   1.00
H81    H     0.90540   0.02432   0.47066   0.00000  Uiso   1.00
H82    H     0.95179   0.29440   0.70859   0.00000  Uiso   1.00
H83    H     0.57022   0.60926   0.32878   0.00000  Uiso   1.00
O84    O     0.92532   0.09754   0.30233   0.00000  Uiso   1.00
O85    O     0.98617   0.13992   0.61448   0.00000  Uiso   1.00
O86    O     0.48556   0.55300   0.11617   0.00000  Uiso   1.00
N87    N     0.88354   0.92902   0.22915   0.00000  Uiso   1.00
N88    N     0.92693   0.24661   0.45161   0.00000  Uiso   1.00
N89    N     0.57019   0.54093   0.09652   0.00000  Uiso   1.00
N90    N     0.89444   0.97833   0.39958   0.00000  Uiso   1.00
N91    N     0.93783   0.29592   0.62204   0.00000  Uiso   1.00
N92    N     0.58109   0.59024   0.26695   0.00000  Uiso   1.00
C93    C     0.79258   0.43210   0.74407   0.00000  Uiso   1.00
C94    C     0.82030   0.32052   0.78160   0.00000  Uiso   1.00
C95    C     0.83755   0.25417   0.71823   0.00000  Uiso   1.00
C96    C     0.86204   0.15510   0.76763   0.00000  Uiso   1.00
C97    C     0.90406   0.98666   0.80937   0.00000  Uiso   1.00
C98    C     0.83227   0.50859   0.84292   0.00000  Uiso   1.00
C99    C     0.85957   0.60038   0.83109   0.00000  Uiso   1.00
C100   C     0.89413   0.65963   0.93211   0.00000  Uiso   1.00
C101   C     0.95469   0.78322   0.06903   0.00000  Uiso   1.00
C102   C     0.73396   0.42745   0.74505   0.00000  Uiso   1.00
C103   C     0.67859   0.45106   0.65094   0.00000  Uiso   1.00
C104   C     0.63037   0.44202   0.66957   0.00000  Uiso   1.00
C105   C     0.53828   0.43963   0.65454   0.00000  Uiso   1.00
C106   C     0.80540   0.37412   0.94449   0.00000  Uiso   1.00
C107   C     0.82727   0.28903   0.89046   0.00000  Uiso   1.00
C108   C     0.85173   0.19002   0.93997   0.00000  Uiso   1.00
C109   C     0.86901   0.12354   0.87668   0.00000  Uiso   1.00
C110   C     0.83924   0.47710   0.95178   0.00000  Uiso   1.00
C111   C     0.87376   0.53623   0.05283   0.00000  Uiso   1.00
C112   C     0.90110   0.62808   0.04117   0.00000  Uiso   1.00
C113   C     0.74092   0.39596   0.85391   0.00000  Uiso   1.00
C114   C     0.69277   0.38690   0.87269   0.00000  Uiso   1.00
C115   C     0.63734   0.41047   0.77863   0.00000  Uiso   1.00
H116   H     0.78716   0.45662   0.65932   0.00000  Uiso   1.00
H117   H     0.83216   0.27858   0.63399   0.00000  Uiso   1.00
H118   H     0.85417   0.62474   0.74683   0.00000  Uiso   1.00
H119   H     0.67322   0.47542   0.56672   0.00000  Uiso   1.00
H120   H     0.88514   0.06732   0.65393   0.00000  Uiso   1.00
H121   H     0.93153   0.79722   0.89186   0.00000  Uiso   1.00
H122   H     0.54996   0.48238   0.51205   0.00000  Uiso   1.00
H123   H     0.81082   0.34960   0.02925   0.00000  Uiso   1.00
H124   H     0.85712   0.16567   0.02422   0.00000  Uiso   1.00
H125   H     0.87913   0.51184   0.13706   0.00000  Uiso   1.00
H126   H     0.69818   0.36252   0.95695   0.00000  Uiso   1.00
H127   H     0.90540   0.97568   0.97066   0.00000  Uiso   1.00
H128   H     0.95179   0.70560   0.20859   0.00000  Uiso   1.00
H129   H     0.57022   0.39074   0.82878   0.00000  Uiso   1.00
O130   O     0.92532   0.90246   0.80233   0.00000  Uiso   1.00
O131   O     0.98617   0.86008   0.11448   0.00000  Uiso   1.00
O132   O     0.48556   0.44700   0.61617   0.00000  Uiso   1.00
N133   N     0.88354   0.07098   0.72915   0.00000  Uiso   1.00
N134   N     0.92693   0.75339   0.95161   0.00000  Uiso   1.00
N135   N     0.57019   0.45907   0.59652   0.00000  Uiso   1.00
N136   N     0.89444   0.02167   0.89958   0.00000  Uiso   1.00
N137   N     0.93783   0.70408   0.12204   0.00000  Uiso   1.00
N138   N     0.58109   0.40976   0.76695   0.00000  Uiso   1.00
C139   C     0.20742   0.43210   0.75593   0.00000  Uiso   1.00
C140   C     0.17970   0.32052   0.71840   0.00000  Uiso   1.00
C141   C     0.16245   0.25417   0.78177   0.00000  Uiso   1.00
C142   C     0.13796   0.15510   0.73237   0.00000  Uiso   1.00
C143   C     0.09594   0.98666   0.69063   0.00000  Uiso   1.00
C144   C     0.16773   0.50859   0.65708   0.00000  Uiso   1.00
C145   C     0.14043   0.60038   0.66891   0.00000  Uiso   1.00
C146   C     0.10587   0.65963   0.56789   0.00000  Uiso   1.00
C147   C     0.04531   0.78322   0.43097   0.00000  Uiso   1.00
C148   C     0.26604   0.42745   0.75495   0.00000  Uiso   1.00
C149   C     0.32141   0.45106   0.84906   0.00000  Uiso   1.00
C150   C     0.36963   0.44202   0.83043   0.00000  Uiso   1.00
C151   C     0.46172   0.43963   0.84546   0.00000  Uiso   1.00
C152   C     0.19460   0.37412   0.55551   0.00000  Uiso   1.00
C153   C     0.17273   0.28903   0.60954   0.00000  Uiso   1.00
C154   C     0.14827   0.19002   0.56003   0.00000  Uiso   1.00
C155   C     0.13099   0.12354   0.62332   0.00000  Uiso   1.00
C156   C     0.16076   0.47710   0.54822   0.00000  Uiso   1.00
C157   C     0.12624   0.53623   0.44717   0.00000  Uiso   1.00
C158   C     0.09890   0.62808   0.45883   0.00000  Uiso   1.00
C159   C     0.25908   0.39596   0.64609   0.00000  Uiso   1.00
C160   C     0.30723   0.38690   0.62731   0.00000  Uiso   1.00
C161   C     0.36266   0.41047   0.72137   0.00000  Uiso   1.00
H162   H     0.21284   0.45662   0.84068   0.00000  Uiso   1.00
H163   H     0.16784   0.27858   0.86601   0.00000  Uiso   1.00
H164   H     0.14583   0.62474   0.75317   0.00000  Uiso   1.00
H165   H     0.32678   0.47542   0.93328   0.00000  Uiso   1.00
H166   H     0.11486   0.06732   0.84607   0.00000  Uiso   1.00
H167   H     0.06847   0.79722   0.60814   0.00000  Uiso   1.00
H168   H     0.45004   0.48238   0.98795   0.00000  Uiso   1.00
H169   H     0.18918   0.34960   0.47075   0.00000  Uiso   1.00
H170   H     0.14288   0.16567   0.47578   0.00000  Uiso   1.00
H171   H     0.12087   0.51184   0.36294   0.00000  Uiso   1.00
H172   H     0.30182   0.36252   0.54305   0.00000  Uiso   1.00
H173   H     0.09460   0.97568   0.52934   0.00000  Uiso   1.00
H174   H     0.04821   0.70560   0.29141   0.00000  Uiso   1.00
H175   H     0.42978   0.39074   0.67122   0.00000  Uiso   1.00
O176   O     0.07468   0.90246   0.69767   0.00000  Uiso   1.00
O177   O     0.01383   0.86008   0.38552   0.00000  Uiso   1.00
O178   O     0.51444   0.44700   0.88383   0.00000  Uiso   1.00
N179   N     0.11646   0.07098   0.77085   0.00000  Uiso   1.00
N180   N     0.07307   0.75339   0.54839   0.00000  Uiso   1.00
N181   N     0.42981   0.45907   0.90348   0.00000  Uiso   1.00
N182   N     0.10556   0.02167   0.60042   0.00000  Uiso   1.00
N183   N     0.06217   0.70408   0.37796   0.00000  Uiso   1.00
N184   N     0.41891   0.40976   0.73305   0.00000  Uiso   1.00
