data_job_01807
_audit_creation_date              2018-12-19
_audit_creation_method            'Materials Studio'
_symmetry_space_group_name_H-M    'P1'
_symmetry_Int_Tables_number       1
_symmetry_cell_setting            triclinic
loop_
_symmetry_equiv_pos_as_xyz
  x,y,z
_cell_length_a                    17.3553
_cell_length_b                    12.4265
_cell_length_c                    24.2159
_cell_angle_alpha                 90.0000
_cell_angle_beta                  90.0000
_cell_angle_gamma                 90.0000
loop_
_atom_site_label
_atom_site_type_symbol
_atom_site_fract_x
_atom_site_fract_y
_atom_site_fract_z
_atom_site_U_iso_or_equiv
_atom_site_adp_type
_atom_site_occupancy
C1     C     0.04567   0.74332   0.06943   0.00000  Uiso   1.00
C2     C     0.08003   0.85367   0.08178   0.00000  Uiso   1.00
C3     C     0.11880   0.91857   0.04432   0.00000  Uiso   1.00
C4     C     0.14589   0.01669   0.06369   0.00000  Uiso   1.00
C5     C     0.20100   0.18315   0.07452   0.00000  Uiso   1.00
C6     C     0.08204   0.66596   0.11079   0.00000  Uiso   1.00
C7     C     0.12248   0.57303   0.09772   0.00000  Uiso   1.00
C8     C     0.15125   0.51313   0.14150   0.00000  Uiso   1.00
C9     C     0.20942   0.38813   0.19738   0.00000  Uiso   1.00
C10    C     0.96068   0.75064   0.08495   0.00000  Uiso   1.00
C11    C     0.89907   0.72889   0.05015   0.00000  Uiso   1.00
C12    C     0.82566   0.74026   0.07219   0.00000  Uiso   1.00
C13    C     0.69541   0.74673   0.08794   0.00000  Uiso   1.00
C14    C     0.02485   0.80215   0.17044   0.00000  Uiso   1.00
C15    C     0.06872   0.88562   0.13664   0.00000  Uiso   1.00
C16    C     0.09576   0.98367   0.15607   0.00000  Uiso   1.00
C17    C     0.13456   0.04871   0.11865   0.00000  Uiso   1.00
C18    C     0.07073   0.69791   0.16565   0.00000  Uiso   1.00
C19    C     0.09944   0.63813   0.20947   0.00000  Uiso   1.00
C20    C     0.13992   0.54515   0.19647   0.00000  Uiso   1.00
C21    C     0.94937   0.78260   0.13981   0.00000  Uiso   1.00
C22    C     0.87604   0.79399   0.16190   0.00000  Uiso   1.00
C23    C     0.81434   0.77227   0.12715   0.00000  Uiso   1.00
H24    H     0.05448   0.71843   0.02672   0.00000  Uiso   1.00
H25    H     0.12754   0.89381   0.00187   0.00000  Uiso   1.00
H26    H     0.13121   0.54832   0.05526   0.00000  Uiso   1.00
H27    H     0.90785   0.70416   0.00770   0.00000  Uiso   1.00
H28    H     0.20359   0.10232   0.99851   0.00000  Uiso   1.00
H29    H     0.21131   0.37382   0.11109   0.00000  Uiso   1.00
H30    H     0.74029   0.70243   0.01081   0.00000  Uiso   1.00
H31    H     0.01604   0.82703   0.21315   0.00000  Uiso   1.00
H32    H     0.08700   0.00838   0.19853   0.00000  Uiso   1.00
H33    H     0.09068   0.66289   0.25192   0.00000  Uiso   1.00
H34    H     0.86731   0.81872   0.20436   0.00000  Uiso   1.00
H35    H     0.17069   0.19531   0.15813   0.00000  Uiso   1.00
H36    H     0.17841   0.46680   0.27070   0.00000  Uiso   1.00
H37    H     0.70739   0.79542   0.17042   0.00000  Uiso   1.00
O38    O     0.23453   0.26613   0.06534   0.00000  Uiso   1.00
O39    O     0.24465   0.31036   0.21304   0.00000  Uiso   1.00
O40    O     0.62669   0.74149   0.08147   0.00000  Uiso   1.00
N41    N     0.18609   0.09933   0.03808   0.00000  Uiso   1.00
N42    N     0.19332   0.41823   0.14333   0.00000  Uiso   1.00
N43    N     0.75296   0.72543   0.04958   0.00000  Uiso   1.00
N44    N     0.16839   0.14937   0.12397   0.00000  Uiso   1.00
N45    N     0.17562   0.46827   0.22922   0.00000  Uiso   1.00
N46    N     0.73526   0.77546   0.13547   0.00000  Uiso   1.00
C47    C     0.45433   0.75668   0.56943   0.00000  Uiso   1.00
C48    C     0.41997   0.64633   0.58178   0.00000  Uiso   1.00
C49    C     0.38120   0.58143   0.54432   0.00000  Uiso   1.00
C50    C     0.35411   0.48331   0.56369   0.00000  Uiso   1.00
C51    C     0.29900   0.31685   0.57452   0.00000  Uiso   1.00
C52    C     0.41796   0.83404   0.61079   0.00000  Uiso   1.00
C53    C     0.37752   0.92697   0.59772   0.00000  Uiso   1.00
C54    C     0.34875   0.98687   0.64150   0.00000  Uiso   1.00
C55    C     0.29058   0.11187   0.69738   0.00000  Uiso   1.00
C56    C     0.53932   0.74936   0.58495   0.00000  Uiso   1.00
C57    C     0.60093   0.77111   0.55015   0.00000  Uiso   1.00
C58    C     0.67434   0.75974   0.57219   0.00000  Uiso   1.00
C59    C     0.80459   0.75327   0.58794   0.00000  Uiso   1.00
C60    C     0.47515   0.69785   0.67044   0.00000  Uiso   1.00
C61    C     0.43128   0.61438   0.63664   0.00000  Uiso   1.00
C62    C     0.40424   0.51633   0.65607   0.00000  Uiso   1.00
C63    C     0.36544   0.45129   0.61865   0.00000  Uiso   1.00
C64    C     0.42927   0.80209   0.66565   0.00000  Uiso   1.00
C65    C     0.40056   0.86187   0.70947   0.00000  Uiso   1.00
C66    C     0.36008   0.95485   0.69647   0.00000  Uiso   1.00
C67    C     0.55063   0.71740   0.63981   0.00000  Uiso   1.00
C68    C     0.62396   0.70601   0.66190   0.00000  Uiso   1.00
C69    C     0.68566   0.72773   0.62715   0.00000  Uiso   1.00
H70    H     0.44552   0.78157   0.52672   0.00000  Uiso   1.00
H71    H     0.37246   0.60619   0.50187   0.00000  Uiso   1.00
H72    H     0.36879   0.95168   0.55526   0.00000  Uiso   1.00
H73    H     0.59215   0.79584   0.50770   0.00000  Uiso   1.00
H74    H     0.29641   0.39768   0.49851   0.00000  Uiso   1.00
H75    H     0.28869   0.12618   0.61109   0.00000  Uiso   1.00
H76    H     0.75971   0.79757   0.51081   0.00000  Uiso   1.00
H77    H     0.48396   0.67297   0.71315   0.00000  Uiso   1.00
H78    H     0.41300   0.49162   0.69853   0.00000  Uiso   1.00
H79    H     0.40932   0.83711   0.75192   0.00000  Uiso   1.00
H80    H     0.63269   0.68128   0.70436   0.00000  Uiso   1.00
H81    H     0.32931   0.30469   0.65813   0.00000  Uiso   1.00
H82    H     0.32159   0.03320   0.77070   0.00000  Uiso   1.00
H83    H     0.79261   0.70458   0.67042   0.00000  Uiso   1.00
O84    O     0.26547   0.23387   0.56534   0.00000  Uiso   1.00
O85    O     0.25535   0.18964   0.71304   0.00000  Uiso   1.00
O86    O     0.87331   0.75851   0.58147   0.00000  Uiso   1.00
N87    N     0.31391   0.40067   0.53808   0.00000  Uiso   1.00
N88    N     0.30668   0.08177   0.64333   0.00000  Uiso   1.00
N89    N     0.74704   0.77457   0.54958   0.00000  Uiso   1.00
N90    N     0.33161   0.35063   0.62397   0.00000  Uiso   1.00
N91    N     0.32438   0.03173   0.72922   0.00000  Uiso   1.00
N92    N     0.76474   0.72454   0.63547   0.00000  Uiso   1.00
C93    C     0.95433   0.74332   0.43057   0.00000  Uiso   1.00
C94    C     0.91997   0.85367   0.41822   0.00000  Uiso   1.00
C95    C     0.88120   0.91857   0.45568   0.00000  Uiso   1.00
C96    C     0.85411   0.01669   0.43631   0.00000  Uiso   1.00
C97    C     0.79900   0.18315   0.42548   0.00000  Uiso   1.00
C98    C     0.91796   0.66596   0.38921   0.00000  Uiso   1.00
C99    C     0.87752   0.57303   0.40228   0.00000  Uiso   1.00
C100   C     0.84875   0.51313   0.35850   0.00000  Uiso   1.00
C101   C     0.79058   0.38813   0.30262   0.00000  Uiso   1.00
C102   C     0.03932   0.75064   0.41505   0.00000  Uiso   1.00
C103   C     0.10093   0.72889   0.44985   0.00000  Uiso   1.00
C104   C     0.17434   0.74026   0.42781   0.00000  Uiso   1.00
C105   C     0.30459   0.74673   0.41206   0.00000  Uiso   1.00
C106   C     0.97515   0.80215   0.32956   0.00000  Uiso   1.00
C107   C     0.93128   0.88562   0.36336   0.00000  Uiso   1.00
C108   C     0.90424   0.98367   0.34393   0.00000  Uiso   1.00
C109   C     0.86544   0.04871   0.38135   0.00000  Uiso   1.00
C110   C     0.92927   0.69791   0.33435   0.00000  Uiso   1.00
C111   C     0.90056   0.63813   0.29053   0.00000  Uiso   1.00
C112   C     0.86008   0.54515   0.30353   0.00000  Uiso   1.00
C113   C     0.05063   0.78260   0.36019   0.00000  Uiso   1.00
C114   C     0.12396   0.79399   0.33810   0.00000  Uiso   1.00
C115   C     0.18566   0.77227   0.37285   0.00000  Uiso   1.00
H116   H     0.94552   0.71843   0.47328   0.00000  Uiso   1.00
H117   H     0.87246   0.89381   0.49813   0.00000  Uiso   1.00
H118   H     0.86879   0.54832   0.44474   0.00000  Uiso   1.00
H119   H     0.09215   0.70416   0.49230   0.00000  Uiso   1.00
H120   H     0.79641   0.10232   0.50149   0.00000  Uiso   1.00
H121   H     0.78869   0.37382   0.38891   0.00000  Uiso   1.00
H122   H     0.25971   0.70243   0.48919   0.00000  Uiso   1.00
H123   H     0.98396   0.82703   0.28685   0.00000  Uiso   1.00
H124   H     0.91300   0.00838   0.30147   0.00000  Uiso   1.00
H125   H     0.90932   0.66289   0.24808   0.00000  Uiso   1.00
H126   H     0.13269   0.81872   0.29564   0.00000  Uiso   1.00
H127   H     0.82931   0.19531   0.34187   0.00000  Uiso   1.00
H128   H     0.82159   0.46680   0.22930   0.00000  Uiso   1.00
H129   H     0.29261   0.79542   0.32958   0.00000  Uiso   1.00
O130   O     0.76547   0.26613   0.43466   0.00000  Uiso   1.00
O131   O     0.75535   0.31036   0.28696   0.00000  Uiso   1.00
O132   O     0.37331   0.74149   0.41853   0.00000  Uiso   1.00
N133   N     0.81391   0.09933   0.46192   0.00000  Uiso   1.00
N134   N     0.80668   0.41823   0.35667   0.00000  Uiso   1.00
N135   N     0.24704   0.72543   0.45042   0.00000  Uiso   1.00
N136   N     0.83161   0.14937   0.37603   0.00000  Uiso   1.00
N137   N     0.82438   0.46827   0.27078   0.00000  Uiso   1.00
N138   N     0.26474   0.77546   0.36453   0.00000  Uiso   1.00
C139   C     0.54567   0.75668   0.93057   0.00000  Uiso   1.00
C140   C     0.58003   0.64633   0.91822   0.00000  Uiso   1.00
C141   C     0.61880   0.58143   0.95568   0.00000  Uiso   1.00
C142   C     0.64589   0.48331   0.93631   0.00000  Uiso   1.00
C143   C     0.70100   0.31685   0.92548   0.00000  Uiso   1.00
C144   C     0.58204   0.83404   0.88921   0.00000  Uiso   1.00
C145   C     0.62248   0.92697   0.90228   0.00000  Uiso   1.00
C146   C     0.65125   0.98687   0.85850   0.00000  Uiso   1.00
C147   C     0.70942   0.11187   0.80262   0.00000  Uiso   1.00
C148   C     0.46068   0.74936   0.91505   0.00000  Uiso   1.00
C149   C     0.39907   0.77111   0.94985   0.00000  Uiso   1.00
C150   C     0.32566   0.75974   0.92781   0.00000  Uiso   1.00
C151   C     0.19541   0.75327   0.91206   0.00000  Uiso   1.00
C152   C     0.52485   0.69785   0.82956   0.00000  Uiso   1.00
C153   C     0.56872   0.61438   0.86336   0.00000  Uiso   1.00
C154   C     0.59576   0.51633   0.84393   0.00000  Uiso   1.00
C155   C     0.63456   0.45129   0.88135   0.00000  Uiso   1.00
C156   C     0.57073   0.80209   0.83435   0.00000  Uiso   1.00
C157   C     0.59944   0.86187   0.79053   0.00000  Uiso   1.00
C158   C     0.63992   0.95485   0.80353   0.00000  Uiso   1.00
C159   C     0.44937   0.71740   0.86019   0.00000  Uiso   1.00
C160   C     0.37604   0.70601   0.83810   0.00000  Uiso   1.00
C161   C     0.31434   0.72773   0.87285   0.00000  Uiso   1.00
H162   H     0.55448   0.78157   0.97328   0.00000  Uiso   1.00
H163   H     0.62754   0.60619   0.99813   0.00000  Uiso   1.00
H164   H     0.63121   0.95168   0.94474   0.00000  Uiso   1.00
H165   H     0.40785   0.79584   0.99230   0.00000  Uiso   1.00
H166   H     0.70359   0.39768   0.00149   0.00000  Uiso   1.00
H167   H     0.71131   0.12618   0.88891   0.00000  Uiso   1.00
H168   H     0.24029   0.79757   0.98919   0.00000  Uiso   1.00
H169   H     0.51604   0.67297   0.78685   0.00000  Uiso   1.00
H170   H     0.58700   0.49162   0.80147   0.00000  Uiso   1.00
H171   H     0.59068   0.83711   0.74808   0.00000  Uiso   1.00
H172   H     0.36731   0.68128   0.79564   0.00000  Uiso   1.00
H173   H     0.67069   0.30469   0.84187   0.00000  Uiso   1.00
H174   H     0.67841   0.03320   0.72930   0.00000  Uiso   1.00
H175   H     0.20739   0.70458   0.82958   0.00000  Uiso   1.00
O176   O     0.73453   0.23387   0.93466   0.00000  Uiso   1.00
O177   O     0.74465   0.18964   0.78696   0.00000  Uiso   1.00
O178   O     0.12669   0.75851   0.91853   0.00000  Uiso   1.00
N179   N     0.68609   0.40067   0.96192   0.00000  Uiso   1.00
N180   N     0.69332   0.08177   0.85667   0.00000  Uiso   1.00
N181   N     0.25296   0.77457   0.95042   0.00000  Uiso   1.00
N182   N     0.66839   0.35063   0.87603   0.00000  Uiso   1.00
N183   N     0.67562   0.03173   0.77078   0.00000  Uiso   1.00
N184   N     0.23526   0.72454   0.86453   0.00000  Uiso   1.00
C185   C     0.95433   0.25668   0.93057   0.00000  Uiso   1.00
C186   C     0.91997   0.14633   0.91822   0.00000  Uiso   1.00
C187   C     0.88120   0.08143   0.95568   0.00000  Uiso   1.00
C188   C     0.85411   0.98331   0.93631   0.00000  Uiso   1.00
C189   C     0.79900   0.81685   0.92548   0.00000  Uiso   1.00
C190   C     0.91796   0.33404   0.88921   0.00000  Uiso   1.00
C191   C     0.87752   0.42697   0.90228   0.00000  Uiso   1.00
C192   C     0.84875   0.48687   0.85850   0.00000  Uiso   1.00
C193   C     0.79058   0.61187   0.80262   0.00000  Uiso   1.00
C194   C     0.03932   0.24936   0.91505   0.00000  Uiso   1.00
C195   C     0.10093   0.27111   0.94985   0.00000  Uiso   1.00
C196   C     0.17434   0.25974   0.92781   0.00000  Uiso   1.00
C197   C     0.30459   0.25327   0.91206   0.00000  Uiso   1.00
C198   C     0.97515   0.19785   0.82956   0.00000  Uiso   1.00
C199   C     0.93128   0.11438   0.86336   0.00000  Uiso   1.00
C200   C     0.90424   0.01633   0.84393   0.00000  Uiso   1.00
C201   C     0.86544   0.95129   0.88135   0.00000  Uiso   1.00
C202   C     0.92927   0.30209   0.83435   0.00000  Uiso   1.00
C203   C     0.90056   0.36187   0.79053   0.00000  Uiso   1.00
C204   C     0.86008   0.45485   0.80353   0.00000  Uiso   1.00
C205   C     0.05063   0.21740   0.86019   0.00000  Uiso   1.00
C206   C     0.12396   0.20601   0.83810   0.00000  Uiso   1.00
C207   C     0.18566   0.22773   0.87285   0.00000  Uiso   1.00
H208   H     0.94552   0.28157   0.97328   0.00000  Uiso   1.00
H209   H     0.87246   0.10619   0.99813   0.00000  Uiso   1.00
H210   H     0.86879   0.45168   0.94474   0.00000  Uiso   1.00
H211   H     0.09215   0.29584   0.99230   0.00000  Uiso   1.00
H212   H     0.79641   0.89768   0.00149   0.00000  Uiso   1.00
H213   H     0.78869   0.62618   0.88891   0.00000  Uiso   1.00
H214   H     0.25971   0.29757   0.98919   0.00000  Uiso   1.00
H215   H     0.98396   0.17297   0.78685   0.00000  Uiso   1.00
H216   H     0.91300   0.99162   0.80147   0.00000  Uiso   1.00
H217   H     0.90932   0.33711   0.74808   0.00000  Uiso   1.00
H218   H     0.13269   0.18128   0.79564   0.00000  Uiso   1.00
H219   H     0.82931   0.80469   0.84187   0.00000  Uiso   1.00
H220   H     0.82159   0.53320   0.72930   0.00000  Uiso   1.00
H221   H     0.29261   0.20458   0.82958   0.00000  Uiso   1.00
O222   O     0.76547   0.73387   0.93466   0.00000  Uiso   1.00
O223   O     0.75535   0.68964   0.78696   0.00000  Uiso   1.00
O224   O     0.37331   0.25851   0.91853   0.00000  Uiso   1.00
N225   N     0.81391   0.90067   0.96192   0.00000  Uiso   1.00
N226   N     0.80668   0.58177   0.85667   0.00000  Uiso   1.00
N227   N     0.24704   0.27457   0.95042   0.00000  Uiso   1.00
N228   N     0.83161   0.85063   0.87603   0.00000  Uiso   1.00
N229   N     0.82438   0.53173   0.77078   0.00000  Uiso   1.00
N230   N     0.26474   0.22454   0.86453   0.00000  Uiso   1.00
C231   C     0.54567   0.24332   0.43057   0.00000  Uiso   1.00
C232   C     0.58003   0.35367   0.41822   0.00000  Uiso   1.00
C233   C     0.61880   0.41857   0.45568   0.00000  Uiso   1.00
C234   C     0.64589   0.51669   0.43631   0.00000  Uiso   1.00
C235   C     0.70100   0.68315   0.42548   0.00000  Uiso   1.00
C236   C     0.58204   0.16596   0.38921   0.00000  Uiso   1.00
C237   C     0.62248   0.07303   0.40228   0.00000  Uiso   1.00
C238   C     0.65125   0.01313   0.35850   0.00000  Uiso   1.00
C239   C     0.70942   0.88813   0.30262   0.00000  Uiso   1.00
C240   C     0.46068   0.25064   0.41505   0.00000  Uiso   1.00
C241   C     0.39907   0.22889   0.44985   0.00000  Uiso   1.00
C242   C     0.32566   0.24026   0.42781   0.00000  Uiso   1.00
C243   C     0.19541   0.24673   0.41206   0.00000  Uiso   1.00
C244   C     0.52485   0.30215   0.32956   0.00000  Uiso   1.00
C245   C     0.56872   0.38562   0.36336   0.00000  Uiso   1.00
C246   C     0.59576   0.48367   0.34393   0.00000  Uiso   1.00
C247   C     0.63456   0.54871   0.38135   0.00000  Uiso   1.00
C248   C     0.57073   0.19791   0.33435   0.00000  Uiso   1.00
C249   C     0.59944   0.13813   0.29053   0.00000  Uiso   1.00
C250   C     0.63992   0.04515   0.30353   0.00000  Uiso   1.00
C251   C     0.44937   0.28260   0.36019   0.00000  Uiso   1.00
C252   C     0.37604   0.29399   0.33810   0.00000  Uiso   1.00
C253   C     0.31434   0.27227   0.37285   0.00000  Uiso   1.00
H254   H     0.55448   0.21843   0.47328   0.00000  Uiso   1.00
H255   H     0.62754   0.39381   0.49813   0.00000  Uiso   1.00
H256   H     0.63121   0.04832   0.44474   0.00000  Uiso   1.00
H257   H     0.40785   0.20416   0.49230   0.00000  Uiso   1.00
H258   H     0.70359   0.60232   0.50149   0.00000  Uiso   1.00
H259   H     0.71131   0.87382   0.38891   0.00000  Uiso   1.00
H260   H     0.24029   0.20243   0.48919   0.00000  Uiso   1.00
H261   H     0.51604   0.32703   0.28685   0.00000  Uiso   1.00
H262   H     0.58700   0.50838   0.30147   0.00000  Uiso   1.00
H263   H     0.59068   0.16289   0.24808   0.00000  Uiso   1.00
H264   H     0.36731   0.31872   0.29564   0.00000  Uiso   1.00
H265   H     0.67069   0.69531   0.34187   0.00000  Uiso   1.00
H266   H     0.67841   0.96680   0.22930   0.00000  Uiso   1.00
H267   H     0.20739   0.29542   0.32958   0.00000  Uiso   1.00
O268   O     0.73453   0.76613   0.43466   0.00000  Uiso   1.00
O269   O     0.74465   0.81036   0.28696   0.00000  Uiso   1.00
O270   O     0.12669   0.24149   0.41853   0.00000  Uiso   1.00
N271   N     0.68609   0.59933   0.46192   0.00000  Uiso   1.00
N272   N     0.69332   0.91823   0.35667   0.00000  Uiso   1.00
N273   N     0.25296   0.22543   0.45042   0.00000  Uiso   1.00
N274   N     0.66839   0.64937   0.37603   0.00000  Uiso   1.00
N275   N     0.67562   0.96827   0.27078   0.00000  Uiso   1.00
N276   N     0.23526   0.27546   0.36453   0.00000  Uiso   1.00
C277   C     0.04567   0.25668   0.56943   0.00000  Uiso   1.00
C278   C     0.08003   0.14633   0.58178   0.00000  Uiso   1.00
C279   C     0.11880   0.08143   0.54432   0.00000  Uiso   1.00
C280   C     0.14589   0.98331   0.56369   0.00000  Uiso   1.00
C281   C     0.20100   0.81685   0.57452   0.00000  Uiso   1.00
C282   C     0.08204   0.33404   0.61079   0.00000  Uiso   1.00
C283   C     0.12248   0.42697   0.59772   0.00000  Uiso   1.00
C284   C     0.15125   0.48687   0.64150   0.00000  Uiso   1.00
C285   C     0.20942   0.61187   0.69738   0.00000  Uiso   1.00
C286   C     0.96068   0.24936   0.58495   0.00000  Uiso   1.00
C287   C     0.89907   0.27111   0.55015   0.00000  Uiso   1.00
C288   C     0.82566   0.25974   0.57219   0.00000  Uiso   1.00
C289   C     0.69541   0.25327   0.58794   0.00000  Uiso   1.00
C290   C     0.02485   0.19785   0.67044   0.00000  Uiso   1.00
C291   C     0.06872   0.11438   0.63664   0.00000  Uiso   1.00
C292   C     0.09576   0.01633   0.65607   0.00000  Uiso   1.00
C293   C     0.13456   0.95129   0.61865   0.00000  Uiso   1.00
C294   C     0.07073   0.30209   0.66565   0.00000  Uiso   1.00
C295   C     0.09944   0.36187   0.70947   0.00000  Uiso   1.00
C296   C     0.13992   0.45485   0.69647   0.00000  Uiso   1.00
C297   C     0.94937   0.21740   0.63981   0.00000  Uiso   1.00
C298   C     0.87604   0.20601   0.66190   0.00000  Uiso   1.00
C299   C     0.81434   0.22773   0.62715   0.00000  Uiso   1.00
H300   H     0.05448   0.28157   0.52672   0.00000  Uiso   1.00
H301   H     0.12754   0.10619   0.50187   0.00000  Uiso   1.00
H302   H     0.13121   0.45168   0.55526   0.00000  Uiso   1.00
H303   H     0.90785   0.29584   0.50770   0.00000  Uiso   1.00
H304   H     0.20359   0.89768   0.49851   0.00000  Uiso   1.00
H305   H     0.21131   0.62618   0.61109   0.00000  Uiso   1.00
H306   H     0.74029   0.29757   0.51081   0.00000  Uiso   1.00
H307   H     0.01604   0.17297   0.71315   0.00000  Uiso   1.00
H308   H     0.08700   0.99162   0.69853   0.00000  Uiso   1.00
H309   H     0.09068   0.33711   0.75192   0.00000  Uiso   1.00
H310   H     0.86731   0.18128   0.70436   0.00000  Uiso   1.00
H311   H     0.17069   0.80469   0.65813   0.00000  Uiso   1.00
H312   H     0.17841   0.53320   0.77070   0.00000  Uiso   1.00
H313   H     0.70739   0.20458   0.67042   0.00000  Uiso   1.00
O314   O     0.23453   0.73387   0.56534   0.00000  Uiso   1.00
O315   O     0.24465   0.68964   0.71304   0.00000  Uiso   1.00
O316   O     0.62669   0.25851   0.58147   0.00000  Uiso   1.00
N317   N     0.18609   0.90067   0.53808   0.00000  Uiso   1.00
N318   N     0.19332   0.58177   0.64333   0.00000  Uiso   1.00
N319   N     0.75296   0.27457   0.54958   0.00000  Uiso   1.00
N320   N     0.16839   0.85063   0.62397   0.00000  Uiso   1.00
N321   N     0.17562   0.53173   0.72922   0.00000  Uiso   1.00
N322   N     0.73526   0.22454   0.63547   0.00000  Uiso   1.00
C323   C     0.45433   0.24332   0.06943   0.00000  Uiso   1.00
C324   C     0.41997   0.35367   0.08178   0.00000  Uiso   1.00
C325   C     0.38120   0.41857   0.04432   0.00000  Uiso   1.00
C326   C     0.35411   0.51669   0.06369   0.00000  Uiso   1.00
C327   C     0.29900   0.68315   0.07452   0.00000  Uiso   1.00
C328   C     0.41796   0.16596   0.11079   0.00000  Uiso   1.00
C329   C     0.37752   0.07303   0.09772   0.00000  Uiso   1.00
C330   C     0.34875   0.01313   0.14150   0.00000  Uiso   1.00
C331   C     0.29058   0.88813   0.19738   0.00000  Uiso   1.00
C332   C     0.53932   0.25064   0.08495   0.00000  Uiso   1.00
C333   C     0.60093   0.22889   0.05015   0.00000  Uiso   1.00
C334   C     0.67434   0.24026   0.07219   0.00000  Uiso   1.00
C335   C     0.80459   0.24673   0.08794   0.00000  Uiso   1.00
C336   C     0.47515   0.30215   0.17044   0.00000  Uiso   1.00
C337   C     0.43128   0.38562   0.13664   0.00000  Uiso   1.00
C338   C     0.40424   0.48367   0.15607   0.00000  Uiso   1.00
C339   C     0.36544   0.54871   0.11865   0.00000  Uiso   1.00
C340   C     0.42927   0.19791   0.16565   0.00000  Uiso   1.00
C341   C     0.40056   0.13813   0.20947   0.00000  Uiso   1.00
C342   C     0.36008   0.04515   0.19647   0.00000  Uiso   1.00
C343   C     0.55063   0.28260   0.13981   0.00000  Uiso   1.00
C344   C     0.62396   0.29399   0.16190   0.00000  Uiso   1.00
C345   C     0.68566   0.27227   0.12715   0.00000  Uiso   1.00
H346   H     0.44552   0.21843   0.02672   0.00000  Uiso   1.00
H347   H     0.37246   0.39381   0.00187   0.00000  Uiso   1.00
H348   H     0.36879   0.04832   0.05526   0.00000  Uiso   1.00
H349   H     0.59215   0.20416   0.00770   0.00000  Uiso   1.00
H350   H     0.29641   0.60232   0.99851   0.00000  Uiso   1.00
H351   H     0.28869   0.87382   0.11109   0.00000  Uiso   1.00
H352   H     0.75971   0.20243   0.01081   0.00000  Uiso   1.00
H353   H     0.48396   0.32703   0.21315   0.00000  Uiso   1.00
H354   H     0.41300   0.50838   0.19853   0.00000  Uiso   1.00
H355   H     0.40932   0.16289   0.25192   0.00000  Uiso   1.00
H356   H     0.63269   0.31872   0.20436   0.00000  Uiso   1.00
H357   H     0.32931   0.69531   0.15813   0.00000  Uiso   1.00
H358   H     0.32159   0.96680   0.27070   0.00000  Uiso   1.00
H359   H     0.79261   0.29542   0.17042   0.00000  Uiso   1.00
O360   O     0.26547   0.76613   0.06534   0.00000  Uiso   1.00
O361   O     0.25535   0.81036   0.21304   0.00000  Uiso   1.00
O362   O     0.87331   0.24149   0.08147   0.00000  Uiso   1.00
N363   N     0.31391   0.59933   0.03808   0.00000  Uiso   1.00
N364   N     0.30668   0.91823   0.14333   0.00000  Uiso   1.00
N365   N     0.74704   0.22543   0.04958   0.00000  Uiso   1.00
N366   N     0.33161   0.64937   0.12397   0.00000  Uiso   1.00
N367   N     0.32438   0.96827   0.22922   0.00000  Uiso   1.00
N368   N     0.76474   0.27546   0.13547   0.00000  Uiso   1.00
