data_job_02032
_audit_creation_date              2018-12-19
_audit_creation_method            'Materials Studio'
_symmetry_space_group_name_H-M    'P1'
_symmetry_Int_Tables_number       1
_symmetry_cell_setting            triclinic
loop_
_symmetry_equiv_pos_as_xyz
  x,y,z
_cell_length_a                    40.3362
_cell_length_b                    12.7192
_cell_length_c                    12.2080
_cell_angle_alpha                 90.0000
_cell_angle_beta                  74.4014
_cell_angle_gamma                 90.0000
loop_
_atom_site_label
_atom_site_type_symbol
_atom_site_fract_x
_atom_site_fract_y
_atom_site_fract_z
_atom_site_U_iso_or_equiv
_atom_site_adp_type
_atom_site_occupancy
C1     C     0.34342   0.14618   0.44077   0.00000  Uiso   1.00
C2     C     0.31278   0.07139   0.47246   0.00000  Uiso   1.00
C3     C     0.28662   0.07350   0.57308   0.00000  Uiso   1.00
C4     C     0.26090   0.99834   0.58590   0.00000  Uiso   1.00
C5     C     0.21325   0.89351   0.64802   0.00000  Uiso   1.00
C6     C     0.37546   0.07695   0.41486   0.00000  Uiso   1.00
C7     C     0.40200   0.08374   0.46705   0.00000  Uiso   1.00
C8     C     0.42904   0.01326   0.43136   0.00000  Uiso   1.00
C9     C     0.47872   0.91711   0.40402   0.00000  Uiso   1.00
C10    C     0.34261   0.19616   0.32799   0.00000  Uiso   1.00
C11    C     0.34154   0.30319   0.30710   0.00000  Uiso   1.00
C12    C     0.34094   0.33308   0.19827   0.00000  Uiso   1.00
C13    C     0.33962   0.42203   0.03603   0.00000  Uiso   1.00
C14    C     0.34426   0.00895   0.28461   0.00000  Uiso   1.00
C15    C     0.31324   0.99685   0.38764   0.00000  Uiso   1.00
C16    C     0.28755   0.92166   0.40031   0.00000  Uiso   1.00
C17    C     0.26135   0.92366   0.50092   0.00000  Uiso   1.00
C18    C     0.37592   0.00241   0.33005   0.00000  Uiso   1.00
C19    C     0.40293   0.93191   0.29428   0.00000  Uiso   1.00
C20    C     0.42950   0.93859   0.34639   0.00000  Uiso   1.00
C21    C     0.34307   0.12162   0.24317   0.00000  Uiso   1.00
C22    C     0.34247   0.15135   0.13434   0.00000  Uiso   1.00
C23    C     0.34140   0.25841   0.11330   0.00000  Uiso   1.00
H24    H     0.34307   0.20422   0.50681   0.00000  Uiso   1.00
H25    H     0.28628   0.13120   0.63870   0.00000  Uiso   1.00
H26    H     0.40164   0.14144   0.53267   0.00000  Uiso   1.00
H27    H     0.34119   0.36085   0.37276   0.00000  Uiso   1.00
H28    H     0.22352   0.01734   0.74754   0.00000  Uiso   1.00
H29    H     0.46677   0.03897   0.52395   0.00000  Uiso   1.00
H30    H     0.33931   0.50165   0.18674   0.00000  Uiso   1.00
H31    H     0.34462   0.95091   0.21858   0.00000  Uiso   1.00
H32    H     0.28791   0.86399   0.33465   0.00000  Uiso   1.00
H33    H     0.40327   0.87424   0.22863   0.00000  Uiso   1.00
H34    H     0.34282   0.09365   0.06872   0.00000  Uiso   1.00
H35    H     0.22484   0.80046   0.50077   0.00000  Uiso   1.00
H36    H     0.46810   0.82210   0.27718   0.00000  Uiso   1.00
H37    H     0.34063   0.28477   0.93997   0.00000  Uiso   1.00
O38    O     0.18685   0.85627   0.70573   0.00000  Uiso   1.00
O39    O     0.50600   0.88467   0.41238   0.00000  Uiso   1.00
O40    O     0.33876   0.49168   0.96997   0.00000  Uiso   1.00
N41    N     0.23161   0.97824   0.67352   0.00000  Uiso   1.00
N42    N     0.45904   0.99845   0.46449   0.00000  Uiso   1.00
N43    N     0.33988   0.43102   0.14923   0.00000  Uiso   1.00
N44    N     0.23232   0.86154   0.54074   0.00000  Uiso   1.00
N45    N     0.45975   0.88175   0.33171   0.00000  Uiso   1.00
N46    N     0.34059   0.31432   0.01644   0.00000  Uiso   1.00
C47    C     0.84342   0.64618   0.44077   0.00000  Uiso   1.00
C48    C     0.81278   0.57139   0.47246   0.00000  Uiso   1.00
C49    C     0.78662   0.57350   0.57308   0.00000  Uiso   1.00
C50    C     0.76090   0.49834   0.58590   0.00000  Uiso   1.00
C51    C     0.71325   0.39351   0.64802   0.00000  Uiso   1.00
C52    C     0.87546   0.57695   0.41486   0.00000  Uiso   1.00
C53    C     0.90200   0.58374   0.46705   0.00000  Uiso   1.00
C54    C     0.92904   0.51326   0.43136   0.00000  Uiso   1.00
C55    C     0.97872   0.41711   0.40402   0.00000  Uiso   1.00
C56    C     0.84261   0.69616   0.32799   0.00000  Uiso   1.00
C57    C     0.84154   0.80319   0.30710   0.00000  Uiso   1.00
C58    C     0.84094   0.83308   0.19827   0.00000  Uiso   1.00
C59    C     0.83962   0.92203   0.03603   0.00000  Uiso   1.00
C60    C     0.84426   0.50895   0.28461   0.00000  Uiso   1.00
C61    C     0.81324   0.49685   0.38764   0.00000  Uiso   1.00
C62    C     0.78755   0.42166   0.40031   0.00000  Uiso   1.00
C63    C     0.76135   0.42366   0.50092   0.00000  Uiso   1.00
C64    C     0.87592   0.50241   0.33005   0.00000  Uiso   1.00
C65    C     0.90293   0.43191   0.29428   0.00000  Uiso   1.00
C66    C     0.92950   0.43859   0.34639   0.00000  Uiso   1.00
C67    C     0.84307   0.62162   0.24317   0.00000  Uiso   1.00
C68    C     0.84247   0.65135   0.13434   0.00000  Uiso   1.00
C69    C     0.84140   0.75841   0.11330   0.00000  Uiso   1.00
H70    H     0.84307   0.70422   0.50681   0.00000  Uiso   1.00
H71    H     0.78628   0.63120   0.63870   0.00000  Uiso   1.00
H72    H     0.90164   0.64144   0.53267   0.00000  Uiso   1.00
H73    H     0.84119   0.86085   0.37276   0.00000  Uiso   1.00
H74    H     0.72352   0.51734   0.74754   0.00000  Uiso   1.00
H75    H     0.96677   0.53897   0.52395   0.00000  Uiso   1.00
H76    H     0.83931   0.00165   0.18674   0.00000  Uiso   1.00
H77    H     0.84462   0.45091   0.21858   0.00000  Uiso   1.00
H78    H     0.78791   0.36399   0.33465   0.00000  Uiso   1.00
H79    H     0.90327   0.37424   0.22863   0.00000  Uiso   1.00
H80    H     0.84282   0.59365   0.06872   0.00000  Uiso   1.00
H81    H     0.72484   0.30046   0.50077   0.00000  Uiso   1.00
H82    H     0.96810   0.32210   0.27718   0.00000  Uiso   1.00
H83    H     0.84063   0.78477   0.93997   0.00000  Uiso   1.00
O84    O     0.68685   0.35627   0.70573   0.00000  Uiso   1.00
O85    O     0.00600   0.38467   0.41238   0.00000  Uiso   1.00
O86    O     0.83876   0.99168   0.96997   0.00000  Uiso   1.00
N87    N     0.73161   0.47824   0.67352   0.00000  Uiso   1.00
N88    N     0.95904   0.49845   0.46449   0.00000  Uiso   1.00
N89    N     0.83988   0.93102   0.14923   0.00000  Uiso   1.00
N90    N     0.73232   0.36154   0.54074   0.00000  Uiso   1.00
N91    N     0.95975   0.38175   0.33171   0.00000  Uiso   1.00
N92    N     0.84059   0.81432   0.01644   0.00000  Uiso   1.00
C93    C     0.65658   0.14618   0.05923   0.00000  Uiso   1.00
C94    C     0.68722   0.07139   0.02754   0.00000  Uiso   1.00
C95    C     0.71338   0.07350   0.92692   0.00000  Uiso   1.00
C96    C     0.73910   0.99834   0.91410   0.00000  Uiso   1.00
C97    C     0.78675   0.89351   0.85198   0.00000  Uiso   1.00
C98    C     0.62454   0.07695   0.08514   0.00000  Uiso   1.00
C99    C     0.59800   0.08374   0.03295   0.00000  Uiso   1.00
C100   C     0.57096   0.01326   0.06864   0.00000  Uiso   1.00
C101   C     0.52128   0.91711   0.09598   0.00000  Uiso   1.00
C102   C     0.65739   0.19616   0.17201   0.00000  Uiso   1.00
C103   C     0.65846   0.30319   0.19290   0.00000  Uiso   1.00
C104   C     0.65906   0.33308   0.30173   0.00000  Uiso   1.00
C105   C     0.66038   0.42203   0.46397   0.00000  Uiso   1.00
C106   C     0.65574   0.00895   0.21539   0.00000  Uiso   1.00
C107   C     0.68676   0.99685   0.11236   0.00000  Uiso   1.00
C108   C     0.71245   0.92166   0.09969   0.00000  Uiso   1.00
C109   C     0.73865   0.92366   0.99908   0.00000  Uiso   1.00
C110   C     0.62408   0.00241   0.16995   0.00000  Uiso   1.00
C111   C     0.59707   0.93191   0.20572   0.00000  Uiso   1.00
C112   C     0.57050   0.93859   0.15361   0.00000  Uiso   1.00
C113   C     0.65693   0.12162   0.25683   0.00000  Uiso   1.00
C114   C     0.65753   0.15135   0.36566   0.00000  Uiso   1.00
C115   C     0.65860   0.25841   0.38670   0.00000  Uiso   1.00
H116   H     0.65693   0.20422   0.99319   0.00000  Uiso   1.00
H117   H     0.71372   0.13120   0.86130   0.00000  Uiso   1.00
H118   H     0.59836   0.14144   0.96733   0.00000  Uiso   1.00
H119   H     0.65881   0.36085   0.12724   0.00000  Uiso   1.00
H120   H     0.77648   0.01734   0.75246   0.00000  Uiso   1.00
H121   H     0.53323   0.03897   0.97605   0.00000  Uiso   1.00
H122   H     0.66069   0.50165   0.31326   0.00000  Uiso   1.00
H123   H     0.65538   0.95091   0.28142   0.00000  Uiso   1.00
H124   H     0.71209   0.86399   0.16535   0.00000  Uiso   1.00
H125   H     0.59673   0.87424   0.27137   0.00000  Uiso   1.00
H126   H     0.65718   0.09365   0.43128   0.00000  Uiso   1.00
H127   H     0.77516   0.80046   0.99923   0.00000  Uiso   1.00
H128   H     0.53190   0.82210   0.22282   0.00000  Uiso   1.00
H129   H     0.65937   0.28477   0.56003   0.00000  Uiso   1.00
O130   O     0.81315   0.85627   0.79427   0.00000  Uiso   1.00
O131   O     0.49400   0.88467   0.08762   0.00000  Uiso   1.00
O132   O     0.66124   0.49168   0.53003   0.00000  Uiso   1.00
N133   N     0.76839   0.97824   0.82648   0.00000  Uiso   1.00
N134   N     0.54096   0.99845   0.03551   0.00000  Uiso   1.00
N135   N     0.66012   0.43102   0.35077   0.00000  Uiso   1.00
N136   N     0.76768   0.86154   0.95926   0.00000  Uiso   1.00
N137   N     0.54025   0.88175   0.16829   0.00000  Uiso   1.00
N138   N     0.65941   0.31432   0.48356   0.00000  Uiso   1.00
C139   C     0.15658   0.64618   0.05923   0.00000  Uiso   1.00
C140   C     0.18722   0.57139   0.02754   0.00000  Uiso   1.00
C141   C     0.21338   0.57350   0.92692   0.00000  Uiso   1.00
C142   C     0.23910   0.49834   0.91410   0.00000  Uiso   1.00
C143   C     0.28675   0.39351   0.85198   0.00000  Uiso   1.00
C144   C     0.12454   0.57695   0.08514   0.00000  Uiso   1.00
C145   C     0.09800   0.58374   0.03295   0.00000  Uiso   1.00
C146   C     0.07096   0.51326   0.06864   0.00000  Uiso   1.00
C147   C     0.02128   0.41711   0.09598   0.00000  Uiso   1.00
C148   C     0.15739   0.69616   0.17201   0.00000  Uiso   1.00
C149   C     0.15846   0.80319   0.19290   0.00000  Uiso   1.00
C150   C     0.15906   0.83308   0.30173   0.00000  Uiso   1.00
C151   C     0.16038   0.92203   0.46397   0.00000  Uiso   1.00
C152   C     0.15574   0.50895   0.21539   0.00000  Uiso   1.00
C153   C     0.18676   0.49685   0.11236   0.00000  Uiso   1.00
C154   C     0.21245   0.42166   0.09969   0.00000  Uiso   1.00
C155   C     0.23865   0.42366   0.99908   0.00000  Uiso   1.00
C156   C     0.12408   0.50241   0.16995   0.00000  Uiso   1.00
C157   C     0.09707   0.43191   0.20572   0.00000  Uiso   1.00
C158   C     0.07050   0.43859   0.15361   0.00000  Uiso   1.00
C159   C     0.15693   0.62162   0.25683   0.00000  Uiso   1.00
C160   C     0.15753   0.65135   0.36566   0.00000  Uiso   1.00
C161   C     0.15860   0.75841   0.38670   0.00000  Uiso   1.00
H162   H     0.15693   0.70422   0.99319   0.00000  Uiso   1.00
H163   H     0.21372   0.63120   0.86130   0.00000  Uiso   1.00
H164   H     0.09836   0.64144   0.96733   0.00000  Uiso   1.00
H165   H     0.15881   0.86085   0.12724   0.00000  Uiso   1.00
H166   H     0.27648   0.51734   0.75246   0.00000  Uiso   1.00
H167   H     0.03323   0.53897   0.97605   0.00000  Uiso   1.00
H168   H     0.16069   0.00165   0.31326   0.00000  Uiso   1.00
H169   H     0.15538   0.45091   0.28142   0.00000  Uiso   1.00
H170   H     0.21209   0.36399   0.16535   0.00000  Uiso   1.00
H171   H     0.09673   0.37424   0.27137   0.00000  Uiso   1.00
H172   H     0.15718   0.59365   0.43128   0.00000  Uiso   1.00
H173   H     0.27516   0.30046   0.99923   0.00000  Uiso   1.00
H174   H     0.03190   0.32210   0.22282   0.00000  Uiso   1.00
H175   H     0.15937   0.78477   0.56003   0.00000  Uiso   1.00
O176   O     0.31315   0.35627   0.79427   0.00000  Uiso   1.00
O177   O     0.99400   0.38467   0.08762   0.00000  Uiso   1.00
O178   O     0.16124   0.99168   0.53003   0.00000  Uiso   1.00
N179   N     0.26839   0.47824   0.82648   0.00000  Uiso   1.00
N180   N     0.04096   0.49845   0.03551   0.00000  Uiso   1.00
N181   N     0.16012   0.93102   0.35077   0.00000  Uiso   1.00
N182   N     0.26768   0.36154   0.95926   0.00000  Uiso   1.00
N183   N     0.04025   0.38175   0.16829   0.00000  Uiso   1.00
N184   N     0.15941   0.81432   0.48356   0.00000  Uiso   1.00
C185   C     0.65658   0.85382   0.55923   0.00000  Uiso   1.00
C186   C     0.68722   0.92861   0.52754   0.00000  Uiso   1.00
C187   C     0.71338   0.92650   0.42692   0.00000  Uiso   1.00
C188   C     0.73910   0.00166   0.41410   0.00000  Uiso   1.00
C189   C     0.78675   0.10649   0.35198   0.00000  Uiso   1.00
C190   C     0.62454   0.92305   0.58514   0.00000  Uiso   1.00
C191   C     0.59800   0.91626   0.53295   0.00000  Uiso   1.00
C192   C     0.57096   0.98674   0.56864   0.00000  Uiso   1.00
C193   C     0.52128   0.08289   0.59598   0.00000  Uiso   1.00
C194   C     0.65739   0.80384   0.67201   0.00000  Uiso   1.00
C195   C     0.65846   0.69681   0.69290   0.00000  Uiso   1.00
C196   C     0.65906   0.66692   0.80173   0.00000  Uiso   1.00
C197   C     0.66038   0.57797   0.96397   0.00000  Uiso   1.00
C198   C     0.65574   0.99105   0.71539   0.00000  Uiso   1.00
C199   C     0.68676   0.00315   0.61236   0.00000  Uiso   1.00
C200   C     0.71245   0.07834   0.59969   0.00000  Uiso   1.00
C201   C     0.73865   0.07634   0.49908   0.00000  Uiso   1.00
C202   C     0.62408   0.99759   0.66995   0.00000  Uiso   1.00
C203   C     0.59707   0.06809   0.70572   0.00000  Uiso   1.00
C204   C     0.57050   0.06141   0.65361   0.00000  Uiso   1.00
C205   C     0.65693   0.87838   0.75683   0.00000  Uiso   1.00
C206   C     0.65753   0.84865   0.86566   0.00000  Uiso   1.00
C207   C     0.65860   0.74159   0.88670   0.00000  Uiso   1.00
H208   H     0.65693   0.79578   0.49319   0.00000  Uiso   1.00
H209   H     0.71372   0.86880   0.36130   0.00000  Uiso   1.00
H210   H     0.59836   0.85856   0.46733   0.00000  Uiso   1.00
H211   H     0.65881   0.63915   0.62724   0.00000  Uiso   1.00
H212   H     0.77648   0.98266   0.25246   0.00000  Uiso   1.00
H213   H     0.53323   0.96103   0.47605   0.00000  Uiso   1.00
H214   H     0.66069   0.49835   0.81326   0.00000  Uiso   1.00
H215   H     0.65538   0.04909   0.78142   0.00000  Uiso   1.00
H216   H     0.71209   0.13601   0.66535   0.00000  Uiso   1.00
H217   H     0.59673   0.12576   0.77137   0.00000  Uiso   1.00
H218   H     0.65718   0.90635   0.93128   0.00000  Uiso   1.00
H219   H     0.77516   0.19954   0.49923   0.00000  Uiso   1.00
H220   H     0.53190   0.17790   0.72282   0.00000  Uiso   1.00
H221   H     0.65937   0.71523   0.06003   0.00000  Uiso   1.00
O222   O     0.81315   0.14373   0.29427   0.00000  Uiso   1.00
O223   O     0.49400   0.11533   0.58762   0.00000  Uiso   1.00
O224   O     0.66124   0.50832   0.03003   0.00000  Uiso   1.00
N225   N     0.76839   0.02176   0.32648   0.00000  Uiso   1.00
N226   N     0.54096   0.00155   0.53551   0.00000  Uiso   1.00
N227   N     0.66012   0.56898   0.85077   0.00000  Uiso   1.00
N228   N     0.76768   0.13846   0.45926   0.00000  Uiso   1.00
N229   N     0.54025   0.11825   0.66829   0.00000  Uiso   1.00
N230   N     0.65941   0.68568   0.98356   0.00000  Uiso   1.00
C231   C     0.15658   0.35382   0.55923   0.00000  Uiso   1.00
C232   C     0.18722   0.42861   0.52754   0.00000  Uiso   1.00
C233   C     0.21338   0.42650   0.42692   0.00000  Uiso   1.00
C234   C     0.23910   0.50166   0.41410   0.00000  Uiso   1.00
C235   C     0.28675   0.60649   0.35198   0.00000  Uiso   1.00
C236   C     0.12454   0.42305   0.58514   0.00000  Uiso   1.00
C237   C     0.09800   0.41626   0.53295   0.00000  Uiso   1.00
C238   C     0.07096   0.48674   0.56864   0.00000  Uiso   1.00
C239   C     0.02128   0.58289   0.59598   0.00000  Uiso   1.00
C240   C     0.15739   0.30384   0.67201   0.00000  Uiso   1.00
C241   C     0.15846   0.19681   0.69290   0.00000  Uiso   1.00
C242   C     0.15906   0.16692   0.80173   0.00000  Uiso   1.00
C243   C     0.16038   0.07797   0.96397   0.00000  Uiso   1.00
C244   C     0.15574   0.49105   0.71539   0.00000  Uiso   1.00
C245   C     0.18676   0.50315   0.61236   0.00000  Uiso   1.00
C246   C     0.21245   0.57834   0.59969   0.00000  Uiso   1.00
C247   C     0.23865   0.57634   0.49908   0.00000  Uiso   1.00
C248   C     0.12408   0.49759   0.66995   0.00000  Uiso   1.00
C249   C     0.09707   0.56809   0.70572   0.00000  Uiso   1.00
C250   C     0.07050   0.56141   0.65361   0.00000  Uiso   1.00
C251   C     0.15693   0.37838   0.75683   0.00000  Uiso   1.00
C252   C     0.15753   0.34865   0.86566   0.00000  Uiso   1.00
C253   C     0.15860   0.24159   0.88670   0.00000  Uiso   1.00
H254   H     0.15693   0.29578   0.49319   0.00000  Uiso   1.00
H255   H     0.21372   0.36880   0.36130   0.00000  Uiso   1.00
H256   H     0.09836   0.35856   0.46733   0.00000  Uiso   1.00
H257   H     0.15881   0.13915   0.62724   0.00000  Uiso   1.00
H258   H     0.27648   0.48266   0.25246   0.00000  Uiso   1.00
H259   H     0.03323   0.46103   0.47605   0.00000  Uiso   1.00
H260   H     0.16069   0.99835   0.81326   0.00000  Uiso   1.00
H261   H     0.15538   0.54909   0.78142   0.00000  Uiso   1.00
H262   H     0.21209   0.63601   0.66535   0.00000  Uiso   1.00
H263   H     0.09673   0.62576   0.77137   0.00000  Uiso   1.00
H264   H     0.15718   0.40635   0.93128   0.00000  Uiso   1.00
H265   H     0.27516   0.69954   0.49923   0.00000  Uiso   1.00
H266   H     0.03190   0.67790   0.72282   0.00000  Uiso   1.00
H267   H     0.15937   0.21523   0.06003   0.00000  Uiso   1.00
O268   O     0.31315   0.64373   0.29427   0.00000  Uiso   1.00
O269   O     0.99400   0.61533   0.58762   0.00000  Uiso   1.00
O270   O     0.16124   0.00832   0.03003   0.00000  Uiso   1.00
N271   N     0.26839   0.52176   0.32648   0.00000  Uiso   1.00
N272   N     0.04096   0.50155   0.53551   0.00000  Uiso   1.00
N273   N     0.16012   0.06898   0.85077   0.00000  Uiso   1.00
N274   N     0.26768   0.63846   0.45926   0.00000  Uiso   1.00
N275   N     0.04025   0.61825   0.66829   0.00000  Uiso   1.00
N276   N     0.15941   0.18568   0.98356   0.00000  Uiso   1.00
C277   C     0.34342   0.85382   0.94077   0.00000  Uiso   1.00
C278   C     0.31278   0.92861   0.97246   0.00000  Uiso   1.00
C279   C     0.28662   0.92650   0.07308   0.00000  Uiso   1.00
C280   C     0.26090   0.00166   0.08590   0.00000  Uiso   1.00
C281   C     0.21325   0.10649   0.14802   0.00000  Uiso   1.00
C282   C     0.37546   0.92305   0.91486   0.00000  Uiso   1.00
C283   C     0.40200   0.91626   0.96705   0.00000  Uiso   1.00
C284   C     0.42904   0.98674   0.93136   0.00000  Uiso   1.00
C285   C     0.47872   0.08289   0.90402   0.00000  Uiso   1.00
C286   C     0.34261   0.80384   0.82799   0.00000  Uiso   1.00
C287   C     0.34154   0.69681   0.80710   0.00000  Uiso   1.00
C288   C     0.34094   0.66692   0.69827   0.00000  Uiso   1.00
C289   C     0.33962   0.57797   0.53603   0.00000  Uiso   1.00
C290   C     0.34426   0.99105   0.78461   0.00000  Uiso   1.00
C291   C     0.31324   0.00315   0.88764   0.00000  Uiso   1.00
C292   C     0.28755   0.07834   0.90031   0.00000  Uiso   1.00
C293   C     0.26135   0.07634   0.00092   0.00000  Uiso   1.00
C294   C     0.37592   0.99759   0.83005   0.00000  Uiso   1.00
C295   C     0.40293   0.06809   0.79428   0.00000  Uiso   1.00
C296   C     0.42950   0.06141   0.84639   0.00000  Uiso   1.00
C297   C     0.34307   0.87838   0.74317   0.00000  Uiso   1.00
C298   C     0.34247   0.84865   0.63434   0.00000  Uiso   1.00
C299   C     0.34140   0.74159   0.61330   0.00000  Uiso   1.00
H300   H     0.34307   0.79578   0.00681   0.00000  Uiso   1.00
H301   H     0.28628   0.86880   0.13870   0.00000  Uiso   1.00
H302   H     0.40164   0.85856   0.03267   0.00000  Uiso   1.00
H303   H     0.34119   0.63915   0.87276   0.00000  Uiso   1.00
H304   H     0.22352   0.98266   0.24754   0.00000  Uiso   1.00
H305   H     0.46677   0.96103   0.02395   0.00000  Uiso   1.00
H306   H     0.33931   0.49835   0.68674   0.00000  Uiso   1.00
H307   H     0.34462   0.04909   0.71858   0.00000  Uiso   1.00
H308   H     0.28791   0.13601   0.83465   0.00000  Uiso   1.00
H309   H     0.40327   0.12576   0.72863   0.00000  Uiso   1.00
H310   H     0.34282   0.90635   0.56872   0.00000  Uiso   1.00
H311   H     0.22484   0.19954   0.00077   0.00000  Uiso   1.00
H312   H     0.46810   0.17790   0.77718   0.00000  Uiso   1.00
H313   H     0.34063   0.71523   0.43997   0.00000  Uiso   1.00
O314   O     0.18685   0.14373   0.20573   0.00000  Uiso   1.00
O315   O     0.50600   0.11533   0.91238   0.00000  Uiso   1.00
O316   O     0.33876   0.50832   0.46997   0.00000  Uiso   1.00
N317   N     0.23161   0.02176   0.17352   0.00000  Uiso   1.00
N318   N     0.45904   0.00155   0.96449   0.00000  Uiso   1.00
N319   N     0.33988   0.56898   0.64923   0.00000  Uiso   1.00
N320   N     0.23232   0.13846   0.04074   0.00000  Uiso   1.00
N321   N     0.45975   0.11825   0.83171   0.00000  Uiso   1.00
N322   N     0.34059   0.68568   0.51644   0.00000  Uiso   1.00
C323   C     0.84342   0.35382   0.94077   0.00000  Uiso   1.00
C324   C     0.81278   0.42861   0.97246   0.00000  Uiso   1.00
C325   C     0.78662   0.42650   0.07308   0.00000  Uiso   1.00
C326   C     0.76090   0.50166   0.08590   0.00000  Uiso   1.00
C327   C     0.71325   0.60649   0.14802   0.00000  Uiso   1.00
C328   C     0.87546   0.42305   0.91486   0.00000  Uiso   1.00
C329   C     0.90200   0.41626   0.96705   0.00000  Uiso   1.00
C330   C     0.92904   0.48674   0.93136   0.00000  Uiso   1.00
C331   C     0.97872   0.58289   0.90402   0.00000  Uiso   1.00
C332   C     0.84261   0.30384   0.82799   0.00000  Uiso   1.00
C333   C     0.84154   0.19681   0.80710   0.00000  Uiso   1.00
C334   C     0.84094   0.16692   0.69827   0.00000  Uiso   1.00
C335   C     0.83962   0.07797   0.53603   0.00000  Uiso   1.00
C336   C     0.84426   0.49105   0.78461   0.00000  Uiso   1.00
C337   C     0.81324   0.50315   0.88764   0.00000  Uiso   1.00
C338   C     0.78755   0.57834   0.90031   0.00000  Uiso   1.00
C339   C     0.76135   0.57634   0.00092   0.00000  Uiso   1.00
C340   C     0.87592   0.49759   0.83005   0.00000  Uiso   1.00
C341   C     0.90293   0.56809   0.79428   0.00000  Uiso   1.00
C342   C     0.92950   0.56141   0.84639   0.00000  Uiso   1.00
C343   C     0.84307   0.37838   0.74317   0.00000  Uiso   1.00
C344   C     0.84247   0.34865   0.63434   0.00000  Uiso   1.00
C345   C     0.84140   0.24159   0.61330   0.00000  Uiso   1.00
H346   H     0.84307   0.29578   0.00681   0.00000  Uiso   1.00
H347   H     0.78628   0.36880   0.13870   0.00000  Uiso   1.00
H348   H     0.90164   0.35856   0.03267   0.00000  Uiso   1.00
H349   H     0.84119   0.13915   0.87276   0.00000  Uiso   1.00
H350   H     0.72352   0.48266   0.24754   0.00000  Uiso   1.00
H351   H     0.96677   0.46103   0.02395   0.00000  Uiso   1.00
H352   H     0.83931   0.99835   0.68674   0.00000  Uiso   1.00
H353   H     0.84462   0.54909   0.71858   0.00000  Uiso   1.00
H354   H     0.78791   0.63601   0.83465   0.00000  Uiso   1.00
H355   H     0.90327   0.62576   0.72863   0.00000  Uiso   1.00
H356   H     0.84282   0.40635   0.56872   0.00000  Uiso   1.00
H357   H     0.72484   0.69954   0.00077   0.00000  Uiso   1.00
H358   H     0.96810   0.67790   0.77718   0.00000  Uiso   1.00
H359   H     0.84063   0.21523   0.43997   0.00000  Uiso   1.00
O360   O     0.68685   0.64373   0.20573   0.00000  Uiso   1.00
O361   O     0.00600   0.61533   0.91238   0.00000  Uiso   1.00
O362   O     0.83876   0.00832   0.46997   0.00000  Uiso   1.00
N363   N     0.73161   0.52176   0.17352   0.00000  Uiso   1.00
N364   N     0.95904   0.50155   0.96449   0.00000  Uiso   1.00
N365   N     0.83988   0.06898   0.64923   0.00000  Uiso   1.00
N366   N     0.73232   0.63846   0.04074   0.00000  Uiso   1.00
N367   N     0.95975   0.61825   0.83171   0.00000  Uiso   1.00
N368   N     0.84059   0.18568   0.51644   0.00000  Uiso   1.00
