data_job_06522
_audit_creation_date              2018-12-19
_audit_creation_method            'Materials Studio'
_symmetry_space_group_name_H-M    'P1'
_symmetry_Int_Tables_number       1
_symmetry_cell_setting            triclinic
loop_
_symmetry_equiv_pos_as_xyz
  x,y,z
_cell_length_a                    21.1748
_cell_length_b                    20.2148
_cell_length_c                    22.2454
_cell_angle_alpha                 84.5673
_cell_angle_beta                  115.6710
_cell_angle_gamma                 109.7220
loop_
_atom_site_label
_atom_site_type_symbol
_atom_site_fract_x
_atom_site_fract_y
_atom_site_fract_z
_atom_site_U_iso_or_equiv
_atom_site_adp_type
_atom_site_occupancy
C1     C     0.86753   0.25300   0.10226   0.00000  Uiso   1.00
C2     C     0.92646   0.29844   0.07992   0.00000  Uiso   1.00
C3     C     0.98033   0.27792   0.07483   0.00000  Uiso   1.00
C4     C     0.02914   0.32720   0.05347   0.00000  Uiso   1.00
C5     C     0.12142   0.38753   0.02120   0.00000  Uiso   1.00
C6     C     0.87693   0.29423   0.16126   0.00000  Uiso   1.00
C7     C     0.88915   0.27016   0.22456   0.00000  Uiso   1.00
C8     C     0.89626   0.31588   0.27166   0.00000  Uiso   1.00
C9     C     0.91160   0.36965   0.36565   0.00000  Uiso   1.00
C10    C     0.79295   0.25130   0.04580   0.00000  Uiso   1.00
C11    C     0.73455   0.19113   0.01204   0.00000  Uiso   1.00
C12    C     0.67095   0.20071   0.96195   0.00000  Uiso   1.00
C13    C     0.55590   0.18782   0.87669   0.00000  Uiso   1.00
C14    C     0.85843   0.37700   0.07336   0.00000  Uiso   1.00
C15    C     0.92152   0.36580   0.06422   0.00000  Uiso   1.00
C16    C     0.97026   0.41512   0.04286   0.00000  Uiso   1.00
C17    C     0.02419   0.39467   0.03774   0.00000  Uiso   1.00
C18    C     0.87199   0.36158   0.14556   0.00000  Uiso   1.00
C19    C     0.87908   0.40735   0.19258   0.00000  Uiso   1.00
C20    C     0.89131   0.38336   0.25593   0.00000  Uiso   1.00
C21    C     0.78801   0.31865   0.03010   0.00000  Uiso   1.00
C22    C     0.72449   0.32833   0.98006   0.00000  Uiso   1.00
C23    C     0.66600   0.26819   0.94622   0.00000  Uiso   1.00
H24    H     0.87137   0.20056   0.11449   0.00000  Uiso   1.00
H25    H     0.98414   0.22579   0.08699   0.00000  Uiso   1.00
H26    H     0.89296   0.21803   0.23669   0.00000  Uiso   1.00
H27    H     0.73839   0.13902   0.02420   0.00000  Uiso   1.00
H28    H     0.10699   0.28348   0.04961   0.00000  Uiso   1.00
H29    H     0.91473   0.26710   0.36525   0.00000  Uiso   1.00
H30    H     0.58878   0.10048   0.91718   0.00000  Uiso   1.00
H31    H     0.85458   0.42944   0.06114   0.00000  Uiso   1.00
H32    H     0.96642   0.46724   0.03071   0.00000  Uiso   1.00
H33    H     0.87525   0.45947   0.18041   0.00000  Uiso   1.00
H34    H     0.72068   0.38046   0.96793   0.00000  Uiso   1.00
H35    H     0.09262   0.47945   0.00394   0.00000  Uiso   1.00
H36    H     0.90035   0.46306   0.31957   0.00000  Uiso   1.00
H37    H     0.57440   0.29645   0.87150   0.00000  Uiso   1.00
O38    O     0.17370   0.40221   0.00775   0.00000  Uiso   1.00
O39    O     0.92144   0.38071   0.42184   0.00000  Uiso   1.00
O40    O     0.49380   0.16211   0.83399   0.00000  Uiso   1.00
N41    N     0.08825   0.32441   0.04303   0.00000  Uiso   1.00
N42    N     0.90851   0.30910   0.33813   0.00000  Uiso   1.00
N43    N     0.60376   0.15333   0.91923   0.00000  Uiso   1.00
N44    N     0.08052   0.42986   0.01845   0.00000  Uiso   1.00
N45    N     0.90077   0.41455   0.31355   0.00000  Uiso   1.00
N46    N     0.59603   0.25877   0.89466   0.00000  Uiso   1.00
C47    C     0.15043   0.86910   0.14013   0.00000  Uiso   1.00
C48    C     0.14749   0.94239   0.14624   0.00000  Uiso   1.00
C49    C     0.16202   0.99765   0.10687   0.00000  Uiso   1.00
C50    C     0.15638   0.06055   0.12037   0.00000  Uiso   1.00
C51    C     0.15483   0.17326   0.12213   0.00000  Uiso   1.00
C52    C     0.20491   0.85641   0.20872   0.00000  Uiso   1.00
C53    C     0.26772   0.83937   0.22186   0.00000  Uiso   1.00
C54    C     0.31041   0.82989   0.28796   0.00000  Uiso   1.00
C55    C     0.39797   0.80907   0.38670   0.00000  Uiso   1.00
C56    C     0.07430   0.81771   0.12984   0.00000  Uiso   1.00
C57    C     0.02729   0.76810   0.07668   0.00000  Uiso   1.00
C58    C     0.96002   0.72602   0.07638   0.00000  Uiso   1.00
C59    C     0.84478   0.64510   0.05266   0.00000  Uiso   1.00
C60    C     0.11456   0.88256   0.23414   0.00000  Uiso   1.00
C61    C     0.12801   0.94970   0.19731   0.00000  Uiso   1.00
C62    C     0.12234   0.01254   0.21088   0.00000  Uiso   1.00
C63    C     0.13686   0.06788   0.17152   0.00000  Uiso   1.00
C64    C     0.18544   0.86373   0.25978   0.00000  Uiso   1.00
C65    C     0.22804   0.85426   0.32587   0.00000  Uiso   1.00
C66    C     0.29089   0.83721   0.33911   0.00000  Uiso   1.00
C67    C     0.05482   0.82502   0.18091   0.00000  Uiso   1.00
C68    C     0.98761   0.78300   0.18069   0.00000  Uiso   1.00
C69    C     0.94050   0.73335   0.12754   0.00000  Uiso   1.00
H70    H     0.16560   0.86340   0.10038   0.00000  Uiso   1.00
H71    H     0.17711   0.99197   0.06736   0.00000  Uiso   1.00
H72    H     0.28278   0.83371   0.18234   0.00000  Uiso   1.00
H73    H     0.04238   0.76246   0.03718   0.00000  Uiso   1.00
H74    H     0.18130   0.13774   0.05329   0.00000  Uiso   1.00
H75    H     0.40410   0.80402   0.29572   0.00000  Uiso   1.00
H76    H     0.89719   0.65377   0.98962   0.00000  Uiso   1.00
H77    H     0.09939   0.88825   0.27389   0.00000  Uiso   1.00
H78    H     0.10727   0.01819   0.25040   0.00000  Uiso   1.00
H79    H     0.21294   0.85993   0.36537   0.00000  Uiso   1.00
H80    H     0.97255   0.78868   0.22021   0.00000  Uiso   1.00
H81    H     0.12462   0.15902   0.20185   0.00000  Uiso   1.00
H82    H     0.34742   0.82529   0.44428   0.00000  Uiso   1.00
H83    H     0.84051   0.67505   0.13818   0.00000  Uiso   1.00
O84    O     0.15936   0.23341   0.10900   0.00000  Uiso   1.00
O85    O     0.45166   0.79557   0.42705   0.00000  Uiso   1.00
O86    O     0.78660   0.59845   0.02546   0.00000  Uiso   1.00
N87    N     0.16687   0.12491   0.09147   0.00000  Uiso   1.00
N88    N     0.37518   0.81291   0.31813   0.00000  Uiso   1.00
N89    N     0.90126   0.67243   0.03196   0.00000  Uiso   1.00
N90    N     0.13637   0.13636   0.17141   0.00000  Uiso   1.00
N91    N     0.34468   0.82436   0.39807   0.00000  Uiso   1.00
N92    N     0.87076   0.68388   0.11190   0.00000  Uiso   1.00
C93    C     0.08965   0.03470   0.68402   0.00000  Uiso   1.00
C94    C     0.08880   0.99463   0.74544   0.00000  Uiso   1.00
C95    C     0.04223   0.99127   0.77517   0.00000  Uiso   1.00
C96    C     0.05012   0.95187   0.83100   0.00000  Uiso   1.00
C97    C     0.04082   0.89497   0.92258   0.00000  Uiso   1.00
C98    C     0.16891   0.08488   0.70504   0.00000  Uiso   1.00
C99    C     0.18970   0.15740   0.70080   0.00000  Uiso   1.00
C100   C     0.26503   0.19396   0.72261   0.00000  Uiso   1.00
C101   C     0.38011   0.27717   0.75142   0.00000  Uiso   1.00
C102   C     0.07760   0.98072   0.63328   0.00000  Uiso   1.00
C103   C     0.02161   0.96568   0.56869   0.00000  Uiso   1.00
C104   C     0.02007   0.91455   0.53007   0.00000  Uiso   1.00
C105   C     0.99336   0.83604   0.44746   0.00000  Uiso   1.00
C106   C     0.18647   0.97068   0.73029   0.00000  Uiso   1.00
C107   C     0.14139   0.95986   0.77058   0.00000  Uiso   1.00
C108   C     0.14935   0.92044   0.82637   0.00000  Uiso   1.00
C109   C     0.10280   0.91703   0.85618   0.00000  Uiso   1.00
C110   C     0.22150   0.05011   0.73018   0.00000  Uiso   1.00
C111   C     0.29682   0.08657   0.75200   0.00000  Uiso   1.00
C112   C     0.31772   0.15913   0.74779   0.00000  Uiso   1.00
C113   C     0.13018   0.94595   0.65841   0.00000  Uiso   1.00
C114   C     0.12873   0.89484   0.61989   0.00000  Uiso   1.00
C115   C     0.07276   0.87972   0.55525   0.00000  Uiso   1.00
H116   H     0.04871   0.06177   0.66445   0.00000  Uiso   1.00
H117   H     0.00154   0.01820   0.75571   0.00000  Uiso   1.00
H118   H     0.14899   0.18429   0.68134   0.00000  Uiso   1.00
H119   H     0.98092   0.99260   0.54926   0.00000  Uiso   1.00
H120   H     0.97246   0.95457   0.86799   0.00000  Uiso   1.00
H121   H     0.28335   0.30479   0.71116   0.00000  Uiso   1.00
H122   H     0.92896   0.90056   0.43262   0.00000  Uiso   1.00
H123   H     0.22742   0.94361   0.74986   0.00000  Uiso   1.00
H124   H     0.19006   0.89354   0.84581   0.00000  Uiso   1.00
H125   H     0.33750   0.05965   0.77144   0.00000  Uiso   1.00
H126   H     0.16944   0.86795   0.63936   0.00000  Uiso   1.00
H127   H     0.12547   0.85340   0.94112   0.00000  Uiso   1.00
H128   H     0.43636   0.20363   0.78429   0.00000  Uiso   1.00
H129   H     0.08197   0.79939   0.50575   0.00000  Uiso   1.00
O130   O     0.02118   0.87320   0.96615   0.00000  Uiso   1.00
O131   O     0.42905   0.33268   0.76038   0.00000  Uiso   1.00
O132   O     0.96410   0.80234   0.39495   0.00000  Uiso   1.00
N133   N     0.01359   0.93762   0.87203   0.00000  Uiso   1.00
N134   N     0.30426   0.26506   0.72541   0.00000  Uiso   1.00
N135   N     0.97294   0.88715   0.46500   0.00000  Uiso   1.00
N136   N     0.09592   0.88318   0.91138   0.00000  Uiso   1.00
N137   N     0.38659   0.21062   0.76476   0.00000  Uiso   1.00
N138   N     0.05527   0.83271   0.50435   0.00000  Uiso   1.00
C139   C     0.15289   0.45134   0.55568   0.00000  Uiso   1.00
C140   C     0.21166   0.43291   0.54512   0.00000  Uiso   1.00
C141   C     0.20784   0.41757   0.48388   0.00000  Uiso   1.00
C142   C     0.26730   0.40204   0.48481   0.00000  Uiso   1.00
C143   C     0.34929   0.37349   0.45927   0.00000  Uiso   1.00
C144   C     0.19254   0.52258   0.59483   0.00000  Uiso   1.00
C145   C     0.17264   0.58263   0.57540   0.00000  Uiso   1.00
C146   C     0.21600   0.64258   0.61818   0.00000  Uiso   1.00
C147   C     0.26827   0.75323   0.66985   0.00000  Uiso   1.00
C148   C     0.13150   0.39833   0.60284   0.00000  Uiso   1.00
C149   C     0.06027   0.35391   0.59014   0.00000  Uiso   1.00
C150   C     0.05224   0.30926   0.63967   0.00000  Uiso   1.00
C151   C     0.00973   0.22698   0.70377   0.00000  Uiso   1.00
C152   C     0.26530   0.45104   0.66622   0.00000  Uiso   1.00
C153   C     0.27272   0.43275   0.60516   0.00000  Uiso   1.00
C154   C     0.33220   0.41724   0.60618   0.00000  Uiso   1.00
C155   C     0.32847   0.40187   0.54495   0.00000  Uiso   1.00
C156   C     0.25360   0.52242   0.65487   0.00000  Uiso   1.00
C157   C     0.29700   0.58229   0.69769   0.00000  Uiso   1.00
C158   C     0.27717   0.64242   0.67832   0.00000  Uiso   1.00
C159   C     0.19256   0.39816   0.66288   0.00000  Uiso   1.00
C160   C     0.18463   0.35357   0.71243   0.00000  Uiso   1.00
C161   C     0.11340   0.30910   0.69982   0.00000  Uiso   1.00
H162   H     0.10536   0.45147   0.50894   0.00000  Uiso   1.00
H163   H     0.16058   0.41771   0.43743   0.00000  Uiso   1.00
H164   H     0.12538   0.58274   0.52894   0.00000  Uiso   1.00
H165   H     0.01304   0.35405   0.54368   0.00000  Uiso   1.00
H166   H     0.24875   0.38023   0.38462   0.00000  Uiso   1.00
H167   H     0.17451   0.72820   0.57758   0.00000  Uiso   1.00
H168   H     0.93760   0.24597   0.60866   0.00000  Uiso   1.00
H169   H     0.31283   0.45091   0.71296   0.00000  Uiso   1.00
H170   H     0.37944   0.41711   0.65264   0.00000  Uiso   1.00
H171   H     0.34424   0.58215   0.74415   0.00000  Uiso   1.00
H172   H     0.23189   0.35346   0.75889   0.00000  Uiso   1.00
H173   H     0.42638   0.37975   0.55930   0.00000  Uiso   1.00
H174   H     0.35214   0.72772   0.75225   0.00000  Uiso   1.00
H175   H     0.11523   0.24549   0.78334   0.00000  Uiso   1.00
O176   O     0.37765   0.35779   0.42860   0.00000  Uiso   1.00
O177   O     0.28024   0.81431   0.68176   0.00000  Uiso   1.00
O178   O     0.96942   0.18163   0.72253   0.00000  Uiso   1.00
N179   N     0.28140   0.38474   0.43401   0.00000  Uiso   1.00
N180   N     0.21200   0.71008   0.61441   0.00000  Uiso   1.00
N181   N     0.99051   0.25925   0.64348   0.00000  Uiso   1.00
N182   N     0.37699   0.38448   0.52800   0.00000  Uiso   1.00
N183   N     0.30759   0.70982   0.70840   0.00000  Uiso   1.00
N184   N     0.08609   0.25899   0.73747   0.00000  Uiso   1.00
C185   C     0.56299   0.70997   0.16279   0.00000  Uiso   1.00
C186   C     0.53779   0.70247   0.21848   0.00000  Uiso   1.00
C187   C     0.47467   0.65184   0.21920   0.00000  Uiso   1.00
C188   C     0.46132   0.65383   0.27474   0.00000  Uiso   1.00
C189   C     0.41490   0.63443   0.35319   0.00000  Uiso   1.00
C190   C     0.64165   0.70662   0.19569   0.00000  Uiso   1.00
C191   C     0.66587   0.65948   0.17722   0.00000  Uiso   1.00
C192   C     0.73996   0.66497   0.21357   0.00000  Uiso   1.00
C193   C     0.85480   0.65204   0.25659   0.00000  Uiso   1.00
C194   C     0.57019   0.78494   0.14093   0.00000  Uiso   1.00
C195   C     0.53434   0.80366   0.07642   0.00000  Uiso   1.00
C196   C     0.54828   0.87509   0.06665   0.00000  Uiso   1.00
C197   C     0.55216   0.98377   0.02465   0.00000  Uiso   1.00
C198   C     0.65150   0.80354   0.26015   0.00000  Uiso   1.00
C199   C     0.58587   0.75330   0.27137   0.00000  Uiso   1.00
C200   C     0.57261   0.75536   0.32692   0.00000  Uiso   1.00
C201   C     0.50948   0.70475   0.32771   0.00000  Uiso   1.00
C202   C     0.68973   0.75744   0.24857   0.00000  Uiso   1.00
C203   C     0.76380   0.76300   0.28494   0.00000  Uiso   1.00
C204   C     0.78813   0.71588   0.26655   0.00000  Uiso   1.00
C205   C     0.61827   0.83577   0.19381   0.00000  Uiso   1.00
C206   C     0.63227   0.90718   0.18414   0.00000  Uiso   1.00
C207   C     0.59644   0.92601   0.11963   0.00000  Uiso   1.00
H208   H     0.52556   0.67041   0.12162   0.00000  Uiso   1.00
H209   H     0.43748   0.61252   0.17826   0.00000  Uiso   1.00
H210   H     0.62865   0.62016   0.13629   0.00000  Uiso   1.00
H211   H     0.49714   0.76432   0.03550   0.00000  Uiso   1.00
H212   H     0.36105   0.57073   0.26440   0.00000  Uiso   1.00
H213   H     0.76415   0.58687   0.17588   0.00000  Uiso   1.00
H214   H     0.48682   0.89085   0.96335   0.00000  Uiso   1.00
H215   H     0.68894   0.84311   0.30133   0.00000  Uiso   1.00
H216   H     0.60982   0.79470   0.36784   0.00000  Uiso   1.00
H217   H     0.80099   0.80234   0.32586   0.00000  Uiso   1.00
H218   H     0.66948   0.94650   0.22508   0.00000  Uiso   1.00
H219   H     0.50093   0.71860   0.41827   0.00000  Uiso   1.00
H220   H     0.90403   0.73473   0.32975   0.00000  Uiso   1.00
H221   H     0.62670   0.03871   0.11722   0.00000  Uiso   1.00
O222   O     0.37601   0.60969   0.38185   0.00000  Uiso   1.00
O223   O     0.90486   0.63086   0.26571   0.00000  Uiso   1.00
O224   O     0.54102   0.02968   0.98688   0.00000  Uiso   1.00
N225   N     0.40482   0.61219   0.29148   0.00000  Uiso   1.00
N226   N     0.78169   0.62726   0.20873   0.00000  Uiso   1.00
N227   N     0.52243   0.91146   0.01002   0.00000  Uiso   1.00
N228   N     0.48009   0.69175   0.37427   0.00000  Uiso   1.00
N229   N     0.85696   0.70682   0.29152   0.00000  Uiso   1.00
N230   N     0.59770   0.99102   0.09282   0.00000  Uiso   1.00
C231   C     0.61457   0.22311   0.45455   0.00000  Uiso   1.00
C232   C     0.62026   0.29955   0.43953   0.00000  Uiso   1.00
C233   C     0.56493   0.32225   0.39083   0.00000  Uiso   1.00
C234   C     0.58099   0.39440   0.38496   0.00000  Uiso   1.00
C235   C     0.57933   0.50585   0.35538   0.00000  Uiso   1.00
C236   C     0.63130   0.21783   0.52842   0.00000  Uiso   1.00
C237   C     0.58526   0.17180   0.55445   0.00000  Uiso   1.00
C238   C     0.61062   0.17515   0.62341   0.00000  Uiso   1.00
C239   C     0.62612   0.15968   0.73183   0.00000  Uiso   1.00
C240   C     0.67910   0.21210   0.44791   0.00000  Uiso   1.00
C241   C     0.67326   0.16125   0.40625   0.00000  Uiso   1.00
C242   C     0.73887   0.15976   0.40743   0.00000  Uiso   1.00
C243   C     0.82860   0.13540   0.39084   0.00000  Uiso   1.00
C244   C     0.74147   0.31088   0.53074   0.00000  Uiso   1.00
C245   C     0.68919   0.34723   0.48092   0.00000  Uiso   1.00
C246   C     0.70533   0.41936   0.47513   0.00000  Uiso   1.00
C247   C     0.65004   0.44216   0.42642   0.00000  Uiso   1.00
C248   C     0.70023   0.26550   0.56981   0.00000  Uiso   1.00
C249   C     0.72566   0.26892   0.63875   0.00000  Uiso   1.00
C250   C     0.67967   0.22291   0.66487   0.00000  Uiso   1.00
C251   C     0.74803   0.25978   0.48929   0.00000  Uiso   1.00
C252   C     0.81367   0.25837   0.49055   0.00000  Uiso   1.00
C253   C     0.80792   0.20752   0.44890   0.00000  Uiso   1.00
H254   H     0.56090   0.18599   0.42233   0.00000  Uiso   1.00
H255   H     0.51159   0.28534   0.35881   0.00000  Uiso   1.00
H256   H     0.53192   0.13491   0.52241   0.00000  Uiso   1.00
H257   H     0.61991   0.12436   0.37423   0.00000  Uiso   1.00
H258   H     0.48731   0.41651   0.30666   0.00000  Uiso   1.00
H259   H     0.53019   0.09931   0.65161   0.00000  Uiso   1.00
H260   H     0.71573   0.07706   0.33915   0.00000  Uiso   1.00
H261   H     0.79514   0.34800   0.56297   0.00000  Uiso   1.00
H262   H     0.75868   0.45624   0.50716   0.00000  Uiso   1.00
H263   H     0.77901   0.30581   0.67076   0.00000  Uiso   1.00
H264   H     0.86700   0.29527   0.52258   0.00000  Uiso   1.00
H265   H     0.68785   0.55522   0.42707   0.00000  Uiso   1.00
H266   H     0.73073   0.23802   0.77202   0.00000  Uiso   1.00
H267   H     0.91627   0.21578   0.45956   0.00000  Uiso   1.00
O268   O     0.55937   0.55415   0.32763   0.00000  Uiso   1.00
O269   O     0.61563   0.13798   0.78019   0.00000  Uiso   1.00
O270   O     0.85905   0.10880   0.37025   0.00000  Uiso   1.00
N271   N     0.53952   0.43430   0.34265   0.00000  Uiso   1.00
N272   N     0.57960   0.13774   0.66515   0.00000  Uiso   1.00
N273   N     0.75307   0.11693   0.37304   0.00000  Uiso   1.00
N274   N     0.64743   0.50894   0.40744   0.00000  Uiso   1.00
N275   N     0.68751   0.21238   0.72994   0.00000  Uiso   1.00
N276   N     0.86098   0.19157   0.43783   0.00000  Uiso   1.00
C277   C     0.00290   0.64614   0.70893   0.00000  Uiso   1.00
C278   C     0.97047   0.58906   0.74746   0.00000  Uiso   1.00
C279   C     0.91994   0.59052   0.77091   0.00000  Uiso   1.00
C280   C     0.89699   0.53318   0.80501   0.00000  Uiso   1.00
C281   C     0.84255   0.45316   0.86324   0.00000  Uiso   1.00
C282   C     0.98488   0.60972   0.64371   0.00000  Uiso   1.00
C283   C     0.94648   0.62857   0.57994   0.00000  Uiso   1.00
C284   C     0.93567   0.58863   0.52671   0.00000  Uiso   1.00
C285   C     0.90365   0.54073   0.42388   0.00000  Uiso   1.00
C286   C     0.08699   0.66808   0.74853   0.00000  Uiso   1.00
C287   C     0.13445   0.73599   0.77288   0.00000  Uiso   1.00
C288   C     0.20961   0.74519   0.80789   0.00000  Uiso   1.00
C289   C     0.33613   0.78789   0.86781   0.00000  Uiso   1.00
C290   C     0.05200   0.54172   0.72778   0.00000  Uiso   1.00
C291   C     0.99714   0.53234   0.75769   0.00000  Uiso   1.00
C292   C     0.97426   0.47499   0.79177   0.00000  Uiso   1.00
C293   C     0.92371   0.47637   0.81527   0.00000  Uiso   1.00
C294   C     0.01155   0.55301   0.65395   0.00000  Uiso   1.00
C295   C     0.00080   0.51304   0.60080   0.00000  Uiso   1.00
C296   C     0.96238   0.53182   0.53696   0.00000  Uiso   1.00
C297   C     0.11366   0.61136   0.75877   0.00000  Uiso   1.00
C298   C     0.18877   0.62046   0.79374   0.00000  Uiso   1.00
C299   C     0.23632   0.68838   0.81815   0.00000  Uiso   1.00
H300   H     0.98214   0.69029   0.70095   0.00000  Uiso   1.00
H301   H     0.89931   0.63442   0.76297   0.00000  Uiso   1.00
H302   H     0.92585   0.67246   0.57203   0.00000  Uiso   1.00
H303   H     0.11379   0.77987   0.76495   0.00000  Uiso   1.00
H304   H     0.81922   0.54744   0.83622   0.00000  Uiso   1.00
H305   H     0.87521   0.62768   0.43362   0.00000  Uiso   1.00
H306   H     0.27151   0.85417   0.84042   0.00000  Uiso   1.00
H307   H     0.07276   0.49757   0.73575   0.00000  Uiso   1.00
H308   H     0.99491   0.43111   0.79968   0.00000  Uiso   1.00
H309   H     0.02145   0.46916   0.60874   0.00000  Uiso   1.00
H310   H     0.20938   0.57656   0.80166   0.00000  Uiso   1.00
H311   H     0.89681   0.38243   0.86602   0.00000  Uiso   1.00
H312   H     0.95280   0.46268   0.46341   0.00000  Uiso   1.00
H313   H     0.34910   0.68916   0.87021   0.00000  Uiso   1.00
O314   O     0.80514   0.42469   0.89253   0.00000  Uiso   1.00
O315   O     0.87861   0.52997   0.36433   0.00000  Uiso   1.00
O316   O     0.39854   0.82711   0.89804   0.00000  Uiso   1.00
N317   N     0.84818   0.51773   0.83447   0.00000  Uiso   1.00
N318   N     0.90051   0.59275   0.45806   0.00000  Uiso   1.00
N319   N     0.27102   0.80449   0.83837   0.00000  Uiso   1.00
N320   N     0.88993   0.42894   0.85051   0.00000  Uiso   1.00
N321   N     0.94226   0.50396   0.47409   0.00000  Uiso   1.00
N322   N     0.31277   0.71570   0.85440   0.00000  Uiso   1.00
C323   C     0.70999   0.92366   0.80665   0.00000  Uiso   1.00
C324   C     0.75908   0.87970   0.81526   0.00000  Uiso   1.00
C325   C     0.78107   0.83715   0.86767   0.00000  Uiso   1.00
C326   C     0.82600   0.80117   0.86644   0.00000  Uiso   1.00
C327   C     0.89882   0.73190   0.88768   0.00000  Uiso   1.00
C328   C     0.64447   0.90018   0.73833   0.00000  Uiso   1.00
C329   C     0.57010   0.87486   0.72605   0.00000  Uiso   1.00
C330   C     0.51855   0.85614   0.66006   0.00000  Uiso   1.00
C331   C     0.41344   0.81872   0.56185   0.00000  Uiso   1.00
C332   C     0.75430   0.99917   0.80100   0.00000  Uiso   1.00
C333   C     0.77227   0.05709   0.84141   0.00000  Uiso   1.00
C334   C     0.81317   0.12172   0.82818   0.00000  Uiso   1.00
C335   C     0.87860   0.23800   0.82728   0.00000  Uiso   1.00
C336   C     0.75067   0.93544   0.71129   0.00000  Uiso   1.00
C337   C     0.78117   0.88609   0.76346   0.00000  Uiso   1.00
C338   C     0.82607   0.85018   0.76216   0.00000  Uiso   1.00
C339   C     0.84813   0.80758   0.81456   0.00000  Uiso   1.00
C340   C     0.66656   0.90658   0.68653   0.00000  Uiso   1.00
C341   C     0.61510   0.88789   0.62055   0.00000  Uiso   1.00
C342   C     0.54068   0.86255   0.60817   0.00000  Uiso   1.00
C343   C     0.77640   0.00557   0.74921   0.00000  Uiso   1.00
C344   C     0.81727   0.07012   0.73591   0.00000  Uiso   1.00
C345   C     0.83530   0.12813   0.77629   0.00000  Uiso   1.00
H346   H     0.69279   0.91868   0.84697   0.00000  Uiso   1.00
H347   H     0.76396   0.83221   0.90774   0.00000  Uiso   1.00
H348   H     0.55302   0.86993   0.76614   0.00000  Uiso   1.00
H349   H     0.75516   0.05212   0.88149   0.00000  Uiso   1.00
H350   H     0.85258   0.73913   0.95226   0.00000  Uiso   1.00
H351   H     0.40781   0.81869   0.65369   0.00000  Uiso   1.00
H352   H     0.83406   0.20289   0.89692   0.00000  Uiso   1.00
H353   H     0.76787   0.94042   0.67096   0.00000  Uiso   1.00
H354   H     0.84316   0.85514   0.72207   0.00000  Uiso   1.00
H355   H     0.63222   0.89285   0.58047   0.00000  Uiso   1.00
H356   H     0.83436   0.07505   0.69582   0.00000  Uiso   1.00
H357   H     0.91686   0.75774   0.80156   0.00000  Uiso   1.00
H358   H     0.47209   0.83730   0.50300   0.00000  Uiso   1.00
H359   H     0.89834   0.22150   0.74622   0.00000  Uiso   1.00
O360   O     0.93287   0.69192   0.91369   0.00000  Uiso   1.00
O361   O     0.34936   0.79631   0.52199   0.00000  Uiso   1.00
O362   O     0.90859   0.30037   0.84110   0.00000  Uiso   1.00
N363   N     0.85739   0.75523   0.90978   0.00000  Uiso   1.00
N364   N     0.44156   0.82959   0.63065   0.00000  Uiso   1.00
N365   N     0.84005   0.18879   0.85803   0.00000  Uiso   1.00
N366   N     0.89198   0.76524   0.82869   0.00000  Uiso   1.00
N367   N     0.47615   0.83961   0.54956   0.00000  Uiso   1.00
N368   N     0.87464   0.19881   0.77694   0.00000  Uiso   1.00
C369   C     0.82847   0.89230   0.05942   0.00000  Uiso   1.00
C370   C     0.87223   0.95364   0.03235   0.00000  Uiso   1.00
C371   C     0.92965   0.95412   0.01753   0.00000  Uiso   1.00
C372   C     0.96262   0.01533   0.99323   0.00000  Uiso   1.00
C373   C     0.03414   0.10164   0.95254   0.00000  Uiso   1.00
C374   C     0.74710   0.87608   0.01031   0.00000  Uiso   1.00
C375   C     0.69932   0.81134   0.97697   0.00000  Uiso   1.00
C376   C     0.62694   0.80726   0.93413   0.00000  Uiso   1.00
C377   C     0.50419   0.77315   0.85926   0.00000  Uiso   1.00
C378   C     0.83622   0.92109   0.12409   0.00000  Uiso   1.00
C379   C     0.86334   0.89420   0.18643   0.00000  Uiso   1.00
C380   C     0.86598   0.92801   0.23939   0.00000  Uiso   1.00
C381   C     0.88159   0.96380   0.34120   0.00000  Uiso   1.00
C382   C     0.78490   0.00014   0.04263   0.00000  Uiso   1.00
C383   C     0.84856   0.01221   0.02322   0.00000  Uiso   1.00
C384   C     0.88145   0.07344   0.99895   0.00000  Uiso   1.00
C385   C     0.93891   0.07401   0.98409   0.00000  Uiso   1.00
C386   C     0.72343   0.93465   0.00119   0.00000  Uiso   1.00
C387   C     0.65111   0.93066   0.95839   0.00000  Uiso   1.00
C388   C     0.60323   0.86594   0.92499   0.00000  Uiso   1.00
C389   C     0.81255   0.97967   0.11498   0.00000  Uiso   1.00
C390   C     0.81514   0.01352   0.16785   0.00000  Uiso   1.00
C391   C     0.84227   0.98669   0.23025   0.00000  Uiso   1.00
H392   H     0.84689   0.84670   0.06652   0.00000  Uiso   1.00
H393   H     0.94795   0.90878   0.02458   0.00000  Uiso   1.00
H394   H     0.71764   0.76602   0.98404   0.00000  Uiso   1.00
H395   H     0.88165   0.84888   0.19347   0.00000  Uiso   1.00
H396   H     0.04953   0.00343   0.97405   0.00000  Uiso   1.00
H397   H     0.56392   0.70242   0.88857   0.00000  Uiso   1.00
H398   H     0.90975   0.87712   0.33019   0.00000  Uiso   1.00
H399   H     0.76647   0.04575   0.03553   0.00000  Uiso   1.00
H400   H     0.86312   0.11876   0.99189   0.00000  Uiso   1.00
H401   H     0.63282   0.97600   0.95135   0.00000  Uiso   1.00
H402   H     0.79682   0.05885   0.16077   0.00000  Uiso   1.00
H403   H     0.98069   0.17385   0.94751   0.00000  Uiso   1.00
H404   H     0.49507   0.87284   0.86204   0.00000  Uiso   1.00
H405   H     0.84091   0.04755   0.30365   0.00000  Uiso   1.00
O406   O     0.08012   0.13307   0.93261   0.00000  Uiso   1.00
O407   O     0.44302   0.73815   0.82049   0.00000  Uiso   1.00
O408   O     0.89674   0.96736   0.39988   0.00000  Uiso   1.00
N409   N     0.02008   0.03352   0.97380   0.00000  Uiso   1.00
N410   N     0.56606   0.75210   0.89388   0.00000  Uiso   1.00
N411   N     0.88937   0.91542   0.30676   0.00000  Uiso   1.00
N412   N     0.98303   0.12523   0.95952   0.00000  Uiso   1.00
N413   N     0.52901   0.84380   0.87960   0.00000  Uiso   1.00
N414   N     0.85232   0.00713   0.29248   0.00000  Uiso   1.00
C415   C     0.59720   0.39364   0.13369   0.00000  Uiso   1.00
C416   C     0.52879   0.40144   0.13533   0.00000  Uiso   1.00
C417   C     0.52926   0.44814   0.17753   0.00000  Uiso   1.00
C418   C     0.46081   0.44718   0.17127   0.00000  Uiso   1.00
C419   C     0.36471   0.46628   0.18097   0.00000  Uiso   1.00
C420   C     0.59078   0.31646   0.14465   0.00000  Uiso   1.00
C421   C     0.64337   0.29171   0.19469   0.00000  Uiso   1.00
C422   C     0.62710   0.21921   0.19627   0.00000  Uiso   1.00
C423   C     0.62726   0.10638   0.22041   0.00000  Uiso   1.00
C424   C     0.58813   0.40492   0.06203   0.00000  Uiso   1.00
C425   C     0.63850   0.45454   0.04260   0.00000  Uiso   1.00
C426   C     0.62000   0.45651   0.97462   0.00000  Uiso   1.00
C427   C     0.61605   0.48103   0.87047   0.00000  Uiso   1.00
C428   C     0.47479   0.30889   0.04752   0.00000  Uiso   1.00
C429   C     0.46231   0.35541   0.08853   0.00000  Uiso   1.00
C430   C     0.39383   0.35438   0.08220   0.00000  Uiso   1.00
C431   C     0.39420   0.40107   0.12439   0.00000  Uiso   1.00
C432   C     0.52429   0.27043   0.09785   0.00000  Uiso   1.00
C433   C     0.50794   0.19795   0.09936   0.00000  Uiso   1.00
C434   C     0.56049   0.17310   0.14939   0.00000  Uiso   1.00
C435   C     0.52164   0.35890   0.01523   0.00000  Uiso   1.00
C436   C     0.50307   0.36078   0.94727   0.00000  Uiso   1.00
C437   C     0.55340   0.41040   0.92773   0.00000  Uiso   1.00
H438   H     0.64896   0.42947   0.17012   0.00000  Uiso   1.00
H439   H     0.58073   0.48375   0.21375   0.00000  Uiso   1.00
H440   H     0.69482   0.32734   0.23090   0.00000  Uiso   1.00
H441   H     0.68995   0.49015   0.07883   0.00000  Uiso   1.00
H442   H     0.47576   0.52361   0.24149   0.00000  Uiso   1.00
H443   H     0.71635   0.19383   0.27764   0.00000  Uiso   1.00
H444   H     0.70607   0.53714   0.95697   0.00000  Uiso   1.00
H445   H     0.42302   0.27305   0.01108   0.00000  Uiso   1.00
H446   H     0.34239   0.31875   0.04598   0.00000  Uiso   1.00
H447   H     0.45649   0.16235   0.06313   0.00000  Uiso   1.00
H448   H     0.45161   0.32516   0.91106   0.00000  Uiso   1.00
H449   H     0.28231   0.38969   0.10533   0.00000  Uiso   1.00
H450   H     0.52290   0.05991   0.14147   0.00000  Uiso   1.00
H451   H     0.51262   0.40322   0.82081   0.00000  Uiso   1.00
O452   O     0.33007   0.48952   0.19925   0.00000  Uiso   1.00
O453   O     0.64572   0.05686   0.24666   0.00000  Uiso   1.00
O454   O     0.63223   0.50728   0.82596   0.00000  Uiso   1.00
N455   N     0.44130   0.48583   0.20465   0.00000  Uiso   1.00
N456   N     0.66623   0.17750   0.23845   0.00000  Uiso   1.00
N457   N     0.65663   0.49846   0.93865   0.00000  Uiso   1.00
N458   N     0.33720   0.41377   0.13138   0.00000  Uiso   1.00
N459   N     0.56214   0.10544   0.16518   0.00000  Uiso   1.00
N460   N     0.55254   0.42640   0.86538   0.00000  Uiso   1.00
C461   C     0.33386   0.15415   0.53397   0.00000  Uiso   1.00
C462   C     0.32910   0.12634   0.47024   0.00000  Uiso   1.00
C463   C     0.37221   0.16088   0.43696   0.00000  Uiso   1.00
C464   C     0.35937   0.12661   0.37949   0.00000  Uiso   1.00
C465   C     0.36018   0.09355   0.28406   0.00000  Uiso   1.00
C466   C     0.25607   0.15401   0.51778   0.00000  Uiso   1.00
C467   C     0.23778   0.21181   0.52449   0.00000  Uiso   1.00
C468   C     0.16346   0.20083   0.50705   0.00000  Uiso   1.00
C469   C     0.05090   0.21070   0.48548   0.00000  Uiso   1.00
C470   C     0.34823   0.09832   0.58450   0.00000  Uiso   1.00
C471   C     0.40741   0.10929   0.64731   0.00000  Uiso   1.00
C472   C     0.41068   0.05143   0.68605   0.00000  Uiso   1.00
C473   C     0.44121   0.97484   0.76806   0.00000  Uiso   1.00
C474   C     0.23441   0.03187   0.49108   0.00000  Uiso   1.00
C475   C     0.27508   0.05992   0.44694   0.00000  Uiso   1.00
C476   C     0.26218   0.02559   0.38951   0.00000  Uiso   1.00
C477   C     0.30526   0.06008   0.35616   0.00000  Uiso   1.00
C478   C     0.20206   0.08759   0.49449   0.00000  Uiso   1.00
C479   C     0.12775   0.07652   0.47704   0.00000  Uiso   1.00
C480   C     0.10935   0.13429   0.48371   0.00000  Uiso   1.00
C481   C     0.29422   0.03190   0.56121   0.00000  Uiso   1.00
C482   C     0.29738   0.97401   0.59986   0.00000  Uiso   1.00
C483   C     0.35656   0.98489   0.66271   0.00000  Uiso   1.00
H484   H     0.37591   0.20586   0.55211   0.00000  Uiso   1.00
H485   H     0.41400   0.21228   0.45500   0.00000  Uiso   1.00
H486   H     0.27959   0.26320   0.54253   0.00000  Uiso   1.00
H487   H     0.44920   0.16070   0.66532   0.00000  Uiso   1.00
H488   H     0.43239   0.19012   0.33706   0.00000  Uiso   1.00
H489   H     0.14900   0.29747   0.52162   0.00000  Uiso   1.00
H490   H     0.50665   0.08134   0.78057   0.00000  Uiso   1.00
H491   H     0.19235   0.98016   0.47295   0.00000  Uiso   1.00
H492   H     0.22037   0.97420   0.37150   0.00000  Uiso   1.00
H493   H     0.08596   0.02512   0.45902   0.00000  Uiso   1.00
H494   H     0.25557   0.92262   0.58181   0.00000  Uiso   1.00
H495   H     0.27523   0.99688   0.26928   0.00000  Uiso   1.00
H496   H     0.99184   0.10424   0.45385   0.00000  Uiso   1.00
H497   H     0.34949   0.88810   0.71279   0.00000  Uiso   1.00
O498   O     0.37554   0.09366   0.23785   0.00000  Uiso   1.00
O499   O     0.00374   0.23450   0.48000   0.00000  Uiso   1.00
O500   O     0.47297   0.95093   0.81973   0.00000  Uiso   1.00
N501   N     0.39157   0.14545   0.33504   0.00000  Uiso   1.00
N502   N     0.12661   0.24583   0.50758   0.00000  Uiso   1.00
N503   N     0.46097   0.04376   0.74968   0.00000  Uiso   1.00
N504   N     0.30701   0.04148   0.29856   0.00000  Uiso   1.00
N505   N     0.04204   0.14185   0.47111   0.00000  Uiso   1.00
N506   N     0.37641   0.93978   0.71321   0.00000  Uiso   1.00
C507   C     0.21492   0.59834   0.26361   0.00000  Uiso   1.00
C508   C     0.18542   0.51809   0.25683   0.00000  Uiso   1.00
C509   C     0.22829   0.47424   0.27943   0.00000  Uiso   1.00
C510   C     0.19077   0.40226   0.26841   0.00000  Uiso   1.00
C511   C     0.15677   0.28177   0.26279   0.00000  Uiso   1.00
C512   C     0.18369   0.62274   0.19292   0.00000  Uiso   1.00
C513   C     0.22511   0.66689   0.16180   0.00000  Uiso   1.00
C514   C     0.18613   0.68301   0.09698   0.00000  Uiso   1.00
C515   C     0.14944   0.72503   0.99217   0.00000  Uiso   1.00
C516   C     0.17773   0.62001   0.30011   0.00000  Uiso   1.00
C517   C     0.21415   0.66188   0.35910   0.00000  Uiso   1.00
C518   C     0.17015   0.67571   0.38452   0.00000  Uiso   1.00
C519   C     0.12422   0.71350   0.44613   0.00000  Uiso   1.00
C520   C     0.07204   0.54847   0.20385   0.00000  Uiso   1.00
C521   C     0.10781   0.49100   0.22437   0.00000  Uiso   1.00
C522   C     0.07021   0.41906   0.21331   0.00000  Uiso   1.00
C523   C     0.11302   0.37511   0.23589   0.00000  Uiso   1.00
C524   C     0.10608   0.59565   0.16046   0.00000  Uiso   1.00
C525   C     0.06703   0.61171   0.09568   0.00000  Uiso   1.00
C526   C     0.10838   0.65587   0.06446   0.00000  Uiso   1.00
C527   C     0.10013   0.59292   0.26765   0.00000  Uiso   1.00
C528   C     0.05607   0.60669   0.29298   0.00000  Uiso   1.00
C529   C     0.09241   0.64857   0.35200   0.00000  Uiso   1.00
H530   H     0.27534   0.61944   0.28887   0.00000  Uiso   1.00
H531   H     0.28835   0.49523   0.30454   0.00000  Uiso   1.00
H532   H     0.28517   0.68786   0.18693   0.00000  Uiso   1.00
H533   H     0.27420   0.68284   0.38420   0.00000  Uiso   1.00
H534   H     0.26855   0.34558   0.30757   0.00000  Uiso   1.00
H535   H     0.26184   0.75176   0.05959   0.00000  Uiso   1.00
H536   H     0.23873   0.74118   0.47558   0.00000  Uiso   1.00
H537   H     0.01162   0.52737   0.17858   0.00000  Uiso   1.00
H538   H     0.01016   0.39811   0.18819   0.00000  Uiso   1.00
H539   H     0.00697   0.59074   0.07058   0.00000  Uiso   1.00
H540   H     0.99601   0.58572   0.26785   0.00000  Uiso   1.00
H541   H     0.04276   0.26675   0.21314   0.00000  Uiso   1.00
H542   H     0.03605   0.67293   0.96516   0.00000  Uiso   1.00
H543   H     0.01293   0.66235   0.38114   0.00000  Uiso   1.00
O544   O     0.15946   0.22279   0.26865   0.00000  Uiso   1.00
O545   O     0.15065   0.75569   0.94332   0.00000  Uiso   1.00
O546   O     0.12032   0.74182   0.48908   0.00000  Uiso   1.00
N547   N     0.21561   0.34477   0.28404   0.00000  Uiso   1.00
N548   N     0.20934   0.72451   0.05219   0.00000  Uiso   1.00
N549   N     0.18773   0.71464   0.44109   0.00000  Uiso   1.00
N550   N     0.09412   0.30235   0.23323   0.00000  Uiso   1.00
N551   N     0.08784   0.68209   0.00138   0.00000  Uiso   1.00
N552   N     0.06623   0.67222   0.39028   0.00000  Uiso   1.00
