data_job_02006
_audit_creation_date              2018-12-19
_audit_creation_method            'Materials Studio'
_symmetry_space_group_name_H-M    'P1'
_symmetry_Int_Tables_number       1
_symmetry_cell_setting            triclinic
loop_
_symmetry_equiv_pos_as_xyz
  x,y,z
_cell_length_a                    21.8653
_cell_length_b                    12.1466
_cell_length_c                    13.4671
_cell_angle_alpha                 90.0000
_cell_angle_beta                  90.2717
_cell_angle_gamma                 90.0000
loop_
_atom_site_label
_atom_site_type_symbol
_atom_site_fract_x
_atom_site_fract_y
_atom_site_fract_z
_atom_site_U_iso_or_equiv
_atom_site_adp_type
_atom_site_occupancy
C1     C     0.83561   0.03964   0.43862   0.00000  Uiso   1.00
C2     C     0.86202   0.97003   0.52273   0.00000  Uiso   1.00
C3     C     0.90229   0.88259   0.51184   0.00000  Uiso   1.00
C4     C     0.92113   0.82940   0.59795   0.00000  Uiso   1.00
C5     C     0.96527   0.71623   0.71432   0.00000  Uiso   1.00
C6     C     0.76628   0.03215   0.44835   0.00000  Uiso   1.00
C7     C     0.72605   0.99697   0.37491   0.00000  Uiso   1.00
C8     C     0.66430   0.99609   0.39841   0.00000  Uiso   1.00
C9     C     0.55979   0.97945   0.39927   0.00000  Uiso   1.00
C10    C     0.85238   0.15853   0.46284   0.00000  Uiso   1.00
C11    C     0.88453   0.22962   0.40158   0.00000  Uiso   1.00
C12    C     0.89525   0.33514   0.43727   0.00000  Uiso   1.00
C13    C     0.92443   0.51473   0.46064   0.00000  Uiso   1.00
C14    C     0.79746   0.10064   0.61092   0.00000  Uiso   1.00
C15    C     0.84130   0.00316   0.61632   0.00000  Uiso   1.00
C16    C     0.86008   0.95009   0.70247   0.00000  Uiso   1.00
C17    C     0.90037   0.86259   0.69171   0.00000  Uiso   1.00
C18    C     0.74556   0.06528   0.54193   0.00000  Uiso   1.00
C19    C     0.68384   0.06446   0.56554   0.00000  Uiso   1.00
C20    C     0.64353   0.02928   0.49217   0.00000  Uiso   1.00
C21    C     0.83166   0.19166   0.55643   0.00000  Uiso   1.00
C22    C     0.84233   0.29710   0.59222   0.00000  Uiso   1.00
C23    C     0.87449   0.36834   0.53103   0.00000  Uiso   1.00
H24    H     0.85174   0.01384   0.36575   0.00000  Uiso   1.00
H25    H     0.91831   0.85697   0.43940   0.00000  Uiso   1.00
H26    H     0.74210   0.97134   0.30249   0.00000  Uiso   1.00
H27    H     0.90056   0.20395   0.32916   0.00000  Uiso   1.00
H28    H     0.98297   0.69764   0.56232   0.00000  Uiso   1.00
H29    H     0.61141   0.93883   0.27363   0.00000  Uiso   1.00
H30    H     0.94555   0.42933   0.32987   0.00000  Uiso   1.00
H31    H     0.78132   0.12644   0.68378   0.00000  Uiso   1.00
H32    H     0.84404   0.97574   0.77489   0.00000  Uiso   1.00
H33    H     0.66782   0.09011   0.63797   0.00000  Uiso   1.00
H34    H     0.82628   0.32272   0.66464   0.00000  Uiso   1.00
H35    H     0.92268   0.79403   0.83461   0.00000  Uiso   1.00
H36    H     0.55112   0.03523   0.54592   0.00000  Uiso   1.00
H37    H     0.88527   0.52573   0.60216   0.00000  Uiso   1.00
O38    O     0.99533   0.64465   0.75266   0.00000  Uiso   1.00
O39    O     0.50787   0.96111   0.37390   0.00000  Uiso   1.00
O40    O     0.94626   0.60462   0.44768   0.00000  Uiso   1.00
N41    N     0.96018   0.74102   0.61390   0.00000  Uiso   1.00
N42    N     0.61280   0.96651   0.34400   0.00000  Uiso   1.00
N43    N     0.92518   0.42509   0.39657   0.00000  Uiso   1.00
N44    N     0.92774   0.79289   0.76042   0.00000  Uiso   1.00
N45    N     0.58036   0.01838   0.49052   0.00000  Uiso   1.00
N46    N     0.89274   0.47696   0.54308   0.00000  Uiso   1.00
C47    C     0.16439   0.53964   0.06138   0.00000  Uiso   1.00
C48    C     0.13798   0.47003   0.97727   0.00000  Uiso   1.00
C49    C     0.09771   0.38259   0.98816   0.00000  Uiso   1.00
C50    C     0.07887   0.32940   0.90205   0.00000  Uiso   1.00
C51    C     0.03473   0.21623   0.78568   0.00000  Uiso   1.00
C52    C     0.23372   0.53215   0.05165   0.00000  Uiso   1.00
C53    C     0.27395   0.49697   0.12509   0.00000  Uiso   1.00
C54    C     0.33570   0.49609   0.10159   0.00000  Uiso   1.00
C55    C     0.44021   0.47945   0.10073   0.00000  Uiso   1.00
C56    C     0.14762   0.65853   0.03716   0.00000  Uiso   1.00
C57    C     0.11547   0.72962   0.09842   0.00000  Uiso   1.00
C58    C     0.10475   0.83514   0.06273   0.00000  Uiso   1.00
C59    C     0.07557   0.01473   0.03936   0.00000  Uiso   1.00
C60    C     0.20254   0.60064   0.88908   0.00000  Uiso   1.00
C61    C     0.15870   0.50316   0.88368   0.00000  Uiso   1.00
C62    C     0.13992   0.45009   0.79753   0.00000  Uiso   1.00
C63    C     0.09963   0.36259   0.80829   0.00000  Uiso   1.00
C64    C     0.25444   0.56528   0.95807   0.00000  Uiso   1.00
C65    C     0.31616   0.56446   0.93446   0.00000  Uiso   1.00
C66    C     0.35647   0.52928   0.00783   0.00000  Uiso   1.00
C67    C     0.16834   0.69166   0.94357   0.00000  Uiso   1.00
C68    C     0.15767   0.79710   0.90778   0.00000  Uiso   1.00
C69    C     0.12551   0.86834   0.96897   0.00000  Uiso   1.00
H70    H     0.14826   0.51384   0.13425   0.00000  Uiso   1.00
H71    H     0.08169   0.35697   0.06060   0.00000  Uiso   1.00
H72    H     0.25790   0.47134   0.19751   0.00000  Uiso   1.00
H73    H     0.09944   0.70395   0.17084   0.00000  Uiso   1.00
H74    H     0.01703   0.19764   0.93768   0.00000  Uiso   1.00
H75    H     0.38859   0.43883   0.22637   0.00000  Uiso   1.00
H76    H     0.05445   0.92933   0.17013   0.00000  Uiso   1.00
H77    H     0.21868   0.62644   0.81622   0.00000  Uiso   1.00
H78    H     0.15596   0.47574   0.72511   0.00000  Uiso   1.00
H79    H     0.33218   0.59011   0.86203   0.00000  Uiso   1.00
H80    H     0.17372   0.82272   0.83536   0.00000  Uiso   1.00
H81    H     0.07732   0.29403   0.66539   0.00000  Uiso   1.00
H82    H     0.44888   0.53523   0.95408   0.00000  Uiso   1.00
H83    H     0.11473   0.02573   0.89784   0.00000  Uiso   1.00
O84    O     0.00467   0.14465   0.74734   0.00000  Uiso   1.00
O85    O     0.49213   0.46111   0.12610   0.00000  Uiso   1.00
O86    O     0.05374   0.10462   0.05232   0.00000  Uiso   1.00
N87    N     0.03982   0.24102   0.88610   0.00000  Uiso   1.00
N88    N     0.38720   0.46651   0.15600   0.00000  Uiso   1.00
N89    N     0.07482   0.92509   0.10343   0.00000  Uiso   1.00
N90    N     0.07226   0.29289   0.73958   0.00000  Uiso   1.00
N91    N     0.41964   0.51838   0.00948   0.00000  Uiso   1.00
N92    N     0.10726   0.97696   0.95692   0.00000  Uiso   1.00
C93    C     0.16439   0.96036   0.56138   0.00000  Uiso   1.00
C94    C     0.13798   0.02997   0.47727   0.00000  Uiso   1.00
C95    C     0.09771   0.11741   0.48816   0.00000  Uiso   1.00
C96    C     0.07887   0.17060   0.40205   0.00000  Uiso   1.00
C97    C     0.03473   0.28377   0.28568   0.00000  Uiso   1.00
C98    C     0.23372   0.96785   0.55165   0.00000  Uiso   1.00
C99    C     0.27395   0.00303   0.62509   0.00000  Uiso   1.00
C100   C     0.33570   0.00391   0.60159   0.00000  Uiso   1.00
C101   C     0.44021   0.02055   0.60073   0.00000  Uiso   1.00
C102   C     0.14762   0.84147   0.53716   0.00000  Uiso   1.00
C103   C     0.11547   0.77038   0.59842   0.00000  Uiso   1.00
C104   C     0.10475   0.66486   0.56273   0.00000  Uiso   1.00
C105   C     0.07557   0.48527   0.53936   0.00000  Uiso   1.00
C106   C     0.20254   0.89936   0.38908   0.00000  Uiso   1.00
C107   C     0.15870   0.99684   0.38368   0.00000  Uiso   1.00
C108   C     0.13992   0.04991   0.29753   0.00000  Uiso   1.00
C109   C     0.09963   0.13741   0.30829   0.00000  Uiso   1.00
C110   C     0.25444   0.93472   0.45807   0.00000  Uiso   1.00
C111   C     0.31616   0.93554   0.43446   0.00000  Uiso   1.00
C112   C     0.35647   0.97072   0.50783   0.00000  Uiso   1.00
C113   C     0.16834   0.80834   0.44357   0.00000  Uiso   1.00
C114   C     0.15767   0.70290   0.40778   0.00000  Uiso   1.00
C115   C     0.12551   0.63166   0.46897   0.00000  Uiso   1.00
H116   H     0.14826   0.98616   0.63425   0.00000  Uiso   1.00
H117   H     0.08169   0.14303   0.56060   0.00000  Uiso   1.00
H118   H     0.25790   0.02866   0.69751   0.00000  Uiso   1.00
H119   H     0.09944   0.79605   0.67084   0.00000  Uiso   1.00
H120   H     0.01703   0.30236   0.43768   0.00000  Uiso   1.00
H121   H     0.38859   0.06117   0.72637   0.00000  Uiso   1.00
H122   H     0.05445   0.57067   0.67013   0.00000  Uiso   1.00
H123   H     0.21868   0.87356   0.31622   0.00000  Uiso   1.00
H124   H     0.15596   0.02426   0.22511   0.00000  Uiso   1.00
H125   H     0.33218   0.90989   0.36203   0.00000  Uiso   1.00
H126   H     0.17372   0.67728   0.33536   0.00000  Uiso   1.00
H127   H     0.07732   0.20597   0.16539   0.00000  Uiso   1.00
H128   H     0.44888   0.96477   0.45408   0.00000  Uiso   1.00
H129   H     0.11473   0.47427   0.39784   0.00000  Uiso   1.00
O130   O     0.00467   0.35535   0.24734   0.00000  Uiso   1.00
O131   O     0.49213   0.03889   0.62610   0.00000  Uiso   1.00
O132   O     0.05374   0.39538   0.55232   0.00000  Uiso   1.00
N133   N     0.03982   0.25898   0.38610   0.00000  Uiso   1.00
N134   N     0.38720   0.03349   0.65600   0.00000  Uiso   1.00
N135   N     0.07482   0.57491   0.60343   0.00000  Uiso   1.00
N136   N     0.07226   0.20711   0.23958   0.00000  Uiso   1.00
N137   N     0.41964   0.98162   0.50948   0.00000  Uiso   1.00
N138   N     0.10726   0.52304   0.45692   0.00000  Uiso   1.00
C139   C     0.83561   0.46036   0.93862   0.00000  Uiso   1.00
C140   C     0.86202   0.52997   0.02273   0.00000  Uiso   1.00
C141   C     0.90229   0.61741   0.01184   0.00000  Uiso   1.00
C142   C     0.92113   0.67060   0.09795   0.00000  Uiso   1.00
C143   C     0.96527   0.78377   0.21432   0.00000  Uiso   1.00
C144   C     0.76628   0.46785   0.94835   0.00000  Uiso   1.00
C145   C     0.72605   0.50303   0.87491   0.00000  Uiso   1.00
C146   C     0.66430   0.50391   0.89841   0.00000  Uiso   1.00
C147   C     0.55979   0.52055   0.89927   0.00000  Uiso   1.00
C148   C     0.85238   0.34147   0.96284   0.00000  Uiso   1.00
C149   C     0.88453   0.27038   0.90158   0.00000  Uiso   1.00
C150   C     0.89525   0.16486   0.93727   0.00000  Uiso   1.00
C151   C     0.92443   0.98527   0.96064   0.00000  Uiso   1.00
C152   C     0.79746   0.39936   0.11092   0.00000  Uiso   1.00
C153   C     0.84130   0.49684   0.11632   0.00000  Uiso   1.00
C154   C     0.86008   0.54991   0.20247   0.00000  Uiso   1.00
C155   C     0.90037   0.63741   0.19171   0.00000  Uiso   1.00
C156   C     0.74556   0.43472   0.04193   0.00000  Uiso   1.00
C157   C     0.68384   0.43554   0.06554   0.00000  Uiso   1.00
C158   C     0.64353   0.47072   0.99217   0.00000  Uiso   1.00
C159   C     0.83166   0.30834   0.05643   0.00000  Uiso   1.00
C160   C     0.84233   0.20290   0.09222   0.00000  Uiso   1.00
C161   C     0.87449   0.13166   0.03103   0.00000  Uiso   1.00
H162   H     0.85174   0.48616   0.86575   0.00000  Uiso   1.00
H163   H     0.91831   0.64303   0.93940   0.00000  Uiso   1.00
H164   H     0.74210   0.52866   0.80249   0.00000  Uiso   1.00
H165   H     0.90056   0.29605   0.82916   0.00000  Uiso   1.00
H166   H     0.98297   0.80236   0.06232   0.00000  Uiso   1.00
H167   H     0.61141   0.56117   0.77363   0.00000  Uiso   1.00
H168   H     0.94555   0.07067   0.82987   0.00000  Uiso   1.00
H169   H     0.78132   0.37356   0.18378   0.00000  Uiso   1.00
H170   H     0.84404   0.52426   0.27489   0.00000  Uiso   1.00
H171   H     0.66782   0.40989   0.13797   0.00000  Uiso   1.00
H172   H     0.82628   0.17728   0.16464   0.00000  Uiso   1.00
H173   H     0.92268   0.70597   0.33461   0.00000  Uiso   1.00
H174   H     0.55112   0.46477   0.04592   0.00000  Uiso   1.00
H175   H     0.88527   0.97427   0.10216   0.00000  Uiso   1.00
O176   O     0.99533   0.85535   0.25266   0.00000  Uiso   1.00
O177   O     0.50787   0.53889   0.87390   0.00000  Uiso   1.00
O178   O     0.94626   0.89538   0.94768   0.00000  Uiso   1.00
N179   N     0.96018   0.75898   0.11390   0.00000  Uiso   1.00
N180   N     0.61280   0.53349   0.84400   0.00000  Uiso   1.00
N181   N     0.92518   0.07491   0.89657   0.00000  Uiso   1.00
N182   N     0.92774   0.70711   0.26042   0.00000  Uiso   1.00
N183   N     0.58036   0.48162   0.99052   0.00000  Uiso   1.00
N184   N     0.89274   0.02304   0.04308   0.00000  Uiso   1.00
