data_job_06745
_audit_creation_date              2018-12-19
_audit_creation_method            'Materials Studio'
_symmetry_space_group_name_H-M    'P1'
_symmetry_Int_Tables_number       1
_symmetry_cell_setting            triclinic
loop_
_symmetry_equiv_pos_as_xyz
  x,y,z
_cell_length_a                    24.7959
_cell_length_b                    21.0652
_cell_length_c                    18.5365
_cell_angle_alpha                 104.6220
_cell_angle_beta                  99.7494
_cell_angle_gamma                 83.9778
loop_
_atom_site_label
_atom_site_type_symbol
_atom_site_fract_x
_atom_site_fract_y
_atom_site_fract_z
_atom_site_U_iso_or_equiv
_atom_site_adp_type
_atom_site_occupancy
C1     C     0.88101   0.35219   0.89782   0.00000  Uiso   1.00
C2     C     0.91638   0.39697   0.96192   0.00000  Uiso   1.00
C3     C     0.95626   0.43512   0.95376   0.00000  Uiso   1.00
C4     C     0.98415   0.47271   0.01936   0.00000  Uiso   1.00
C5     C     0.04086   0.54229   0.10807   0.00000  Uiso   1.00
C6     C     0.89030   0.28398   0.91368   0.00000  Uiso   1.00
C7     C     0.90825   0.22713   0.86495   0.00000  Uiso   1.00
C8     C     0.91417   0.16960   0.88994   0.00000  Uiso   1.00
C9     C     0.93035   0.06376   0.90374   0.00000  Uiso   1.00
C10    C     0.82167   0.37488   0.90764   0.00000  Uiso   1.00
C11    C     0.78192   0.39446   0.85382   0.00000  Uiso   1.00
C12    C     0.73006   0.41345   0.87372   0.00000  Uiso   1.00
C13    C     0.63969   0.44876   0.87813   0.00000  Uiso   1.00
C14    C     0.85959   0.35110   0.02883   0.00000  Uiso   1.00
C15    C     0.90474   0.39637   0.03308   0.00000  Uiso   1.00
C16    C     0.93257   0.43391   0.09871   0.00000  Uiso   1.00
C17    C     0.97249   0.47212   0.09065   0.00000  Uiso   1.00
C18    C     0.87867   0.28338   0.98484   0.00000  Uiso   1.00
C19    C     0.88456   0.22592   0.00990   0.00000  Uiso   1.00
C20    C     0.90252   0.16901   0.96123   0.00000  Uiso   1.00
C21    C     0.81004   0.37429   0.97880   0.00000  Uiso   1.00
C22    C     0.75823   0.39325   0.99878   0.00000  Uiso   1.00
C23    C     0.71841   0.41286   0.94501   0.00000  Uiso   1.00
H24    H     0.89006   0.35265   0.84241   0.00000  Uiso   1.00
H25    H     0.96526   0.43556   0.89868   0.00000  Uiso   1.00
H26    H     0.91724   0.22760   0.80989   0.00000  Uiso   1.00
H27    H     0.79093   0.39491   0.79876   0.00000  Uiso   1.00
H28    H     0.04351   0.52720   0.99244   0.00000  Uiso   1.00
H29    H     0.94225   0.08871   0.80521   0.00000  Uiso   1.00
H30    H     0.67591   0.44150   0.78174   0.00000  Uiso   1.00
H31    H     0.85054   0.35064   0.08423   0.00000  Uiso   1.00
H32    H     0.92356   0.43344   0.15377   0.00000  Uiso   1.00
H33    H     0.87555   0.22548   0.06497   0.00000  Uiso   1.00
H34    H     0.74924   0.39279   0.05385   0.00000  Uiso   1.00
H35    H     0.00967   0.52548   0.19948   0.00000  Uiso   1.00
H36    H     0.90841   0.08699   0.01224   0.00000  Uiso   1.00
H37    H     0.64207   0.43978   0.98878   0.00000  Uiso   1.00
O38    O     0.07536   0.58083   0.13734   0.00000  Uiso   1.00
O39    O     0.94250   0.00555   0.89169   0.00000  Uiso   1.00
O40    O     0.59306   0.46841   0.86091   0.00000  Uiso   1.00
N41    N     0.02552   0.51544   0.03162   0.00000  Uiso   1.00
N42    N     0.93085   0.10548   0.85658   0.00000  Uiso   1.00
N43    N     0.68184   0.43530   0.83463   0.00000  Uiso   1.00
N44    N     0.00731   0.51452   0.14303   0.00000  Uiso   1.00
N45    N     0.91265   0.10456   0.96798   0.00000  Uiso   1.00
N46    N     0.66363   0.43437   0.94604   0.00000  Uiso   1.00
C47    C     0.89959   0.82655   0.34010   0.00000  Uiso   1.00
C48    C     0.88423   0.89824   0.33844   0.00000  Uiso   1.00
C49    C     0.83419   0.93187   0.35101   0.00000  Uiso   1.00
C50    C     0.82821   0.99722   0.34697   0.00000  Uiso   1.00
C51    C     0.79787   0.10387   0.34679   0.00000  Uiso   1.00
C52    C     0.91695   0.79312   0.26372   0.00000  Uiso   1.00
C53    C     0.89443   0.73836   0.21347   0.00000  Uiso   1.00
C54    C     0.91601   0.71521   0.14654   0.00000  Uiso   1.00
C55    C     0.93649   0.65864   0.03037   0.00000  Uiso   1.00
C56    C     0.95130   0.82682   0.39791   0.00000  Uiso   1.00
C57    C     0.95766   0.80039   0.46050   0.00000  Uiso   1.00
C58    C     0.00816   0.80561   0.50654   0.00000  Uiso   1.00
C59    C     0.08197   0.80137   0.59874   0.00000  Uiso   1.00
C60    C     0.97795   0.88278   0.31058   0.00000  Uiso   1.00
C61    C     0.92679   0.92877   0.32240   0.00000  Uiso   1.00
C62    C     0.92088   0.99409   0.31835   0.00000  Uiso   1.00
C63    C     0.87085   0.02781   0.33092   0.00000  Uiso   1.00
C64    C     0.95951   0.82366   0.24768   0.00000  Uiso   1.00
C65    C     0.98113   0.80058   0.18081   0.00000  Uiso   1.00
C66    C     0.95864   0.74581   0.13048   0.00000  Uiso   1.00
C67    C     0.99386   0.85736   0.38188   0.00000  Uiso   1.00
C68    C     0.04436   0.86261   0.42784   0.00000  Uiso   1.00
C69    C     0.05080   0.83620   0.49048   0.00000  Uiso   1.00
H70    H     0.86646   0.80277   0.35258   0.00000  Uiso   1.00
H71    H     0.80126   0.90822   0.36341   0.00000  Uiso   1.00
H72    H     0.86150   0.71474   0.22589   0.00000  Uiso   1.00
H73    H     0.92472   0.77676   0.47288   0.00000  Uiso   1.00
H74    H     0.74774   0.03859   0.36832   0.00000  Uiso   1.00
H75    H     0.87477   0.63062   0.07837   0.00000  Uiso   1.00
H76    H     0.00808   0.76140   0.59920   0.00000  Uiso   1.00
H77    H     0.01109   0.90655   0.29810   0.00000  Uiso   1.00
H78    H     0.95383   0.01771   0.30594   0.00000  Uiso   1.00
H79    H     0.01406   0.82422   0.16843   0.00000  Uiso   1.00
H80    H     0.07728   0.88625   0.41542   0.00000  Uiso   1.00
H81    H     0.87157   0.12746   0.32167   0.00000  Uiso   1.00
H82    H     0.99860   0.71948   0.03173   0.00000  Uiso   1.00
H83    H     0.13191   0.85027   0.55255   0.00000  Uiso   1.00
O84    O     0.76937   0.15426   0.35111   0.00000  Uiso   1.00
O85    O     0.93603   0.61901   0.97073   0.00000  Uiso   1.00
O86    O     0.11093   0.79060   0.65403   0.00000  Uiso   1.00
N87    N     0.78474   0.04426   0.35628   0.00000  Uiso   1.00
N88    N     0.90350   0.66283   0.08519   0.00000  Uiso   1.00
N89    N     0.02814   0.78509   0.57211   0.00000  Uiso   1.00
N90    N     0.85138   0.09207   0.33118   0.00000  Uiso   1.00
N91    N     0.97013   0.71065   0.06009   0.00000  Uiso   1.00
N92    N     0.09477   0.83291   0.54701   0.00000  Uiso   1.00
C93    C     0.25882   0.02990   0.89604   0.00000  Uiso   1.00
C94    C     0.28032   0.09734   0.93408   0.00000  Uiso   1.00
C95    C     0.29599   0.12118   0.01095   0.00000  Uiso   1.00
C96    C     0.31453   0.18412   0.03456   0.00000  Uiso   1.00
C97    C     0.34746   0.28312   0.10145   0.00000  Uiso   1.00
C98    C     0.20312   0.04267   0.85086   0.00000  Uiso   1.00
C99    C     0.15389   0.02054   0.85775   0.00000  Uiso   1.00
C100   C     0.10745   0.03745   0.81129   0.00000  Uiso   1.00
C101   C     0.02054   0.05153   0.74895   0.00000  Uiso   1.00
C102   C     0.29648   0.99723   0.83824   0.00000  Uiso   1.00
C103   C     0.32574   0.93689   0.83452   0.00000  Uiso   1.00
C104   C     0.35789   0.91554   0.77742   0.00000  Uiso   1.00
C105   C     0.41594   0.85908   0.69549   0.00000  Uiso   1.00
C106   C     0.26388   0.09928   0.80126   0.00000  Uiso   1.00
C107   C     0.28306   0.13502   0.88259   0.00000  Uiso   1.00
C108   C     0.30158   0.19794   0.90609   0.00000  Uiso   1.00
C109   C     0.31728   0.22188   0.98298   0.00000  Uiso   1.00
C110   C     0.20587   0.08035   0.79938   0.00000  Uiso   1.00
C111   C     0.15948   0.09730   0.75289   0.00000  Uiso   1.00
C112   C     0.11020   0.07520   0.75972   0.00000  Uiso   1.00
C113   C     0.29923   0.03492   0.78676   0.00000  Uiso   1.00
C114   C     0.33133   0.01365   0.72966   0.00000  Uiso   1.00
C115   C     0.36064   0.95329   0.72585   0.00000  Uiso   1.00
H116   H     0.25668   0.00056   0.93612   0.00000  Uiso   1.00
H117   H     0.29386   0.09201   0.05077   0.00000  Uiso   1.00
H118   H     0.15178   0.99137   0.89759   0.00000  Uiso   1.00
H119   H     0.32361   0.90774   0.87436   0.00000  Uiso   1.00
H120   H     0.33626   0.21002   0.15519   0.00000  Uiso   1.00
H121   H     0.03670   0.99781   0.83218   0.00000  Uiso   1.00
H122   H     0.39902   0.82145   0.78320   0.00000  Uiso   1.00
H123   H     0.26601   0.12862   0.76118   0.00000  Uiso   1.00
H124   H     0.30370   0.22710   0.86624   0.00000  Uiso   1.00
H125   H     0.16162   0.12646   0.71306   0.00000  Uiso   1.00
H126   H     0.33345   0.04283   0.68983   0.00000  Uiso   1.00
H127   H     0.34425   0.31967   0.00541   0.00000  Uiso   1.00
H128   H     0.04468   0.10745   0.68240   0.00000  Uiso   1.00
H129   H     0.40701   0.93110   0.63342   0.00000  Uiso   1.00
O130   O     0.36486   0.32732   0.15257   0.00000  Uiso   1.00
O131   O     0.97185   0.04889   0.72879   0.00000  Uiso   1.00
O132   O     0.44721   0.81753   0.66453   0.00000  Uiso   1.00
N133   N     0.33298   0.22231   0.10552   0.00000  Uiso   1.00
N134   N     0.05290   0.02391   0.80354   0.00000  Uiso   1.00
N135   N     0.39163   0.85902   0.75773   0.00000  Uiso   1.00
N136   N     0.33728   0.28131   0.02492   0.00000  Uiso   1.00
N137   N     0.05720   0.08291   0.72294   0.00000  Uiso   1.00
N138   N     0.39593   0.91802   0.67714   0.00000  Uiso   1.00
C139   C     0.33361   0.47029   0.70113   0.00000  Uiso   1.00
C140   C     0.37121   0.52241   0.75019   0.00000  Uiso   1.00
C141   C     0.42414   0.51051   0.78494   0.00000  Uiso   1.00
C142   C     0.45180   0.56484   0.82745   0.00000  Uiso   1.00
C143   C     0.51392   0.63605   0.90246   0.00000  Uiso   1.00
C144   C     0.31742   0.48895   0.62569   0.00000  Uiso   1.00
C145   C     0.32511   0.44890   0.55576   0.00000  Uiso   1.00
C146   C     0.30748   0.47506   0.49346   0.00000  Uiso   1.00
C147   C     0.28605   0.49430   0.37518   0.00000  Uiso   1.00
C148   C     0.28138   0.48013   0.73691   0.00000  Uiso   1.00
C149   C     0.25875   0.43267   0.76046   0.00000  Uiso   1.00
C150   C     0.21077   0.45140   0.79179   0.00000  Uiso   1.00
C151   C     0.13337   0.45696   0.84618   0.00000  Uiso   1.00
C152   C     0.28863   0.58793   0.71484   0.00000  Uiso   1.00
C153   C     0.34678   0.58631   0.75764   0.00000  Uiso   1.00
C154   C     0.37438   0.64067   0.80011   0.00000  Uiso   1.00
C155   C     0.42733   0.62885   0.83491   0.00000  Uiso   1.00
C156   C     0.29299   0.55284   0.63314   0.00000  Uiso   1.00
C157   C     0.27535   0.57906   0.57093   0.00000  Uiso   1.00
C158   C     0.28301   0.53907   0.50092   0.00000  Uiso   1.00
C159   C     0.25695   0.54403   0.74435   0.00000  Uiso   1.00
C160   C     0.20899   0.56284   0.77564   0.00000  Uiso   1.00
C161   C     0.18629   0.51542   0.79924   0.00000  Uiso   1.00
H162   H     0.35263   0.42054   0.69533   0.00000  Uiso   1.00
H163   H     0.44303   0.46106   0.77915   0.00000  Uiso   1.00
H164   H     0.34401   0.39946   0.55001   0.00000  Uiso   1.00
H165   H     0.27766   0.38323   0.75469   0.00000  Uiso   1.00
H166   H     0.53249   0.53415   0.87535   0.00000  Uiso   1.00
H167   H     0.32369   0.40426   0.39219   0.00000  Uiso   1.00
H168   H     0.18378   0.37004   0.82379   0.00000  Uiso   1.00
H169   H     0.26961   0.63768   0.72064   0.00000  Uiso   1.00
H170   H     0.35546   0.69011   0.80586   0.00000  Uiso   1.00
H171   H     0.25644   0.62851   0.57671   0.00000  Uiso   1.00
H172   H     0.19010   0.61229   0.78139   0.00000  Uiso   1.00
H173   H     0.46142   0.72006   0.89702   0.00000  Uiso   1.00
H174   H     0.25261   0.59017   0.41386   0.00000  Uiso   1.00
H175   H     0.11271   0.55596   0.84546   0.00000  Uiso   1.00
O176   O     0.55493   0.65768   0.94177   0.00000  Uiso   1.00
O177   O     0.28098   0.48726   0.30788   0.00000  Uiso   1.00
O178   O     0.09743   0.44237   0.87413   0.00000  Uiso   1.00
N179   N     0.50398   0.57071   0.86877   0.00000  Uiso   1.00
N180   N     0.30877   0.44927   0.41704   0.00000  Uiso   1.00
N181   N     0.17796   0.41728   0.82054   0.00000  Uiso   1.00
N182   N     0.46573   0.67075   0.88043   0.00000  Uiso   1.00
N183   N     0.27052   0.54931   0.42871   0.00000  Uiso   1.00
N184   N     0.13971   0.51732   0.83220   0.00000  Uiso   1.00
C185   C     0.41136   0.83274   0.30733   0.00000  Uiso   1.00
C186   C     0.45824   0.83675   0.37289   0.00000  Uiso   1.00
C187   C     0.45402   0.83076   0.44455   0.00000  Uiso   1.00
C188   C     0.50167   0.83588   0.49663   0.00000  Uiso   1.00
C189   C     0.56685   0.84044   0.60130   0.00000  Uiso   1.00
C190   C     0.42949   0.77834   0.24287   0.00000  Uiso   1.00
C191   C     0.40109   0.72325   0.20521   0.00000  Uiso   1.00
C192   C     0.42454   0.67920   0.14784   0.00000  Uiso   1.00
C193   C     0.44507   0.59311   0.05062   0.00000  Uiso   1.00
C194   C     0.40949   0.89665   0.28229   0.00000  Uiso   1.00
C195   C     0.36427   0.94103   0.27775   0.00000  Uiso   1.00
C196   C     0.37087   0.99659   0.25356   0.00000  Uiso   1.00
C197   C     0.36035   0.09419   0.21754   0.00000  Uiso   1.00
C198   C     0.50349   0.85249   0.27240   0.00000  Uiso   1.00
C199   C     0.50828   0.84748   0.35391   0.00000  Uiso   1.00
C200   C     0.55595   0.85261   0.40590   0.00000  Uiso   1.00
C201   C     0.55180   0.84663   0.47763   0.00000  Uiso   1.00
C202   C     0.47953   0.78907   0.22390   0.00000  Uiso   1.00
C203   C     0.50303   0.74510   0.16657   0.00000  Uiso   1.00
C204   C     0.47467   0.68995   0.12883   0.00000  Uiso   1.00
C205   C     0.45953   0.90738   0.26332   0.00000  Uiso   1.00
C206   C     0.46620   0.96288   0.23912   0.00000  Uiso   1.00
C207   C     0.42100   0.00733   0.23455   0.00000  Uiso   1.00
H208   H     0.37240   0.82438   0.32209   0.00000  Uiso   1.00
H209   H     0.41528   0.82245   0.45920   0.00000  Uiso   1.00
H210   H     0.36236   0.71496   0.21990   0.00000  Uiso   1.00
H211   H     0.32555   0.93271   0.29244   0.00000  Uiso   1.00
H212   H     0.48490   0.82502   0.60284   0.00000  Uiso   1.00
H213   H     0.37331   0.59838   0.09824   0.00000  Uiso   1.00
H214   H     0.29567   0.05754   0.25120   0.00000  Uiso   1.00
H215   H     0.54246   0.86084   0.25763   0.00000  Uiso   1.00
H216   H     0.59467   0.86091   0.39121   0.00000  Uiso   1.00
H217   H     0.54175   0.75342   0.15190   0.00000  Uiso   1.00
H218   H     0.50494   0.97116   0.22444   0.00000  Uiso   1.00
H219   H     0.63050   0.85623   0.54765   0.00000  Uiso   1.00
H220   H     0.51890   0.62959   0.04304   0.00000  Uiso   1.00
H221   H     0.44127   0.08875   0.19601   0.00000  Uiso   1.00
O222   O     0.58898   0.83999   0.66427   0.00000  Uiso   1.00
O223   O     0.44257   0.54265   0.00224   0.00000  Uiso   1.00
O224   O     0.34072   0.14507   0.20293   0.00000  Uiso   1.00
N225   N     0.51200   0.83237   0.57152   0.00000  Uiso   1.00
N226   N     0.40767   0.62047   0.09976   0.00000  Uiso   1.00
N227   N     0.33508   0.04974   0.24275   0.00000  Uiso   1.00
N228   N     0.59034   0.84916   0.54183   0.00000  Uiso   1.00
N229   N     0.48602   0.63726   0.07006   0.00000  Uiso   1.00
N230   N     0.41343   0.06653   0.21305   0.00000  Uiso   1.00
C231   C     0.75887   0.45516   0.40456   0.00000  Uiso   1.00
C232   C     0.80961   0.49308   0.44077   0.00000  Uiso   1.00
C233   C     0.85396   0.49639   0.40544   0.00000  Uiso   1.00
C234   C     0.89635   0.53367   0.44824   0.00000  Uiso   1.00
C235   C     0.97542   0.58759   0.49298   0.00000  Uiso   1.00
C236   C     0.70994   0.50522   0.41405   0.00000  Uiso   1.00
C237   C     0.67048   0.51874   0.35627   0.00000  Uiso   1.00
C238   C     0.62897   0.56625   0.37659   0.00000  Uiso   1.00
C239   C     0.55327   0.63899   0.37985   0.00000  Uiso   1.00
C240   C     0.75461   0.40853   0.45401   0.00000  Uiso   1.00
C241   C     0.75270   0.34074   0.42982   0.00000  Uiso   1.00
C242   C     0.74879   0.30683   0.48377   0.00000  Uiso   1.00
C243   C     0.74245   0.22944   0.54907   0.00000  Uiso   1.00
C244   C     0.75529   0.51549   0.54339   0.00000  Uiso   1.00
C245   C     0.80766   0.52584   0.51617   0.00000  Uiso   1.00
C246   C     0.85000   0.56313   0.55904   0.00000  Uiso   1.00
C247   C     0.89441   0.56650   0.52379   0.00000  Uiso   1.00
C248   C     0.70799   0.53799   0.48945   0.00000  Uiso   1.00
C249   C     0.66653   0.58549   0.50986   0.00000  Uiso   1.00
C250   C     0.62702   0.59908   0.45213   0.00000  Uiso   1.00
C251   C     0.75267   0.44129   0.52941   0.00000  Uiso   1.00
C252   C     0.74875   0.40749   0.58341   0.00000  Uiso   1.00
C253   C     0.74684   0.33966   0.55931   0.00000  Uiso   1.00
H254   H     0.76038   0.42965   0.34586   0.00000  Uiso   1.00
H255   H     0.85544   0.47103   0.34708   0.00000  Uiso   1.00
H256   H     0.67199   0.49337   0.29792   0.00000  Uiso   1.00
H257   H     0.75420   0.31540   0.37146   0.00000  Uiso   1.00
H258   H     0.95997   0.53137   0.38169   0.00000  Uiso   1.00
H259   H     0.57315   0.57847   0.27803   0.00000  Uiso   1.00
H260   H     0.74651   0.20318   0.43310   0.00000  Uiso   1.00
H261   H     0.75378   0.54100   0.60210   0.00000  Uiso   1.00
H262   H     0.84849   0.58848   0.61739   0.00000  Uiso   1.00
H263   H     0.66504   0.61083   0.56822   0.00000  Uiso   1.00
H264   H     0.74725   0.43286   0.64176   0.00000  Uiso   1.00
H265   H     0.95433   0.62671   0.60108   0.00000  Uiso   1.00
H266   H     0.56750   0.67380   0.49742   0.00000  Uiso   1.00
H267   H     0.74086   0.29851   0.65249   0.00000  Uiso   1.00
O268   O     0.01956   0.60829   0.49681   0.00000  Uiso   1.00
O269   O     0.51206   0.67007   0.36081   0.00000  Uiso   1.00
O270   O     0.73951   0.17770   0.56426   0.00000  Uiso   1.00
N271   N     0.94565   0.54728   0.43123   0.00000  Uiso   1.00
N272   N     0.58400   0.59132   0.33431   0.00000  Uiso   1.00
N273   N     0.74606   0.24046   0.47928   0.00000  Uiso   1.00
N274   N     0.94262   0.59858   0.54928   0.00000  Uiso   1.00
N275   N     0.58096   0.64262   0.45236   0.00000  Uiso   1.00
N276   N     0.74302   0.29176   0.59733   0.00000  Uiso   1.00
C277   C     0.12775   0.64574   0.01353   0.00000  Uiso   1.00
C278   C     0.10976   0.66657   0.93959   0.00000  Uiso   1.00
C279   C     0.06012   0.65434   0.89281   0.00000  Uiso   1.00
C280   C     0.05143   0.67746   0.82768   0.00000  Uiso   1.00
C281   C     0.01747   0.70464   0.71557   0.00000  Uiso   1.00
C282   C     0.14145   0.70857   0.07347   0.00000  Uiso   1.00
C283   C     0.11846   0.73165   0.13925   0.00000  Uiso   1.00
C284   C     0.13646   0.79012   0.18682   0.00000  Uiso   1.00
C285   C     0.15172   0.88248   0.28258   0.00000  Uiso   1.00
C286   C     0.18197   0.60513   0.00530   0.00000  Uiso   1.00
C287   C     0.19306   0.54124   0.01378   0.00000  Uiso   1.00
C288   C     0.24519   0.51262   0.00398   0.00000  Uiso   1.00
C289   C     0.32337   0.44437   0.99389   0.00000  Uiso   1.00
C290   C     0.20062   0.70853   0.98107   0.00000  Uiso   1.00
C291   C     0.14934   0.70068   0.92196   0.00000  Uiso   1.00
C292   C     0.14073   0.72382   0.85689   0.00000  Uiso   1.00
C293   C     0.09108   0.71163   0.81001   0.00000  Uiso   1.00
C294   C     0.18103   0.74268   0.05584   0.00000  Uiso   1.00
C295   C     0.19907   0.80112   0.10333   0.00000  Uiso   1.00
C296   C     0.17611   0.82429   0.16916   0.00000  Uiso   1.00
C297   C     0.22155   0.63923   0.98766   0.00000  Uiso   1.00
C298   C     0.27367   0.61071   0.97786   0.00000  Uiso   1.00
C299   C     0.28484   0.54679   0.98631   0.00000  Uiso   1.00
H300   H     0.09694   0.61919   0.02727   0.00000  Uiso   1.00
H301   H     0.02949   0.62795   0.90648   0.00000  Uiso   1.00
H302   H     0.08783   0.70524   0.15288   0.00000  Uiso   1.00
H303   H     0.16242   0.51486   0.02742   0.00000  Uiso   1.00
H304   H     0.97217   0.65273   0.76480   0.00000  Uiso   1.00
H305   H     0.09519   0.81569   0.28436   0.00000  Uiso   1.00
H306   H     0.25248   0.41423   0.01982   0.00000  Uiso   1.00
H307   H     0.23143   0.73509   0.96734   0.00000  Uiso   1.00
H308   H     0.17137   0.75021   0.84326   0.00000  Uiso   1.00
H309   H     0.22970   0.82750   0.08967   0.00000  Uiso   1.00
H310   H     0.30429   0.63712   0.96421   0.00000  Uiso   1.00
H311   H     0.08731   0.75196   0.71349   0.00000  Uiso   1.00
H312   H     0.21034   0.91492   0.23306   0.00000  Uiso   1.00
H313   H     0.36762   0.51346   0.96851   0.00000  Uiso   1.00
O314   O     0.98780   0.71022   0.65861   0.00000  Uiso   1.00
O315   O     0.14920   0.92401   0.34027   0.00000  Uiso   1.00
O316   O     0.35556   0.39730   0.99319   0.00000  Uiso   1.00
N317   N     0.00751   0.67400   0.76974   0.00000  Uiso   1.00
N318   N     0.12253   0.82636   0.25550   0.00000  Uiso   1.00
N319   N     0.26958   0.45103   0.00819   0.00000  Uiso   1.00
N320   N     0.06947   0.72739   0.74213   0.00000  Uiso   1.00
N321   N     0.18449   0.87975   0.22789   0.00000  Uiso   1.00
N322   N     0.33154   0.50443   0.98059   0.00000  Uiso   1.00
C323   C     0.99216   0.13148   0.48529   0.00000  Uiso   1.00
C324   C     0.95086   0.09944   0.51482   0.00000  Uiso   1.00
C325   C     0.94535   0.03238   0.50111   0.00000  Uiso   1.00
C326   C     0.90511   0.01293   0.53320   0.00000  Uiso   1.00
C327   C     0.84609   0.95618   0.57236   0.00000  Uiso   1.00
C328   C     0.02470   0.17416   0.55452   0.00000  Uiso   1.00
C329   C     0.08128   0.16994   0.57419   0.00000  Uiso   1.00
C330   C     0.10320   0.21340   0.63971   0.00000  Uiso   1.00
C331   C     0.15882   0.27269   0.74048   0.00000  Uiso   1.00
C332   C     0.95866   0.17887   0.44230   0.00000  Uiso   1.00
C333   C     0.95973   0.17862   0.36761   0.00000  Uiso   1.00
C334   C     0.92605   0.22605   0.33865   0.00000  Uiso   1.00
C335   C     0.87914   0.29265   0.26517   0.00000  Uiso   1.00
C336   C     0.93048   0.21617   0.56666   0.00000  Uiso   1.00
C337   C     0.91736   0.14544   0.55902   0.00000  Uiso   1.00
C338   C     0.87711   0.12608   0.59114   0.00000  Uiso   1.00
C339   C     0.87154   0.05901   0.57748   0.00000  Uiso   1.00
C340   C     0.99120   0.22016   0.59872   0.00000  Uiso   1.00
C341   C     0.01303   0.26364   0.66422   0.00000  Uiso   1.00
C342   C     0.06963   0.25948   0.68399   0.00000  Uiso   1.00
C343   C     0.92516   0.22487   0.48650   0.00000  Uiso   1.00
C344   C     0.89148   0.27231   0.45764   0.00000  Uiso   1.00
C345   C     0.89249   0.27213   0.38292   0.00000  Uiso   1.00
H346   H     0.01825   0.09566   0.45088   0.00000  Uiso   1.00
H347   H     0.97130   0.99680   0.46691   0.00000  Uiso   1.00
H348   H     0.10720   0.13434   0.53998   0.00000  Uiso   1.00
H349   H     0.98566   0.14301   0.33343   0.00000  Uiso   1.00
H350   H     0.90447   0.90747   0.50419   0.00000  Uiso   1.00
H351   H     0.19104   0.19750   0.65824   0.00000  Uiso   1.00
H352   H     0.93475   0.21579   0.22269   0.00000  Uiso   1.00
H353   H     0.90439   0.25198   0.60107   0.00000  Uiso   1.00
H354   H     0.85118   0.16169   0.62534   0.00000  Uiso   1.00
H355   H     0.98709   0.29923   0.69841   0.00000  Uiso   1.00
H356   H     0.86555   0.30791   0.49186   0.00000  Uiso   1.00
H357   H     0.80699   0.04130   0.63278   0.00000  Uiso   1.00
H358   H     0.09356   0.33134   0.78683   0.00000  Uiso   1.00
H359   H     0.83727   0.34962   0.35128   0.00000  Uiso   1.00
O360   O     0.82280   0.91217   0.58176   0.00000  Uiso   1.00
O361   O     0.19876   0.29268   0.78386   0.00000  Uiso   1.00
O362   O     0.86251   0.31668   0.21243   0.00000  Uiso   1.00
N363   N     0.88882   0.95136   0.53111   0.00000  Uiso   1.00
N364   N     0.15675   0.22251   0.67515   0.00000  Uiso   1.00
N365   N     0.91715   0.23962   0.26795   0.00000  Uiso   1.00
N366   N     0.83637   0.02337   0.60030   0.00000  Uiso   1.00
N367   N     0.10429   0.29453   0.74434   0.00000  Uiso   1.00
N368   N     0.86469   0.31164   0.33714   0.00000  Uiso   1.00
C369   C     0.64356   0.00996   0.21039   0.00000  Uiso   1.00
C370   C     0.61375   0.95351   0.15499   0.00000  Uiso   1.00
C371   C     0.56344   0.95930   0.11034   0.00000  Uiso   1.00
C372   C     0.54309   0.90180   0.06333   0.00000  Uiso   1.00
C373   C     0.49241   0.82344   0.97761   0.00000  Uiso   1.00
C374   C     0.69993   0.00717   0.18681   0.00000  Uiso   1.00
C375   C     0.72208   0.05808   0.16892   0.00000  Uiso   1.00
C376   C     0.77428   0.04575   0.14871   0.00000  Uiso   1.00
C377   C     0.85742   0.05072   0.11245   0.00000  Uiso   1.00
C378   C     0.65354   0.99216   0.28657   0.00000  Uiso   1.00
C379   C     0.63668   0.03045   0.35257   0.00000  Uiso   1.00
C380   C     0.64983   0.00549   0.41635   0.00000  Uiso   1.00
C381   C     0.66093   0.98716   0.53498   0.00000  Uiso   1.00
C382   C     0.69689   0.89755   0.20631   0.00000  Uiso   1.00
C383   C     0.64272   0.89246   0.15278   0.00000  Uiso   1.00
C384   C     0.62244   0.83493   0.10582   0.00000  Uiso   1.00
C385   C     0.57210   0.84063   0.06111   0.00000  Uiso   1.00
C386   C     0.72890   0.94612   0.18460   0.00000  Uiso   1.00
C387   C     0.78108   0.93372   0.16441   0.00000  Uiso   1.00
C388   C     0.80330   0.98459   0.14649   0.00000  Uiso   1.00
C389   C     0.68250   0.93111   0.28436   0.00000  Uiso   1.00
C390   C     0.69569   0.90609   0.34805   0.00000  Uiso   1.00
C391   C     0.67885   0.94433   0.41413   0.00000  Uiso   1.00
H392   H     0.62101   0.05749   0.21212   0.00000  Uiso   1.00
H393   H     0.54103   0.00656   0.11206   0.00000  Uiso   1.00
H394   H     0.69965   0.10532   0.17065   0.00000  Uiso   1.00
H395   H     0.61427   0.07770   0.35426   0.00000  Uiso   1.00
H396   H     0.46515   0.92316   0.00014   0.00000  Uiso   1.00
H397   H     0.79962   0.13142   0.12369   0.00000  Uiso   1.00
H398   H     0.61956   0.07317   0.51088   0.00000  Uiso   1.00
H399   H     0.71945   0.85002   0.20459   0.00000  Uiso   1.00
H400   H     0.64487   0.78769   0.10412   0.00000  Uiso   1.00
H401   H     0.80349   0.88646   0.16270   0.00000  Uiso   1.00
H402   H     0.71810   0.85884   0.34632   0.00000  Uiso   1.00
H403   H     0.54943   0.74553   0.99369   0.00000  Uiso   1.00
H404   H     0.88390   0.95379   0.11725   0.00000  Uiso   1.00
H405   H     0.70384   0.89554   0.50443   0.00000  Uiso   1.00
O406   O     0.45647   0.79709   0.93094   0.00000  Uiso   1.00
O407   O     0.89527   0.07033   0.09305   0.00000  Uiso   1.00
O408   O     0.65905   0.99390   0.60102   0.00000  Uiso   1.00
N409   N     0.49522   0.88991   0.01242   0.00000  Uiso   1.00
N410   N     0.80792   0.08462   0.12792   0.00000  Uiso   1.00
N411   N     0.63960   0.03016   0.48991   0.00000  Uiso   1.00
N412   N     0.54056   0.79432   0.00895   0.00000  Uiso   1.00
N413   N     0.85327   0.98903   0.12445   0.00000  Uiso   1.00
N414   N     0.68494   0.93458   0.48644   0.00000  Uiso   1.00
C415   C     0.66685   0.56166   0.13820   0.00000  Uiso   1.00
C416   C     0.67446   0.49160   0.14868   0.00000  Uiso   1.00
C417   C     0.63351   0.44796   0.13390   0.00000  Uiso   1.00
C418   C     0.64879   0.38612   0.14715   0.00000  Uiso   1.00
C419   C     0.65234   0.28001   0.15934   0.00000  Uiso   1.00
C420   C     0.68780   0.60581   0.21455   0.00000  Uiso   1.00
C421   C     0.65805   0.65821   0.25514   0.00000  Uiso   1.00
C422   C     0.68457   0.69251   0.32385   0.00000  Uiso   1.00
C423   C     0.70883   0.76374   0.43827   0.00000  Uiso   1.00
C424   C     0.70681   0.56549   0.08554   0.00000  Uiso   1.00
C425   C     0.69305   0.58401   0.01766   0.00000  Uiso   1.00
C426   C     0.73557   0.58438   0.97775   0.00000  Uiso   1.00
C427   C     0.78935   0.59301   0.89186   0.00000  Uiso   1.00
C428   C     0.76683   0.52943   0.18804   0.00000  Uiso   1.00
C429   C     0.72877   0.47410   0.17575   0.00000  Uiso   1.00
C430   C     0.74412   0.41230   0.18903   0.00000  Uiso   1.00
C431   C     0.70319   0.36858   0.17427   0.00000  Uiso   1.00
C432   C     0.74210   0.58831   0.24162   0.00000  Uiso   1.00
C433   C     0.76866   0.62254   0.31028   0.00000  Uiso   1.00
C434   C     0.73897   0.67497   0.35097   0.00000  Uiso   1.00
C435   C     0.76111   0.54798   0.11260   0.00000  Uiso   1.00
C436   C     0.80366   0.54834   0.07279   0.00000  Uiso   1.00
C437   C     0.78997   0.56684   0.00486   0.00000  Uiso   1.00
H438   H     0.62458   0.57530   0.11713   0.00000  Uiso   1.00
H439   H     0.59148   0.46154   0.11296   0.00000  Uiso   1.00
H440   H     0.61603   0.67175   0.23418   0.00000  Uiso   1.00
H441   H     0.65102   0.59755   0.99673   0.00000  Uiso   1.00
H442   H     0.57874   0.32769   0.12028   0.00000  Uiso   1.00
H443   H     0.63051   0.77095   0.37588   0.00000  Uiso   1.00
H444   H     0.70429   0.61450   0.87517   0.00000  Uiso   1.00
H445   H     0.80911   0.51580   0.20911   0.00000  Uiso   1.00
H446   H     0.78614   0.39877   0.20998   0.00000  Uiso   1.00
H447   H     0.81069   0.60898   0.33121   0.00000  Uiso   1.00
H448   H     0.84568   0.53479   0.09376   0.00000  Uiso   1.00
H449   H     0.73673   0.27675   0.19904   0.00000  Uiso   1.00
H450   H     0.78850   0.72001   0.45463   0.00000  Uiso   1.00
H451   H     0.86228   0.56356   0.95392   0.00000  Uiso   1.00
O452   O     0.63930   0.22632   0.15859   0.00000  Uiso   1.00
O453   O     0.70721   0.80786   0.49392   0.00000  Uiso   1.00
O454   O     0.80402   0.60260   0.83700   0.00000  Uiso   1.00
N455   N     0.61908   0.33176   0.13869   0.00000  Uiso   1.00
N456   N     0.66747   0.74617   0.37766   0.00000  Uiso   1.00
N457   N     0.73646   0.59992   0.90955   0.00000  Uiso   1.00
N458   N     0.70409   0.30435   0.18106   0.00000  Uiso   1.00
N459   N     0.75249   0.71876   0.42003   0.00000  Uiso   1.00
N460   N     0.82147   0.57251   0.95192   0.00000  Uiso   1.00
C461   C     0.49956   0.07497   0.67120   0.00000  Uiso   1.00
C462   C     0.44792   0.08680   0.61728   0.00000  Uiso   1.00
C463   C     0.43150   0.04656   0.54676   0.00000  Uiso   1.00
C464   C     0.38298   0.06594   0.50609   0.00000  Uiso   1.00
C465   C     0.30752   0.07557   0.41796   0.00000  Uiso   1.00
C466   C     0.53139   0.13645   0.68787   0.00000  Uiso   1.00
C467   C     0.58515   0.13795   0.67671   0.00000  Uiso   1.00
C468   C     0.60689   0.19912   0.69547   0.00000  Uiso   1.00
C469   C     0.66103   0.28582   0.71699   0.00000  Uiso   1.00
C470   C     0.48032   0.07428   0.74488   0.00000  Uiso   1.00
C471   C     0.49114   0.02352   0.78166   0.00000  Uiso   1.00
C472   C     0.46990   0.03235   0.84842   0.00000  Uiso   1.00
C473   C     0.44475   0.02252   0.95845   0.00000  Uiso   1.00
C474   C     0.44259   0.18092   0.72438   0.00000  Uiso   1.00
C475   C     0.41698   0.14435   0.64617   0.00000  Uiso   1.00
C476   C     0.36847   0.16379   0.60560   0.00000  Uiso   1.00
C477   C     0.35197   0.12359   0.53502   0.00000  Uiso   1.00
C478   C     0.50045   0.19399   0.71676   0.00000  Uiso   1.00
C479   C     0.52212   0.25517   0.73555   0.00000  Uiso   1.00
C480   C     0.57589   0.25677   0.72441   0.00000  Uiso   1.00
C481   C     0.44937   0.13182   0.77376   0.00000  Uiso   1.00
C482   C     0.42811   0.14074   0.84049   0.00000  Uiso   1.00
C483   C     0.43890   0.09000   0.87736   0.00000  Uiso   1.00
H484   H     0.52365   0.03017   0.64871   0.00000  Uiso   1.00
H485   H     0.45546   0.00204   0.52442   0.00000  Uiso   1.00
H486   H     0.60908   0.09341   0.65436   0.00000  Uiso   1.00
H487   H     0.51509   0.97899   0.75929   0.00000  Uiso   1.00
H488   H     0.36622   0.99624   0.39935   0.00000  Uiso   1.00
H489   H     0.69015   0.18889   0.67336   0.00000  Uiso   1.00
H490   H     0.49196   0.94762   0.89462   0.00000  Uiso   1.00
H491   H     0.41850   0.22573   0.74687   0.00000  Uiso   1.00
H492   H     0.34453   0.20832   0.62796   0.00000  Uiso   1.00
H493   H     0.49816   0.29969   0.75790   0.00000  Uiso   1.00
H494   H     0.40417   0.18528   0.86283   0.00000  Uiso   1.00
H495   H     0.27619   0.16367   0.48339   0.00000  Uiso   1.00
H496   H     0.60013   0.35633   0.75740   0.00000  Uiso   1.00
H497   H     0.40193   0.11505   0.97866   0.00000  Uiso   1.00
O498   O     0.27446   0.06498   0.36137   0.00000  Uiso   1.00
O499   O     0.69945   0.31774   0.72087   0.00000  Uiso   1.00
O500   O     0.43942   0.00120   0.01115   0.00000  Uiso   1.00
N501   N     0.35518   0.03802   0.43546   0.00000  Uiso   1.00
N502   N     0.65803   0.21815   0.69162   0.00000  Uiso   1.00
N503   N     0.47275   0.99259   0.89849   0.00000  Uiso   1.00
N504   N     0.30673   0.12811   0.48067   0.00000  Uiso   1.00
N505   N     0.60959   0.30824   0.73684   0.00000  Uiso   1.00
N506   N     0.42430   0.08268   0.94371   0.00000  Uiso   1.00
C507   C     0.24123   0.75974   0.54323   0.00000  Uiso   1.00
C508   C     0.20197   0.72200   0.47784   0.00000  Uiso   1.00
C509   C     0.15903   0.68748   0.48426   0.00000  Uiso   1.00
C510   C     0.12784   0.65621   0.41769   0.00000  Uiso   1.00
C511   C     0.06516   0.59709   0.32686   0.00000  Uiso   1.00
C512   C     0.29873   0.73129   0.52936   0.00000  Uiso   1.00
C513   C     0.33715   0.70459   0.57911   0.00000  Uiso   1.00
C514   C     0.38742   0.68116   0.55592   0.00000  Uiso   1.00
C515   C     0.47499   0.63651   0.54510   0.00000  Uiso   1.00
C516   C     0.23736   0.82995   0.53365   0.00000  Uiso   1.00
C517   C     0.22420   0.88622   0.58702   0.00000  Uiso   1.00
C518   C     0.22282   0.94585   0.56745   0.00000  Uiso   1.00
C519   C     0.21511   0.05439   0.56330   0.00000  Uiso   1.00
C520   C     0.26221   0.76561   0.41359   0.00000  Uiso   1.00
C521   C     0.21336   0.72518   0.40742   0.00000  Uiso   1.00
C522   C     0.18224   0.69397   0.34082   0.00000  Uiso   1.00
C523   C     0.13925   0.65941   0.34715   0.00000  Uiso   1.00
C524   C     0.31013   0.73448   0.45894   0.00000  Uiso   1.00
C525   C     0.36036   0.71108   0.43568   0.00000  Uiso   1.00
C526   C     0.39884   0.68435   0.48537   0.00000  Uiso   1.00
C527   C     0.24876   0.83314   0.46323   0.00000  Uiso   1.00
C528   C     0.24741   0.89270   0.44358   0.00000  Uiso   1.00
C529   C     0.23424   0.94904   0.49690   0.00000  Uiso   1.00
H530   H     0.23236   0.75726   0.59805   0.00000  Uiso   1.00
H531   H     0.15022   0.68502   0.53877   0.00000  Uiso   1.00
H532   H     0.32832   0.70214   0.63360   0.00000  Uiso   1.00
H533   H     0.21538   0.88373   0.64150   0.00000  Uiso   1.00
H534   H     0.06420   0.60631   0.44198   0.00000  Uiso   1.00
H535   H     0.43973   0.64243   0.64196   0.00000  Uiso   1.00
H536   H     0.20159   0.02535   0.65863   0.00000  Uiso   1.00
H537   H     0.27108   0.76809   0.35876   0.00000  Uiso   1.00
H538   H     0.19106   0.69644   0.28634   0.00000  Uiso   1.00
H539   H     0.36916   0.71356   0.38118   0.00000  Uiso   1.00
H540   H     0.25623   0.89515   0.38908   0.00000  Uiso   1.00
H541   H     0.09735   0.61557   0.23710   0.00000  Uiso   1.00
H542   H     0.47288   0.65170   0.43709   0.00000  Uiso   1.00
H543   H     0.23474   0.03462   0.45375   0.00000  Uiso   1.00
O544   O     0.02745   0.56359   0.29622   0.00000  Uiso   1.00
O545   O     0.52014   0.61100   0.55859   0.00000  Uiso   1.00
O546   O     0.20769   0.11338   0.58045   0.00000  Uiso   1.00
N547   N     0.08297   0.61833   0.40370   0.00000  Uiso   1.00
N548   N     0.43407   0.65209   0.59067   0.00000  Uiso   1.00
N549   N     0.21144   0.01010   0.60625   0.00000  Uiso   1.00
N550   N     0.10081   0.62332   0.29346   0.00000  Uiso   1.00
N551   N     0.45191   0.65708   0.48042   0.00000  Uiso   1.00
N552   N     0.22928   0.01508   0.49601   0.00000  Uiso   1.00
