data_job_00882
_audit_creation_date              2018-12-19
_audit_creation_method            'Materials Studio'
_symmetry_space_group_name_H-M    'P1'
_symmetry_Int_Tables_number       1
_symmetry_cell_setting            triclinic
loop_
_symmetry_equiv_pos_as_xyz
  x,y,z
_cell_length_a                    20.2533
_cell_length_b                    12.4017
_cell_length_c                    11.1269
_cell_angle_alpha                 90.0000
_cell_angle_beta                  90.0000
_cell_angle_gamma                 90.0000
loop_
_atom_site_label
_atom_site_type_symbol
_atom_site_fract_x
_atom_site_fract_y
_atom_site_fract_z
_atom_site_U_iso_or_equiv
_atom_site_adp_type
_atom_site_occupancy
C1     C     0.70717   0.91437   0.62830   0.00000  Uiso   1.00
C2     C     0.71809   0.81118   0.70012   0.00000  Uiso   1.00
C3     C     0.77620   0.75201   0.70424   0.00000  Uiso   1.00
C4     C     0.77621   0.65994   0.77523   0.00000  Uiso   1.00
C5     C     0.80169   0.50449   0.87689   0.00000  Uiso   1.00
C6     C     0.64785   0.89279   0.54741   0.00000  Uiso   1.00
C7     C     0.64690   0.90226   0.42314   0.00000  Uiso   1.00
C8     C     0.58778   0.87891   0.36559   0.00000  Uiso   1.00
C9     C     0.50419   0.85024   0.23017   0.00000  Uiso   1.00
C10    C     0.68478   0.99921   0.71873   0.00000  Uiso   1.00
C11    C     0.71487   0.09817   0.73850   0.00000  Uiso   1.00
C12    C     0.68683   0.16443   0.82517   0.00000  Uiso   1.00
C13    C     0.66058   0.30099   0.95576   0.00000  Uiso   1.00
C14    C     0.60385   0.85609   0.74705   0.00000  Uiso   1.00
C15    C     0.66196   0.77952   0.76462   0.00000  Uiso   1.00
C16    C     0.66189   0.68752   0.83563   0.00000  Uiso   1.00
C17    C     0.71999   0.62823   0.83986   0.00000  Uiso   1.00
C18    C     0.59173   0.86113   0.61191   0.00000  Uiso   1.00
C19    C     0.53259   0.83778   0.55453   0.00000  Uiso   1.00
C20    C     0.53156   0.84720   0.43021   0.00000  Uiso   1.00
C21    C     0.62865   0.96755   0.78324   0.00000  Uiso   1.00
C22    C     0.60056   0.03368   0.86989   0.00000  Uiso   1.00
C23    C     0.63061   0.13271   0.88979   0.00000  Uiso   1.00
H24    H     0.75086   0.93902   0.57807   0.00000  Uiso   1.00
H25    H     0.81962   0.77653   0.65430   0.00000  Uiso   1.00
H26    H     0.69034   0.92677   0.37325   0.00000  Uiso   1.00
H27    H     0.75830   0.12264   0.68856   0.00000  Uiso   1.00
H28    H     0.87109   0.58239   0.76722   0.00000  Uiso   1.00
H29    H     0.59849   0.89922   0.17462   0.00000  Uiso   1.00
H30    H     0.74180   0.31225   0.83951   0.00000  Uiso   1.00
H31    H     0.56015   0.83144   0.79727   0.00000  Uiso   1.00
H32    H     0.61845   0.66304   0.88553   0.00000  Uiso   1.00
H33    H     0.48917   0.81328   0.60448   0.00000  Uiso   1.00
H34    H     0.55713   0.00915   0.91979   0.00000  Uiso   1.00
H35    H     0.70781   0.49028   0.95489   0.00000  Uiso   1.00
H36    H     0.43521   0.80711   0.36228   0.00000  Uiso   1.00
H37    H     0.57852   0.22014   0.02719   0.00000  Uiso   1.00
O38    O     0.83124   0.42748   0.91513   0.00000  Uiso   1.00
O39    O     0.47359   0.84317   0.13766   0.00000  Uiso   1.00
O40    O     0.66161   0.38505   0.00999   0.00000  Uiso   1.00
N41    N     0.82467   0.58384   0.79930   0.00000  Uiso   1.00
N42    N     0.56981   0.88003   0.24524   0.00000  Uiso   1.00
N43    N     0.70378   0.26620   0.86684   0.00000  Uiso   1.00
N44    N     0.73681   0.53427   0.90028   0.00000  Uiso   1.00
N45    N     0.48195   0.83047   0.34623   0.00000  Uiso   1.00
N46    N     0.61592   0.21663   0.96783   0.00000  Uiso   1.00
C47    C     0.29283   0.08563   0.62830   0.00000  Uiso   1.00
C48    C     0.28191   0.18882   0.70012   0.00000  Uiso   1.00
C49    C     0.22380   0.24799   0.70424   0.00000  Uiso   1.00
C50    C     0.22379   0.34006   0.77523   0.00000  Uiso   1.00
C51    C     0.19831   0.49551   0.87689   0.00000  Uiso   1.00
C52    C     0.35215   0.10721   0.54741   0.00000  Uiso   1.00
C53    C     0.35310   0.09774   0.42314   0.00000  Uiso   1.00
C54    C     0.41222   0.12109   0.36559   0.00000  Uiso   1.00
C55    C     0.49581   0.14976   0.23017   0.00000  Uiso   1.00
C56    C     0.31522   0.00079   0.71873   0.00000  Uiso   1.00
C57    C     0.28513   0.90183   0.73850   0.00000  Uiso   1.00
C58    C     0.31317   0.83557   0.82517   0.00000  Uiso   1.00
C59    C     0.33942   0.69901   0.95576   0.00000  Uiso   1.00
C60    C     0.39615   0.14391   0.74705   0.00000  Uiso   1.00
C61    C     0.33804   0.22048   0.76462   0.00000  Uiso   1.00
C62    C     0.33811   0.31248   0.83563   0.00000  Uiso   1.00
C63    C     0.28001   0.37177   0.83986   0.00000  Uiso   1.00
C64    C     0.40827   0.13887   0.61191   0.00000  Uiso   1.00
C65    C     0.46741   0.16222   0.55453   0.00000  Uiso   1.00
C66    C     0.46844   0.15280   0.43021   0.00000  Uiso   1.00
C67    C     0.37135   0.03245   0.78324   0.00000  Uiso   1.00
C68    C     0.39944   0.96632   0.86989   0.00000  Uiso   1.00
C69    C     0.36939   0.86729   0.88979   0.00000  Uiso   1.00
H70    H     0.24914   0.06098   0.57807   0.00000  Uiso   1.00
H71    H     0.18038   0.22347   0.65430   0.00000  Uiso   1.00
H72    H     0.30966   0.07323   0.37325   0.00000  Uiso   1.00
H73    H     0.24170   0.87736   0.68856   0.00000  Uiso   1.00
H74    H     0.12891   0.41761   0.76722   0.00000  Uiso   1.00
H75    H     0.40151   0.10078   0.17462   0.00000  Uiso   1.00
H76    H     0.25820   0.68775   0.83951   0.00000  Uiso   1.00
H77    H     0.43985   0.16856   0.79727   0.00000  Uiso   1.00
H78    H     0.38155   0.33696   0.88553   0.00000  Uiso   1.00
H79    H     0.51083   0.18672   0.60448   0.00000  Uiso   1.00
H80    H     0.44287   0.99085   0.91979   0.00000  Uiso   1.00
H81    H     0.29219   0.50972   0.95489   0.00000  Uiso   1.00
H82    H     0.56479   0.19289   0.36228   0.00000  Uiso   1.00
H83    H     0.42148   0.77986   0.02719   0.00000  Uiso   1.00
O84    O     0.16876   0.57252   0.91513   0.00000  Uiso   1.00
O85    O     0.52641   0.15683   0.13766   0.00000  Uiso   1.00
O86    O     0.33839   0.61495   0.00999   0.00000  Uiso   1.00
N87    N     0.17533   0.41616   0.79930   0.00000  Uiso   1.00
N88    N     0.43019   0.11997   0.24524   0.00000  Uiso   1.00
N89    N     0.29622   0.73380   0.86684   0.00000  Uiso   1.00
N90    N     0.26319   0.46573   0.90028   0.00000  Uiso   1.00
N91    N     0.51805   0.16953   0.34623   0.00000  Uiso   1.00
N92    N     0.38408   0.78337   0.96783   0.00000  Uiso   1.00
C93    C     0.79283   0.41437   0.37170   0.00000  Uiso   1.00
C94    C     0.78191   0.31118   0.29988   0.00000  Uiso   1.00
C95    C     0.72380   0.25201   0.29576   0.00000  Uiso   1.00
C96    C     0.72379   0.15994   0.22477   0.00000  Uiso   1.00
C97    C     0.69831   0.00449   0.12311   0.00000  Uiso   1.00
C98    C     0.85215   0.39279   0.45259   0.00000  Uiso   1.00
C99    C     0.85310   0.40226   0.57686   0.00000  Uiso   1.00
C100   C     0.91222   0.37891   0.63441   0.00000  Uiso   1.00
C101   C     0.99581   0.35024   0.76983   0.00000  Uiso   1.00
C102   C     0.81522   0.49921   0.28127   0.00000  Uiso   1.00
C103   C     0.78513   0.59817   0.26150   0.00000  Uiso   1.00
C104   C     0.81317   0.66443   0.17483   0.00000  Uiso   1.00
C105   C     0.83942   0.80099   0.04424   0.00000  Uiso   1.00
C106   C     0.89615   0.35609   0.25295   0.00000  Uiso   1.00
C107   C     0.83804   0.27952   0.23538   0.00000  Uiso   1.00
C108   C     0.83811   0.18752   0.16437   0.00000  Uiso   1.00
C109   C     0.78001   0.12823   0.16014   0.00000  Uiso   1.00
C110   C     0.90827   0.36113   0.38809   0.00000  Uiso   1.00
C111   C     0.96741   0.33778   0.44547   0.00000  Uiso   1.00
C112   C     0.96844   0.34720   0.56979   0.00000  Uiso   1.00
C113   C     0.87135   0.46755   0.21676   0.00000  Uiso   1.00
C114   C     0.89944   0.53368   0.13011   0.00000  Uiso   1.00
C115   C     0.86939   0.63271   0.11021   0.00000  Uiso   1.00
H116   H     0.74914   0.43902   0.42193   0.00000  Uiso   1.00
H117   H     0.68038   0.27653   0.34570   0.00000  Uiso   1.00
H118   H     0.80966   0.42677   0.62675   0.00000  Uiso   1.00
H119   H     0.74170   0.62264   0.31144   0.00000  Uiso   1.00
H120   H     0.62891   0.08239   0.23278   0.00000  Uiso   1.00
H121   H     0.90151   0.39922   0.82538   0.00000  Uiso   1.00
H122   H     0.75820   0.81225   0.16049   0.00000  Uiso   1.00
H123   H     0.93985   0.33144   0.20273   0.00000  Uiso   1.00
H124   H     0.88155   0.16304   0.11447   0.00000  Uiso   1.00
H125   H     0.01083   0.31328   0.39552   0.00000  Uiso   1.00
H126   H     0.94287   0.50915   0.08021   0.00000  Uiso   1.00
H127   H     0.79219   0.99028   0.04511   0.00000  Uiso   1.00
H128   H     0.06479   0.30711   0.63772   0.00000  Uiso   1.00
H129   H     0.92148   0.72014   0.97281   0.00000  Uiso   1.00
O130   O     0.66876   0.92748   0.08487   0.00000  Uiso   1.00
O131   O     0.02641   0.34317   0.86234   0.00000  Uiso   1.00
O132   O     0.83839   0.88505   0.99001   0.00000  Uiso   1.00
N133   N     0.67533   0.08384   0.20070   0.00000  Uiso   1.00
N134   N     0.93019   0.38003   0.75476   0.00000  Uiso   1.00
N135   N     0.79622   0.76620   0.13316   0.00000  Uiso   1.00
N136   N     0.76319   0.03427   0.09972   0.00000  Uiso   1.00
N137   N     0.01805   0.33047   0.65377   0.00000  Uiso   1.00
N138   N     0.88408   0.71663   0.03217   0.00000  Uiso   1.00
C139   C     0.20717   0.58563   0.37170   0.00000  Uiso   1.00
C140   C     0.21809   0.68882   0.29988   0.00000  Uiso   1.00
C141   C     0.27620   0.74799   0.29576   0.00000  Uiso   1.00
C142   C     0.27621   0.84006   0.22477   0.00000  Uiso   1.00
C143   C     0.30169   0.99551   0.12311   0.00000  Uiso   1.00
C144   C     0.14785   0.60721   0.45259   0.00000  Uiso   1.00
C145   C     0.14690   0.59774   0.57686   0.00000  Uiso   1.00
C146   C     0.08778   0.62109   0.63441   0.00000  Uiso   1.00
C147   C     0.00419   0.64976   0.76983   0.00000  Uiso   1.00
C148   C     0.18478   0.50079   0.28127   0.00000  Uiso   1.00
C149   C     0.21487   0.40183   0.26150   0.00000  Uiso   1.00
C150   C     0.18683   0.33557   0.17483   0.00000  Uiso   1.00
C151   C     0.16058   0.19901   0.04424   0.00000  Uiso   1.00
C152   C     0.10385   0.64391   0.25295   0.00000  Uiso   1.00
C153   C     0.16196   0.72048   0.23538   0.00000  Uiso   1.00
C154   C     0.16189   0.81248   0.16437   0.00000  Uiso   1.00
C155   C     0.21999   0.87177   0.16014   0.00000  Uiso   1.00
C156   C     0.09173   0.63887   0.38809   0.00000  Uiso   1.00
C157   C     0.03259   0.66222   0.44547   0.00000  Uiso   1.00
C158   C     0.03156   0.65280   0.56979   0.00000  Uiso   1.00
C159   C     0.12865   0.53245   0.21676   0.00000  Uiso   1.00
C160   C     0.10056   0.46632   0.13011   0.00000  Uiso   1.00
C161   C     0.13061   0.36729   0.11021   0.00000  Uiso   1.00
H162   H     0.25086   0.56098   0.42193   0.00000  Uiso   1.00
H163   H     0.31962   0.72347   0.34570   0.00000  Uiso   1.00
H164   H     0.19034   0.57323   0.62675   0.00000  Uiso   1.00
H165   H     0.25830   0.37736   0.31144   0.00000  Uiso   1.00
H166   H     0.37109   0.91761   0.23278   0.00000  Uiso   1.00
H167   H     0.09849   0.60078   0.82538   0.00000  Uiso   1.00
H168   H     0.24180   0.18775   0.16049   0.00000  Uiso   1.00
H169   H     0.06015   0.66856   0.20273   0.00000  Uiso   1.00
H170   H     0.11845   0.83696   0.11447   0.00000  Uiso   1.00
H171   H     0.98917   0.68672   0.39552   0.00000  Uiso   1.00
H172   H     0.05713   0.49085   0.08021   0.00000  Uiso   1.00
H173   H     0.20781   0.00972   0.04511   0.00000  Uiso   1.00
H174   H     0.93521   0.69289   0.63772   0.00000  Uiso   1.00
H175   H     0.07852   0.27986   0.97281   0.00000  Uiso   1.00
O176   O     0.33124   0.07252   0.08487   0.00000  Uiso   1.00
O177   O     0.97359   0.65683   0.86234   0.00000  Uiso   1.00
O178   O     0.16161   0.11495   0.99001   0.00000  Uiso   1.00
N179   N     0.32467   0.91616   0.20070   0.00000  Uiso   1.00
N180   N     0.06981   0.61997   0.75476   0.00000  Uiso   1.00
N181   N     0.20378   0.23380   0.13316   0.00000  Uiso   1.00
N182   N     0.23681   0.96573   0.09972   0.00000  Uiso   1.00
N183   N     0.98195   0.66953   0.65377   0.00000  Uiso   1.00
N184   N     0.11592   0.28337   0.03217   0.00000  Uiso   1.00
