data_job_06795
_audit_creation_date              2018-12-19
_audit_creation_method            'Materials Studio'
_symmetry_space_group_name_H-M    'P1'
_symmetry_Int_Tables_number       1
_symmetry_cell_setting            triclinic
loop_
_symmetry_equiv_pos_as_xyz
  x,y,z
_cell_length_a                    24.5326
_cell_length_b                    16.9746
_cell_length_c                    22.3765
_cell_angle_alpha                 111.6870
_cell_angle_beta                  100.7130
_cell_angle_gamma                 91.3029
loop_
_atom_site_label
_atom_site_type_symbol
_atom_site_fract_x
_atom_site_fract_y
_atom_site_fract_z
_atom_site_U_iso_or_equiv
_atom_site_adp_type
_atom_site_occupancy
C1     C     0.27584   0.98455   0.01709   0.00000  Uiso   1.00
C2     C     0.31183   0.98277   0.07988   0.00000  Uiso   1.00
C3     C     0.29255   0.98148   0.13405   0.00000  Uiso   1.00
C4     C     0.33213   0.97996   0.18665   0.00000  Uiso   1.00
C5     C     0.37937   0.97727   0.28440   0.00000  Uiso   1.00
C6     C     0.29909   0.06291   0.00853   0.00000  Uiso   1.00
C7     C     0.26910   0.12899   0.00271   0.00000  Uiso   1.00
C8     C     0.29795   0.19492   0.99525   0.00000  Uiso   1.00
C9     C     0.32540   0.31662   0.98219   0.00000  Uiso   1.00
C10    C     0.28827   0.90770   0.96087   0.00000  Uiso   1.00
C11    C     0.24919   0.84329   0.91495   0.00000  Uiso   1.00
C12    C     0.26894   0.77856   0.86735   0.00000  Uiso   1.00
C13    C     0.27960   0.65928   0.78027   0.00000  Uiso   1.00
C14    C     0.38041   0.98415   0.01417   0.00000  Uiso   1.00
C15    C     0.36862   0.98256   0.07829   0.00000  Uiso   1.00
C16    C     0.40824   0.98104   0.13082   0.00000  Uiso   1.00
C17    C     0.38903   0.97974   0.18507   0.00000  Uiso   1.00
C18    C     0.35588   0.06270   0.00695   0.00000  Uiso   1.00
C19    C     0.38479   0.12855   0.99949   0.00000  Uiso   1.00
C20    C     0.35485   0.19471   0.99367   0.00000  Uiso   1.00
C21    C     0.34507   0.90748   0.95928   0.00000  Uiso   1.00
C22    C     0.36488   0.84285   0.91173   0.00000  Uiso   1.00
C23    C     0.32584   0.77835   0.86576   0.00000  Uiso   1.00
H24    H     0.23162   0.98472   0.01832   0.00000  Uiso   1.00
H25    H     0.24859   0.98165   0.13526   0.00000  Uiso   1.00
H26    H     0.22514   0.12913   0.00394   0.00000  Uiso   1.00
H27    H     0.20524   0.84348   0.91620   0.00000  Uiso   1.00
H28    H     0.29246   0.97819   0.26422   0.00000  Uiso   1.00
H29    H     0.24301   0.28914   0.98729   0.00000  Uiso   1.00
H30    H     0.20104   0.68679   0.80227   0.00000  Uiso   1.00
H31    H     0.42463   0.98398   0.01294   0.00000  Uiso   1.00
H32    H     0.45219   0.98087   0.12958   0.00000  Uiso   1.00
H33    H     0.42874   0.12835   0.99826   0.00000  Uiso   1.00
H34    H     0.40884   0.84270   0.91052   0.00000  Uiso   1.00
H35    H     0.45771   0.97756   0.25961   0.00000  Uiso   1.00
H36    H     0.40825   0.28851   0.98268   0.00000  Uiso   1.00
H37    H     0.36629   0.68616   0.79766   0.00000  Uiso   1.00
O38    O     0.38973   0.97587   0.33875   0.00000  Uiso   1.00
O39    O     0.32485   0.38382   0.97543   0.00000  Uiso   1.00
O40    O     0.26980   0.59355   0.73269   0.00000  Uiso   1.00
N41    N     0.32757   0.97845   0.24712   0.00000  Uiso   1.00
N42    N     0.28133   0.26918   0.98822   0.00000  Uiso   1.00
N43    N     0.24210   0.70604   0.81523   0.00000  Uiso   1.00
N44    N     0.41648   0.97811   0.24464   0.00000  Uiso   1.00
N45    N     0.37025   0.26884   0.98575   0.00000  Uiso   1.00
N46    N     0.33102   0.70570   0.81275   0.00000  Uiso   1.00
C47    C     0.13264   0.18934   0.84563   0.00000  Uiso   1.00
C48    C     0.18291   0.22747   0.83076   0.00000  Uiso   1.00
C49    C     0.22569   0.18316   0.80565   0.00000  Uiso   1.00
C50    C     0.26792   0.22957   0.79551   0.00000  Uiso   1.00
C51    C     0.34607   0.27545   0.77025   0.00000  Uiso   1.00
C52    C     0.13294   0.24044   0.91789   0.00000  Uiso   1.00
C53    C     0.13370   0.20704   0.96602   0.00000  Uiso   1.00
C54    C     0.13386   0.26438   0.02922   0.00000  Uiso   1.00
C55    C     0.13439   0.33040   0.13921   0.00000  Uiso   1.00
C56    C     0.08134   0.21060   0.80651   0.00000  Uiso   1.00
C57    C     0.03870   0.15212   0.76101   0.00000  Uiso   1.00
C58    C     0.99540   0.18433   0.73045   0.00000  Uiso   1.00
C59    C     0.91581   0.20402   0.66752   0.00000  Uiso   1.00
C60    C     0.13155   0.35055   0.87228   0.00000  Uiso   1.00
C61    C     0.18232   0.31503   0.84524   0.00000  Uiso   1.00
C62    C     0.22449   0.36152   0.83513   0.00000  Uiso   1.00
C63    C     0.26733   0.31729   0.81000   0.00000  Uiso   1.00
C64    C     0.13235   0.32800   0.93236   0.00000  Uiso   1.00
C65    C     0.13250   0.38540   0.99550   0.00000  Uiso   1.00
C66    C     0.13326   0.35210   0.04372   0.00000  Uiso   1.00
C67    C     0.08074   0.29816   0.82098   0.00000  Uiso   1.00
C68    C     0.03750   0.33048   0.79049   0.00000  Uiso   1.00
C69    C     0.99480   0.27205   0.74495   0.00000  Uiso   1.00
H70    H     0.13311   0.12118   0.83436   0.00000  Uiso   1.00
H71    H     0.22614   0.11540   0.79446   0.00000  Uiso   1.00
H72    H     0.13416   0.13928   0.95480   0.00000  Uiso   1.00
H73    H     0.03917   0.08436   0.74982   0.00000  Uiso   1.00
H74    H     0.32904   0.14762   0.75662   0.00000  Uiso   1.00
H75    H     0.13507   0.19796   0.09471   0.00000  Uiso   1.00
H76    H     0.93477   0.08216   0.66247   0.00000  Uiso   1.00
H77    H     0.13109   0.41873   0.88355   0.00000  Uiso   1.00
H78    H     0.22402   0.42928   0.84634   0.00000  Uiso   1.00
H79    H     0.13203   0.45315   0.00669   0.00000  Uiso   1.00
H80    H     0.03705   0.39824   0.80171   0.00000  Uiso   1.00
H81    H     0.32731   0.40237   0.79873   0.00000  Uiso   1.00
H82    H     0.13334   0.45272   0.13682   0.00000  Uiso   1.00
H83    H     0.93305   0.33692   0.70458   0.00000  Uiso   1.00
O84    O     0.38935   0.27658   0.75233   0.00000  Uiso   1.00
O85    O     0.13486   0.34262   0.19589   0.00000  Uiso   1.00
O86    O     0.87208   0.19069   0.62880   0.00000  Uiso   1.00
N87    N     0.31587   0.20612   0.77162   0.00000  Uiso   1.00
N88    N     0.13453   0.25319   0.08772   0.00000  Uiso   1.00
N89    N     0.94726   0.14493   0.68363   0.00000  Uiso   1.00
N90    N     0.31494   0.34321   0.79428   0.00000  Uiso   1.00
N91    N     0.13361   0.39028   0.11038   0.00000  Uiso   1.00
N92    N     0.94634   0.28201   0.70629   0.00000  Uiso   1.00
C93    C     0.98238   0.16516   0.10343   0.00000  Uiso   1.00
C94    C     0.98914   0.26137   0.14131   0.00000  Uiso   1.00
C95    C     0.99980   0.32238   0.11626   0.00000  Uiso   1.00
C96    C     0.00456   0.40710   0.15882   0.00000  Uiso   1.00
C97    C     0.01595   0.55302   0.20772   0.00000  Uiso   1.00
C98    C     0.02534   0.12941   0.14259   0.00000  Uiso   1.00
C99    C     0.06642   0.07945   0.11862   0.00000  Uiso   1.00
C100   C     0.10165   0.05309   0.16226   0.00000  Uiso   1.00
C101   C     0.16920   0.99408   0.21314   0.00000  Uiso   1.00
C102   C     0.92549   0.13346   0.10870   0.00000  Uiso   1.00
C103   C     0.88263   0.08690   0.05624   0.00000  Uiso   1.00
C104   C     0.83380   0.06393   0.07134   0.00000  Uiso   1.00
C105   C     0.74633   0.01122   0.06960   0.00000  Uiso   1.00
C106   C     0.97190   0.20713   0.22354   0.00000  Uiso   1.00
C107   C     0.98345   0.28416   0.20655   0.00000  Uiso   1.00
C108   C     0.98819   0.36882   0.24915   0.00000  Uiso   1.00
C109   C     0.99886   0.42994   0.22418   0.00000  Uiso   1.00
C110   C     0.01964   0.15220   0.20783   0.00000  Uiso   1.00
C111   C     0.05482   0.12590   0.25151   0.00000  Uiso   1.00
C112   C     0.09594   0.07592   0.22762   0.00000  Uiso   1.00
C113   C     0.91979   0.15626   0.17394   0.00000  Uiso   1.00
C114   C     0.87103   0.13335   0.18913   0.00000  Uiso   1.00
C115   C     0.82810   0.08677   0.13670   0.00000  Uiso   1.00
H116   H     0.98682   0.14740   0.05264   0.00000  Uiso   1.00
H117   H     0.00421   0.30471   0.06577   0.00000  Uiso   1.00
H118   H     0.07081   0.06181   0.06813   0.00000  Uiso   1.00
H119   H     0.88705   0.06927   0.00576   0.00000  Uiso   1.00
H120   H     0.02099   0.48916   0.10912   0.00000  Uiso   1.00
H121   H     0.16142   0.97699   0.11408   0.00000  Uiso   1.00
H122   H     0.77393   0.99270   0.98255   0.00000  Uiso   1.00
H123   H     0.96746   0.22488   0.27434   0.00000  Uiso   1.00
H124   H     0.98379   0.38644   0.29964   0.00000  Uiso   1.00
H125   H     0.05040   0.14355   0.30199   0.00000  Uiso   1.00
H126   H     0.86663   0.15100   0.23962   0.00000  Uiso   1.00
H127   H     0.00442   0.55550   0.29893   0.00000  Uiso   1.00
H128   H     0.14485   0.04332   0.30389   0.00000  Uiso   1.00
H129   H     0.75736   0.05904   0.17237   0.00000  Uiso   1.00
O130   O     0.02381   0.62721   0.21667   0.00000  Uiso   1.00
O131   O     0.20804   0.95524   0.22318   0.00000  Uiso   1.00
O132   O     0.69966   0.97586   0.05062   0.00000  Uiso   1.00
N133   N     0.01484   0.48260   0.15031   0.00000  Uiso   1.00
N134   N     0.14614   0.00376   0.15496   0.00000  Uiso   1.00
N135   N     0.78387   0.01843   0.03199   0.00000  Uiso   1.00
N136   N     0.00592   0.51830   0.25245   0.00000  Uiso   1.00
N137   N     0.13722   0.03946   0.25709   0.00000  Uiso   1.00
N138   N     0.77495   0.05413   0.13413   0.00000  Uiso   1.00
C139   C     0.76500   0.70660   0.39223   0.00000  Uiso   1.00
C140   C     0.76928   0.80361   0.42337   0.00000  Uiso   1.00
C141   C     0.72478   0.85301   0.42672   0.00000  Uiso   1.00
C142   C     0.73739   0.94072   0.45723   0.00000  Uiso   1.00
C143   C     0.73563   0.08574   0.50162   0.00000  Uiso   1.00
C144   C     0.79441   0.67772   0.44579   0.00000  Uiso   1.00
C145   C     0.77104   0.62126   0.46798   0.00000  Uiso   1.00
C146   C     0.80481   0.60299   0.51735   0.00000  Uiso   1.00
C147   C     0.84209   0.55252   0.59651   0.00000  Uiso   1.00
C148   C     0.80090   0.68500   0.34059   0.00000  Uiso   1.00
C149   C     0.78300   0.63464   0.27433   0.00000  Uiso   1.00
C150   C     0.82225   0.62248   0.23513   0.00000  Uiso   1.00
C151   C     0.86960   0.58331   0.15096   0.00000  Uiso   1.00
C152   C     0.86653   0.77452   0.44045   0.00000  Uiso   1.00
C153   C     0.82442   0.84050   0.44956   0.00000  Uiso   1.00
C154   C     0.83710   0.92816   0.48007   0.00000  Uiso   1.00
C155   C     0.79263   0.97768   0.48346   0.00000  Uiso   1.00
C156   C     0.84955   0.71461   0.47198   0.00000  Uiso   1.00
C157   C     0.88337   0.69641   0.52133   0.00000  Uiso   1.00
C158   C     0.86006   0.63995   0.54359   0.00000  Uiso   1.00
C159   C     0.85605   0.72190   0.36678   0.00000  Uiso   1.00
C160   C     0.89533   0.70980   0.32768   0.00000  Uiso   1.00
C161   C     0.87749   0.65944   0.26137   0.00000  Uiso   1.00
H162   H     0.72207   0.67787   0.37185   0.00000  Uiso   1.00
H163   H     0.68211   0.82443   0.40645   0.00000  Uiso   1.00
H164   H     0.72837   0.59272   0.44770   0.00000  Uiso   1.00
H165   H     0.74033   0.60610   0.25408   0.00000  Uiso   1.00
H166   H     0.66212   0.00319   0.45639   0.00000  Uiso   1.00
H167   H     0.75966   0.51458   0.54334   0.00000  Uiso   1.00
H168   H     0.78488   0.54280   0.13506   0.00000  Uiso   1.00
H169   H     0.90946   0.80324   0.46084   0.00000  Uiso   1.00
H170   H     0.87978   0.95669   0.50033   0.00000  Uiso   1.00
H171   H     0.92604   0.72497   0.54158   0.00000  Uiso   1.00
H172   H     0.93799   0.73836   0.34796   0.00000  Uiso   1.00
H173   H     0.82255   0.11054   0.53259   0.00000  Uiso   1.00
H174   H     0.92010   0.62192   0.61954   0.00000  Uiso   1.00
H175   H     0.94531   0.65015   0.21127   0.00000  Uiso   1.00
O176   O     0.71943   0.15554   0.51888   0.00000  Uiso   1.00
O177   O     0.84741   0.51449   0.63294   0.00000  Uiso   1.00
O178   O     0.88049   0.55153   0.09730   0.00000  Uiso   1.00
N179   N     0.70395   0.00740   0.46889   0.00000  Uiso   1.00
N180   N     0.79515   0.55059   0.55019   0.00000  Uiso   1.00
N181   N     0.81872   0.57695   0.16849   0.00000  Uiso   1.00
N182   N     0.79028   0.06516   0.50989   0.00000  Uiso   1.00
N183   N     0.88148   0.60835   0.59119   0.00000  Uiso   1.00
N184   N     0.90505   0.63472   0.20950   0.00000  Uiso   1.00
C185   C     0.60229   0.56744   0.70679   0.00000  Uiso   1.00
C186   C     0.65549   0.53522   0.73275   0.00000  Uiso   1.00
C187   C     0.70398   0.52839   0.70840   0.00000  Uiso   1.00
C188   C     0.74806   0.49748   0.73892   0.00000  Uiso   1.00
C189   C     0.83133   0.45102   0.77120   0.00000  Uiso   1.00
C190   C     0.59019   0.64128   0.76539   0.00000  Uiso   1.00
C191   C     0.58376   0.72362   0.76847   0.00000  Uiso   1.00
C192   C     0.57287   0.78199   0.82647   0.00000  Uiso   1.00
C193   C     0.55472   0.90017   0.90939   0.00000  Uiso   1.00
C194   C     0.55576   0.49653   0.68906   0.00000  Uiso   1.00
C195   C     0.52038   0.45718   0.62797   0.00000  Uiso   1.00
C196   C     0.48050   0.39370   0.62170   0.00000  Uiso   1.00
C197   C     0.40889   0.28714   0.58611   0.00000  Uiso   1.00
C198   C     0.59436   0.52468   0.80430   0.00000  Uiso   1.00
C199   C     0.65118   0.51199   0.78572   0.00000  Uiso   1.00
C200   C     0.69521   0.48108   0.81629   0.00000  Uiso   1.00
C201   C     0.74375   0.47420   0.79198   0.00000  Uiso   1.00
C202   C     0.58588   0.61805   0.81835   0.00000  Uiso   1.00
C203   C     0.57499   0.67631   0.87636   0.00000  Uiso   1.00
C204   C     0.56856   0.75872   0.87953   0.00000  Uiso   1.00
C205   C     0.55146   0.47330   0.74202   0.00000  Uiso   1.00
C206   C     0.51162   0.40987   0.73585   0.00000  Uiso   1.00
C207   C     0.47618   0.37043   0.67476   0.00000  Uiso   1.00
H208   H     0.60564   0.58553   0.66556   0.00000  Uiso   1.00
H209   H     0.70729   0.54638   0.66742   0.00000  Uiso   1.00
H210   H     0.58709   0.74157   0.72747   0.00000  Uiso   1.00
H211   H     0.52373   0.47518   0.58699   0.00000  Uiso   1.00
H212   H     0.81810   0.49276   0.69285   0.00000  Uiso   1.00
H213   H     0.56463   0.90433   0.81947   0.00000  Uiso   1.00
H214   H     0.43101   0.34258   0.52324   0.00000  Uiso   1.00
H215   H     0.59101   0.50660   0.84554   0.00000  Uiso   1.00
H216   H     0.69186   0.46311   0.85727   0.00000  Uiso   1.00
H217   H     0.57166   0.65831   0.91733   0.00000  Uiso   1.00
H218   H     0.50829   0.39191   0.77685   0.00000  Uiso   1.00
H219   H     0.80558   0.42518   0.84694   0.00000  Uiso   1.00
H220   H     0.55210   0.83676   0.97357   0.00000  Uiso   1.00
H221   H     0.41848   0.27500   0.67733   0.00000  Uiso   1.00
O222   O     0.87845   0.43182   0.77438   0.00000  Uiso   1.00
O223   O     0.54590   0.97178   0.94050   0.00000  Uiso   1.00
O224   O     0.37059   0.23477   0.55185   0.00000  Uiso   1.00
N225   N     0.80131   0.48281   0.72749   0.00000  Uiso   1.00
N226   N     0.56434   0.86761   0.84589   0.00000  Uiso   1.00
N227   N     0.43940   0.34243   0.56894   0.00000  Uiso   1.00
N228   N     0.79457   0.44644   0.81041   0.00000  Uiso   1.00
N229   N     0.55760   0.83124   0.92881   0.00000  Uiso   1.00
N230   N     0.43266   0.30607   0.65185   0.00000  Uiso   1.00
C231   C     0.52198   0.86657   0.64156   0.00000  Uiso   1.00
C232   C     0.51595   0.95226   0.69394   0.00000  Uiso   1.00
C233   C     0.49751   0.96403   0.75137   0.00000  Uiso   1.00
C234   C     0.49496   0.04747   0.79296   0.00000  Uiso   1.00
C235   C     0.48330   0.17001   0.87664   0.00000  Uiso   1.00
C236   C     0.58247   0.86989   0.63426   0.00000  Uiso   1.00
C237   C     0.61995   0.81241   0.64149   0.00000  Uiso   1.00
C238   C     0.67339   0.82650   0.63283   0.00000  Uiso   1.00
C239   C     0.76498   0.82113   0.62380   0.00000  Uiso   1.00
C240   C     0.48687   0.86475   0.57714   0.00000  Uiso   1.00
C241   C     0.44399   0.80294   0.53633   0.00000  Uiso   1.00
C242   C     0.41695   0.81270   0.47957   0.00000  Uiso   1.00
C243   C     0.36011   0.79936   0.38186   0.00000  Uiso   1.00
C244   C     0.55022   0.99380   0.61332   0.00000  Uiso   1.00
C245   C     0.53129   0.02136   0.67860   0.00000  Uiso   1.00
C246   C     0.52876   0.10480   0.72012   0.00000  Uiso   1.00
C247   C     0.51032   0.11670   0.77759   0.00000  Uiso   1.00
C248   C     0.59781   0.93899   0.61892   0.00000  Uiso   1.00
C249   C     0.65120   0.95318   0.61024   0.00000  Uiso   1.00
C250   C     0.68876   0.89573   0.61746   0.00000  Uiso   1.00
C251   C     0.50221   0.93386   0.56180   0.00000  Uiso   1.00
C252   C     0.47523   0.94372   0.50509   0.00000  Uiso   1.00
C253   C     0.43232   0.88194   0.46420   0.00000  Uiso   1.00
H254   H     0.51004   0.81276   0.65351   0.00000  Uiso   1.00
H255   H     0.48565   0.91053   0.76322   0.00000  Uiso   1.00
H256   H     0.60807   0.75893   0.65335   0.00000  Uiso   1.00
H257   H     0.43213   0.74947   0.54822   0.00000  Uiso   1.00
H258   H     0.46540   0.04941   0.87811   0.00000  Uiso   1.00
H259   H     0.72352   0.72972   0.64642   0.00000  Uiso   1.00
H260   H     0.35251   0.70978   0.42472   0.00000  Uiso   1.00
H261   H     0.56216   0.04761   0.60137   0.00000  Uiso   1.00
H262   H     0.54064   0.15827   0.70823   0.00000  Uiso   1.00
H263   H     0.66306   0.00666   0.59836   0.00000  Uiso   1.00
H264   H     0.48712   0.99720   0.49323   0.00000  Uiso   1.00
H265   H     0.51003   0.25048   0.83348   0.00000  Uiso   1.00
H266   H     0.76815   0.93079   0.60179   0.00000  Uiso   1.00
H267   H     0.39715   0.91085   0.38009   0.00000  Uiso   1.00
O268   O     0.47263   0.21851   0.92704   0.00000  Uiso   1.00
O269   O     0.81127   0.79908   0.62306   0.00000  Uiso   1.00
O270   O     0.32452   0.77291   0.33220   0.00000  Uiso   1.00
N271   N     0.47885   0.08155   0.85294   0.00000  Uiso   1.00
N272   N     0.72018   0.78266   0.63633   0.00000  Uiso   1.00
N273   N     0.37333   0.76400   0.42905   0.00000  Uiso   1.00
N274   N     0.50286   0.18974   0.82892   0.00000  Uiso   1.00
N275   N     0.74419   0.89086   0.61232   0.00000  Uiso   1.00
N276   N     0.39734   0.87220   0.40504   0.00000  Uiso   1.00
C277   C     0.79631   0.14972   0.78237   0.00000  Uiso   1.00
C278   C     0.74777   0.18766   0.75288   0.00000  Uiso   1.00
C279   C     0.73456   0.18155   0.68816   0.00000  Uiso   1.00
C280   C     0.68851   0.22061   0.67081   0.00000  Uiso   1.00
C281   C     0.61794   0.27287   0.61804   0.00000  Uiso   1.00
C282   C     0.77076   0.09267   0.81109   0.00000  Uiso   1.00
C283   C     0.77689   0.00669   0.79532   0.00000  Uiso   1.00
C284   C     0.75020   0.96579   0.82698   0.00000  Uiso   1.00
C285   C     0.71536   0.87057   0.86461   0.00000  Uiso   1.00
C286   C     0.83046   0.22379   0.84090   0.00000  Uiso   1.00
C287   C     0.88678   0.24806   0.85022   0.00000  Uiso   1.00
C288   C     0.91036   0.31755   0.90699   0.00000  Uiso   1.00
C289   C     0.96820   0.42593   0.99091   0.00000  Uiso   1.00
C290   C     0.73803   0.22995   0.86664   0.00000  Uiso   1.00
C291   C     0.71612   0.23124   0.79865   0.00000  Uiso   1.00
C292   C     0.67008   0.27032   0.78139   0.00000  Uiso   1.00
C293   C     0.65680   0.26427   0.71666   0.00000  Uiso   1.00
C294   C     0.73911   0.13624   0.85686   0.00000  Uiso   1.00
C295   C     0.71241   0.09546   0.88855   0.00000  Uiso   1.00
C296   C     0.71849   0.00944   0.87283   0.00000  Uiso   1.00
C297   C     0.79880   0.26738   0.88668   0.00000  Uiso   1.00
C298   C     0.82230   0.33683   0.94345   0.00000  Uiso   1.00
C299   C     0.87865   0.36120   0.95284   0.00000  Uiso   1.00
H300   H     0.82096   0.11578   0.74674   0.00000  Uiso   1.00
H301   H     0.75907   0.14781   0.65275   0.00000  Uiso   1.00
H302   H     0.80139   0.97298   0.75990   0.00000  Uiso   1.00
H303   H     0.91127   0.21432   0.81479   0.00000  Uiso   1.00
H304   H     0.67648   0.20252   0.56873   0.00000  Uiso   1.00
H305   H     0.76574   0.83389   0.79467   0.00000  Uiso   1.00
H306   H     0.99743   0.34279   0.91041   0.00000  Uiso   1.00
H307   H     0.71338   0.26388   0.90228   0.00000  Uiso   1.00
H308   H     0.64559   0.30404   0.81682   0.00000  Uiso   1.00
H309   H     0.68792   0.12921   0.92397   0.00000  Uiso   1.00
H310   H     0.79779   0.37054   0.97886   0.00000  Uiso   1.00
H311   H     0.58437   0.32931   0.70189   0.00000  Uiso   1.00
H312   H     0.67364   0.96068   0.92784   0.00000  Uiso   1.00
H313   H     0.90533   0.46958   0.04357   0.00000  Uiso   1.00
O314   O     0.58776   0.28964   0.57628   0.00000  Uiso   1.00
O315   O     0.70488   0.80601   0.87272   0.00000  Uiso   1.00
O316   O     0.00885   0.47368   0.02456   0.00000  Uiso   1.00
N317   N     0.66411   0.22686   0.61180   0.00000  Uiso   1.00
N318   N     0.74756   0.88221   0.82303   0.00000  Uiso   1.00
N319   N     0.96417   0.35798   0.93125   0.00000  Uiso   1.00
N320   N     0.61455   0.29509   0.68345   0.00000  Uiso   1.00
N321   N     0.69800   0.95044   0.89469   0.00000  Uiso   1.00
N322   N     0.91462   0.42621   0.00290   0.00000  Uiso   1.00
C323   C     0.87626   0.79892   0.00316   0.00000  Uiso   1.00
C324   C     0.82678   0.74171   0.00168   0.00000  Uiso   1.00
C325   C     0.77330   0.76499   0.00562   0.00000  Uiso   1.00
C326   C     0.73387   0.70343   0.00339   0.00000  Uiso   1.00
C327   C     0.65496   0.62703   0.00196   0.00000  Uiso   1.00
C328   C     0.89718   0.75212   0.94046   0.00000  Uiso   1.00
C329   C     0.90291   0.78416   0.89294   0.00000  Uiso   1.00
C330   C     0.92275   0.73137   0.83918   0.00000  Uiso   1.00
C331   C     0.95318   0.67116   0.74274   0.00000  Uiso   1.00
C332   C     0.92199   0.79965   0.05982   0.00000  Uiso   1.00
C333   C     0.94858   0.87166   0.11264   0.00000  Uiso   1.00
C334   C     0.98932   0.85889   0.15937   0.00000  Uiso   1.00
C335   C     0.05827   0.87248   0.24825   0.00000  Uiso   1.00
C336   C     0.90132   0.64820   0.99220   0.00000  Uiso   1.00
C337   C     0.84039   0.65984   0.99573   0.00000  Uiso   1.00
C338   C     0.80103   0.59824   0.99349   0.00000  Uiso   1.00
C339   C     0.74751   0.62142   0.99743   0.00000  Uiso   1.00
C340   C     0.91080   0.67026   0.93451   0.00000  Uiso   1.00
C341   C     0.93064   0.61741   0.88082   0.00000  Uiso   1.00
C342   C     0.93639   0.64936   0.83322   0.00000  Uiso   1.00
C343   C     0.93560   0.71779   0.05387   0.00000  Uiso   1.00
C344   C     0.97631   0.70490   0.10052   0.00000  Uiso   1.00
C345   C     0.00296   0.77688   0.15341   0.00000  Uiso   1.00
H346   H     0.86566   0.86265   0.00779   0.00000  Uiso   1.00
H347   H     0.76278   0.82835   0.01022   0.00000  Uiso   1.00
H348   H     0.89237   0.84752   0.89756   0.00000  Uiso   1.00
H349   H     0.93804   0.93500   0.11723   0.00000  Uiso   1.00
H350   H     0.65472   0.75420   0.01026   0.00000  Uiso   1.00
H351   H     0.92799   0.79463   0.77273   0.00000  Uiso   1.00
H352   H     0.02429   0.97911   0.23595   0.00000  Uiso   1.00
H353   H     0.91193   0.58447   0.98757   0.00000  Uiso   1.00
H354   H     0.81158   0.53489   0.98889   0.00000  Uiso   1.00
H355   H     0.94117   0.55406   0.87623   0.00000  Uiso   1.00
H356   H     0.98684   0.64154   0.09590   0.00000  Uiso   1.00
H357   H     0.69433   0.51602   0.99294   0.00000  Uiso   1.00
H358   H     0.96760   0.55645   0.75541   0.00000  Uiso   1.00
H359   H     0.06389   0.74093   0.21863   0.00000  Uiso   1.00
O360   O     0.60767   0.60750   0.00281   0.00000  Uiso   1.00
O361   O     0.96620   0.66056   0.69118   0.00000  Uiso   1.00
O362   O     0.09254   0.90259   0.29892   0.00000  Uiso   1.00
N363   N     0.67781   0.70495   0.00601   0.00000  Uiso   1.00
N364   N     0.93329   0.74275   0.78393   0.00000  Uiso   1.00
N365   N     0.02334   0.91522   0.21699   0.00000  Uiso   1.00
N366   N     0.69913   0.57679   0.99670   0.00000  Uiso   1.00
N367   N     0.95461   0.61459   0.77461   0.00000  Uiso   1.00
N368   N     0.04465   0.78706   0.20768   0.00000  Uiso   1.00
C369   C     0.09837   0.90569   0.84769   0.00000  Uiso   1.00
C370   C     0.09391   0.81641   0.84860   0.00000  Uiso   1.00
C371   C     0.09221   0.79719   0.90340   0.00000  Uiso   1.00
C372   C     0.08805   0.71155   0.89403   0.00000  Uiso   1.00
C373   C     0.08145   0.58265   0.90485   0.00000  Uiso   1.00
C374   C     0.04845   0.90760   0.79639   0.00000  Uiso   1.00
C375   C     0.00854   0.96508   0.80730   0.00000  Uiso   1.00
C376   C     0.96612   0.95621   0.75398   0.00000  Uiso   1.00
C377   C     0.88897   0.96894   0.68374   0.00000  Uiso   1.00
C378   C     0.14976   0.91226   0.81990   0.00000  Uiso   1.00
C379   C     0.19504   0.97366   0.85056   0.00000  Uiso   1.00
C380   C     0.23792   0.96872   0.81702   0.00000  Uiso   1.00
C381   C     0.31807   0.98868   0.78328   0.00000  Uiso   1.00
C382   C     0.09401   0.78778   0.73360   0.00000  Uiso   1.00
C383   C     0.09153   0.75236   0.78662   0.00000  Uiso   1.00
C384   C     0.08738   0.66673   0.77717   0.00000  Uiso   1.00
C385   C     0.08568   0.64738   0.83195   0.00000  Uiso   1.00
C386   C     0.04608   0.84356   0.73442   0.00000  Uiso   1.00
C387   C     0.00371   0.83461   0.68107   0.00000  Uiso   1.00
C388   C     0.96374   0.89205   0.69189   0.00000  Uiso   1.00
C389   C     0.14739   0.84821   0.75792   0.00000  Uiso   1.00
C390   C     0.19021   0.84319   0.72433   0.00000  Uiso   1.00
C391   C     0.23554   0.90456   0.75493   0.00000  Uiso   1.00
H392   H     0.10022   0.95556   0.89594   0.00000  Uiso   1.00
H393   H     0.09404   0.84677   0.95135   0.00000  Uiso   1.00
H394   H     0.01039   0.01464   0.85526   0.00000  Uiso   1.00
H395   H     0.19686   0.02321   0.89851   0.00000  Uiso   1.00
H396   H     0.08613   0.69792   0.98545   0.00000  Uiso   1.00
H397   H     0.90975   0.05189   0.78284   0.00000  Uiso   1.00
H398   H     0.30296   0.06997   0.87405   0.00000  Uiso   1.00
H399   H     0.09216   0.73791   0.68535   0.00000  Uiso   1.00
H400   H     0.08554   0.61718   0.72920   0.00000  Uiso   1.00
H401   H     0.00189   0.78504   0.63312   0.00000  Uiso   1.00
H402   H     0.18836   0.79362   0.67637   0.00000  Uiso   1.00
H403   H     0.07923   0.51157   0.80515   0.00000  Uiso   1.00
H404   H     0.90285   0.86554   0.60254   0.00000  Uiso   1.00
H405   H     0.29606   0.88362   0.69375   0.00000  Uiso   1.00
O406   O     0.07845   0.52925   0.92794   0.00000  Uiso   1.00
O407   O     0.84706   0.99365   0.66213   0.00000  Uiso   1.00
O408   O     0.36294   0.01737   0.78179   0.00000  Uiso   1.00
N409   N     0.08542   0.67063   0.93700   0.00000  Uiso   1.00
N410   N     0.92052   0.00156   0.74758   0.00000  Uiso   1.00
N411   N     0.28813   0.01848   0.83284   0.00000  Uiso   1.00
N412   N     0.08171   0.57036   0.83998   0.00000  Uiso   1.00
N413   N     0.91681   0.90129   0.65056   0.00000  Uiso   1.00
N414   N     0.28442   0.91821   0.73582   0.00000  Uiso   1.00
C415   C     0.42203   0.48932   0.42936   0.00000  Uiso   1.00
C416   C     0.43272   0.39590   0.41017   0.00000  Uiso   1.00
C417   C     0.47962   0.36089   0.38906   0.00000  Uiso   1.00
C418   C     0.48151   0.27408   0.37382   0.00000  Uiso   1.00
C419   C     0.50472   0.13660   0.34312   0.00000  Uiso   1.00
C420   C     0.36646   0.49022   0.38584   0.00000  Uiso   1.00
C421   C     0.35765   0.53452   0.34429   0.00000  Uiso   1.00
C422   C     0.30376   0.52711   0.30857   0.00000  Uiso   1.00
C423   C     0.22408   0.53611   0.24014   0.00000  Uiso   1.00
C424   C     0.41204   0.51885   0.49925   0.00000  Uiso   1.00
C425   C     0.44155   0.58725   0.55305   0.00000  Uiso   1.00
C426   C     0.42603   0.60396   0.61282   0.00000  Uiso   1.00
C427   C     0.41713   0.65743   0.72046   0.00000  Uiso   1.00
C428   C     0.34198   0.39740   0.43983   0.00000  Uiso   1.00
C429   C     0.38924   0.34597   0.41585   0.00000  Uiso   1.00
C430   C     0.39106   0.25919   0.40064   0.00000  Uiso   1.00
C431   C     0.43796   0.22406   0.37952   0.00000  Uiso   1.00
C432   C     0.32298   0.44029   0.39152   0.00000  Uiso   1.00
C433   C     0.26909   0.43282   0.35587   0.00000  Uiso   1.00
C434   C     0.26020   0.47709   0.31427   0.00000  Uiso   1.00
C435   C     0.36856   0.46893   0.50493   0.00000  Uiso   1.00
C436   C     0.35299   0.48554   0.56463   0.00000  Uiso   1.00
C437   C     0.38247   0.55394   0.61851   0.00000  Uiso   1.00
H438   H     0.45587   0.52819   0.42494   0.00000  Uiso   1.00
H439   H     0.51326   0.39955   0.38466   0.00000  Uiso   1.00
H440   H     0.39130   0.57316   0.33990   0.00000  Uiso   1.00
H441   H     0.47520   0.62587   0.54863   0.00000  Uiso   1.00
H442   H     0.55770   0.23490   0.34250   0.00000  Uiso   1.00
H443   H     0.30055   0.60098   0.24814   0.00000  Uiso   1.00
H444   H     0.47745   0.71215   0.68828   0.00000  Uiso   1.00
H445   H     0.30812   0.35853   0.44425   0.00000  Uiso   1.00
H446   H     0.35740   0.22057   0.40504   0.00000  Uiso   1.00
H447   H     0.23545   0.39418   0.36028   0.00000  Uiso   1.00
H448   H     0.31934   0.44689   0.56901   0.00000  Uiso   1.00
H449   H     0.43120   0.08963   0.35904   0.00000  Uiso   1.00
H450   H     0.17405   0.45572   0.26467   0.00000  Uiso   1.00
H451   H     0.35095   0.56688   0.70482   0.00000  Uiso   1.00
O452   O     0.52952   0.07457   0.32460   0.00000  Uiso   1.00
O453   O     0.19215   0.55487   0.20081   0.00000  Uiso   1.00
O454   O     0.42424   0.70071   0.77827   0.00000  Uiso   1.00
N455   N     0.52117   0.21965   0.35179   0.00000  Uiso   1.00
N456   N     0.28075   0.56190   0.26355   0.00000  Uiso   1.00
N457   N     0.44613   0.66584   0.67505   0.00000  Uiso   1.00
N458   N     0.45310   0.14148   0.36068   0.00000  Uiso   1.00
N459   N     0.21268   0.48374   0.27245   0.00000  Uiso   1.00
N460   N     0.37806   0.58768   0.68395   0.00000  Uiso   1.00
C461   C     0.40559   0.61979   0.14591   0.00000  Uiso   1.00
C462   C     0.35314   0.65704   0.12411   0.00000  Uiso   1.00
C463   C     0.29957   0.63570   0.12874   0.00000  Uiso   1.00
C464   C     0.25718   0.67692   0.10607   0.00000  Uiso   1.00
C465   C     0.17408   0.72554   0.07619   0.00000  Uiso   1.00
C466   C     0.43144   0.58303   0.08562   0.00000  Uiso   1.00
C467   C     0.44371   0.49946   0.05790   0.00000  Uiso   1.00
C468   C     0.46725   0.47838   0.00284   0.00000  Uiso   1.00
C469   C     0.50575   0.41210   0.91324   0.00000  Uiso   1.00
C470   C     0.44590   0.69548   0.19476   0.00000  Uiso   1.00
C471   C     0.47034   0.70645   0.25880   0.00000  Uiso   1.00
C472   C     0.50605   0.78003   0.29561   0.00000  Uiso   1.00
C473   C     0.56699   0.88835   0.37546   0.00000  Uiso   1.00
C474   C     0.42558   0.73094   0.09740   0.00000  Uiso   1.00
C475   C     0.36399   0.71741   0.09776   0.00000  Uiso   1.00
C476   C     0.32168   0.75868   0.07507   0.00000  Uiso   1.00
C477   C     0.26805   0.73741   0.07968   0.00000  Uiso   1.00
C478   C     0.44229   0.64339   0.05927   0.00000  Uiso   1.00
C479   C     0.46582   0.62243   0.00423   0.00000  Uiso   1.00
C480   C     0.47812   0.53886   0.97644   0.00000  Uiso   1.00
C481   C     0.45675   0.75585   0.16841   0.00000  Uiso   1.00
C482   C     0.49244   0.82943   0.20513   0.00000  Uiso   1.00
C483   C     0.51693   0.84051   0.26922   0.00000  Uiso   1.00
H484   H     0.39715   0.57279   0.16642   0.00000  Uiso   1.00
H485   H     0.29119   0.58897   0.14913   0.00000  Uiso   1.00
H486   H     0.43532   0.45276   0.07831   0.00000  Uiso   1.00
H487   H     0.46193   0.65972   0.27917   0.00000  Uiso   1.00
H488   H     0.17849   0.63352   0.11832   0.00000  Uiso   1.00
H489   H     0.48241   0.34630   0.96900   0.00000  Uiso   1.00
H490   H     0.53853   0.78272   0.39256   0.00000  Uiso   1.00
H491   H     0.43403   0.77795   0.07689   0.00000  Uiso   1.00
H492   H     0.33009   0.80539   0.05468   0.00000  Uiso   1.00
H493   H     0.47422   0.66917   0.98386   0.00000  Uiso   1.00
H494   H     0.50083   0.87613   0.18472   0.00000  Uiso   1.00
H495   H     0.21007   0.80917   0.04166   0.00000  Uiso   1.00
H496   H     0.51399   0.52195   0.89234   0.00000  Uiso   1.00
H497   H     0.57011   0.95837   0.31590   0.00000  Uiso   1.00
O498   O     0.12524   0.73568   0.06698   0.00000  Uiso   1.00
O499   O     0.52398   0.35886   0.87109   0.00000  Uiso   1.00
O500   O     0.59760   0.93143   0.42679   0.00000  Uiso   1.00
N501   N     0.20019   0.67110   0.10334   0.00000  Uiso   1.00
N502   N     0.48433   0.40257   0.96373   0.00000  Uiso   1.00
N503   N     0.53681   0.81057   0.35971   0.00000  Uiso   1.00
N504   N     0.21718   0.76562   0.06209   0.00000  Uiso   1.00
N505   N     0.50132   0.49709   0.92248   0.00000  Uiso   1.00
N506   N     0.55380   0.90509   0.31847   0.00000  Uiso   1.00
C507   C     0.51586   0.47919   0.24114   0.00000  Uiso   1.00
C508   C     0.55257   0.44880   0.19059   0.00000  Uiso   1.00
C509   C     0.56477   0.49033   0.15092   0.00000  Uiso   1.00
C510   C     0.59916   0.45217   0.10782   0.00000  Uiso   1.00
C511   C     0.65288   0.41667   0.02979   0.00000  Uiso   1.00
C512   C     0.47030   0.40655   0.22232   0.00000  Uiso   1.00
C513   C     0.41332   0.41257   0.20935   0.00000  Uiso   1.00
C514   C     0.37846   0.33884   0.19296   0.00000  Uiso   1.00
C515   C     0.30446   0.23776   0.16425   0.00000  Uiso   1.00
C516   C     0.55172   0.48514   0.30640   0.00000  Uiso   1.00
C517   C     0.56318   0.55723   0.36412   0.00000  Uiso   1.00
C518   C     0.59686   0.54966   0.41853   0.00000  Uiso   1.00
C519   C     0.64926   0.57060   0.52036   0.00000  Uiso   1.00
C520   C     0.55527   0.33755   0.23513   0.00000  Uiso   1.00
C521   C     0.57397   0.37187   0.18732   0.00000  Uiso   1.00
C522   C     0.60836   0.33363   0.14427   0.00000  Uiso   1.00
C523   C     0.62060   0.37510   0.10455   0.00000  Uiso   1.00
C524   C     0.49170   0.32962   0.21905   0.00000  Uiso   1.00
C525   C     0.45692   0.25587   0.20269   0.00000  Uiso   1.00
C526   C     0.39990   0.26177   0.18969   0.00000  Uiso   1.00
C527   C     0.57312   0.40821   0.30313   0.00000  Uiso   1.00
C528   C     0.60678   0.40052   0.35747   0.00000  Uiso   1.00
C529   C     0.61830   0.47259   0.41526   0.00000  Uiso   1.00
H530   H     0.49920   0.53907   0.24369   0.00000  Uiso   1.00
H531   H     0.54819   0.54986   0.15346   0.00000  Uiso   1.00
H532   H     0.39677   0.47211   0.21188   0.00000  Uiso   1.00
H533   H     0.54661   0.61675   0.36663   0.00000  Uiso   1.00
H534   H     0.61193   0.52788   0.05197   0.00000  Uiso   1.00
H535   H     0.29266   0.36395   0.17518   0.00000  Uiso   1.00
H536   H     0.60862   0.66894   0.50150   0.00000  Uiso   1.00
H537   H     0.57193   0.27765   0.23259   0.00000  Uiso   1.00
H538   H     0.62492   0.27410   0.14175   0.00000  Uiso   1.00
H539   H     0.47350   0.19635   0.20017   0.00000  Uiso   1.00
H540   H     0.62333   0.34098   0.35492   0.00000  Uiso   1.00
H541   H     0.67420   0.30406   0.04247   0.00000  Uiso   1.00
H542   H     0.35493   0.14012   0.16568   0.00000  Uiso   1.00
H543   H     0.67089   0.44512   0.49200   0.00000  Uiso   1.00
O544   O     0.67659   0.41833   0.98765   0.00000  Uiso   1.00
O545   O     0.25772   0.20326   0.14931   0.00000  Uiso   1.00
O546   O     0.67225   0.60341   0.57743   0.00000  Uiso   1.00
N547   N     0.61932   0.47570   0.06221   0.00000  Uiso   1.00
N548   N     0.32082   0.32243   0.17739   0.00000  Uiso   1.00
N549   N     0.61620   0.60757   0.48248   0.00000  Uiso   1.00
N550   N     0.65283   0.35527   0.05710   0.00000  Uiso   1.00
N551   N     0.35433   0.20199   0.17228   0.00000  Uiso   1.00
N552   N     0.64971   0.48713   0.47737   0.00000  Uiso   1.00
