data_job_04375
_audit_creation_date              2018-12-19
_audit_creation_method            'Materials Studio'
_symmetry_space_group_name_H-M    'P1'
_symmetry_Int_Tables_number       1
_symmetry_cell_setting            triclinic
loop_
_symmetry_equiv_pos_as_xyz
  x,y,z
_cell_length_a                    23.9628
_cell_length_b                    7.0492
_cell_length_c                    26.7376
_cell_angle_alpha                 90.0000
_cell_angle_beta                  90.0000
_cell_angle_gamma                 90.0000
loop_
_atom_site_label
_atom_site_type_symbol
_atom_site_fract_x
_atom_site_fract_y
_atom_site_fract_z
_atom_site_U_iso_or_equiv
_atom_site_adp_type
_atom_site_occupancy
C1     C     0.73363   0.98073   0.41319   0.00000  Uiso   1.00
C2     C     0.73144   0.12342   0.45602   0.00000  Uiso   1.00
C3     C     0.73735   0.08111   0.50643   0.00000  Uiso   1.00
C4     C     0.73404   0.23165   0.53978   0.00000  Uiso   1.00
C5     C     0.73197   0.42490   0.60879   0.00000  Uiso   1.00
C6     C     0.67889   0.00335   0.38473   0.00000  Uiso   1.00
C7     C     0.64061   0.86008   0.37520   0.00000  Uiso   1.00
C8     C     0.59307   0.90955   0.34853   0.00000  Uiso   1.00
C9     C     0.50943   0.91635   0.30683   0.00000  Uiso   1.00
C10    C     0.77933   0.05019   0.37799   0.00000  Uiso   1.00
C11    C     0.82551   0.94629   0.36278   0.00000  Uiso   1.00
C12    C     0.86253   0.03518   0.33044   0.00000  Uiso   1.00
C13    C     0.93485   0.11471   0.27828   0.00000  Uiso   1.00
C14    C     0.71726   0.32332   0.38277   0.00000  Uiso   1.00
C15    C     0.72255   0.30950   0.43949   0.00000  Uiso   1.00
C16    C     0.71924   0.46015   0.47277   0.00000  Uiso   1.00
C17    C     0.72514   0.41807   0.52323   0.00000  Uiso   1.00
C18    C     0.67000   0.18942   0.36821   0.00000  Uiso   1.00
C19    C     0.62250   0.23912   0.34154   0.00000  Uiso   1.00
C20    C     0.58416   0.09597   0.33198   0.00000  Uiso   1.00
C21    C     0.77045   0.23627   0.36147   0.00000  Uiso   1.00
C22    C     0.80740   0.32534   0.32913   0.00000  Uiso   1.00
C23    C     0.85363   0.22160   0.31388   0.00000  Uiso   1.00
H24    H     0.74055   0.83585   0.42606   0.00000  Uiso   1.00
H25    H     0.74422   0.93708   0.51920   0.00000  Uiso   1.00
H26    H     0.64750   0.71609   0.38799   0.00000  Uiso   1.00
H27    H     0.83237   0.80229   0.37558   0.00000  Uiso   1.00
H28    H     0.74435   0.13137   0.61519   0.00000  Uiso   1.00
H29    H     0.54043   0.66537   0.33850   0.00000  Uiso   1.00
H30    H     0.93027   0.84714   0.31233   0.00000  Uiso   1.00
H31    H     0.71034   0.46820   0.36991   0.00000  Uiso   1.00
H32    H     0.71236   0.60414   0.45998   0.00000  Uiso   1.00
H33    H     0.61564   0.38313   0.32876   0.00000  Uiso   1.00
H34    H     0.80051   0.46934   0.31635   0.00000  Uiso   1.00
H35    H     0.71849   0.67277   0.56712   0.00000  Uiso   1.00
H36    H     0.51457   0.20677   0.29043   0.00000  Uiso   1.00
H37    H     0.90440   0.38855   0.26426   0.00000  Uiso   1.00
O38    O     0.73328   0.48007   0.65142   0.00000  Uiso   1.00
O39    O     0.46574   0.86869   0.28840   0.00000  Uiso   1.00
O40    O     0.97720   0.10718   0.25408   0.00000  Uiso   1.00
N41    N     0.73800   0.24014   0.59151   0.00000  Uiso   1.00
N42    N     0.54734   0.80446   0.33283   0.00000  Uiso   1.00
N43    N     0.91180   0.97439   0.30836   0.00000  Uiso   1.00
N44    N     0.72408   0.53146   0.56565   0.00000  Uiso   1.00
N45    N     0.53342   0.09579   0.30696   0.00000  Uiso   1.00
N46    N     0.89788   0.26571   0.28249   0.00000  Uiso   1.00
C47    C     0.48063   0.02577   0.11179   0.00000  Uiso   1.00
C48    C     0.47954   0.88468   0.06857   0.00000  Uiso   1.00
C49    C     0.48455   0.92975   0.01824   0.00000  Uiso   1.00
C50    C     0.48250   0.78029   0.98447   0.00000  Uiso   1.00
C51    C     0.48181   0.58978   0.91492   0.00000  Uiso   1.00
C52    C     0.42642   0.99544   0.14056   0.00000  Uiso   1.00
C53    C     0.38677   0.13363   0.15078   0.00000  Uiso   1.00
C54    C     0.34001   0.07740   0.17762   0.00000  Uiso   1.00
C55    C     0.25687   0.05887   0.21987   0.00000  Uiso   1.00
C56    C     0.52734   0.96038   0.14647   0.00000  Uiso   1.00
C57    C     0.57255   0.06911   0.16166   0.00000  Uiso   1.00
C58    C     0.61076   0.98337   0.19349   0.00000  Uiso   1.00
C59    C     0.68432   0.91041   0.24492   0.00000  Uiso   1.00
C60    C     0.46809   0.68020   0.14131   0.00000  Uiso   1.00
C61    C     0.47272   0.69698   0.08460   0.00000  Uiso   1.00
C62    C     0.47067   0.54741   0.05090   0.00000  Uiso   1.00
C63    C     0.47568   0.59225   0.00054   0.00000  Uiso   1.00
C64    C     0.41960   0.80774   0.15660   0.00000  Uiso   1.00
C65    C     0.37290   0.75129   0.18344   0.00000  Uiso   1.00
C66    C     0.33319   0.88936   0.19368   0.00000  Uiso   1.00
C67    C     0.52053   0.77267   0.16250   0.00000  Uiso   1.00
C68    C     0.55868   0.68676   0.19432   0.00000  Uiso   1.00
C69    C     0.60394   0.79533   0.20956   0.00000  Uiso   1.00
H70    H     0.48593   0.17191   0.09931   0.00000  Uiso   1.00
H71    H     0.48981   0.07503   0.00585   0.00000  Uiso   1.00
H72    H     0.39206   0.27888   0.13837   0.00000  Uiso   1.00
H73    H     0.57781   0.21436   0.14925   0.00000  Uiso   1.00
H74    H     0.49109   0.88485   0.90930   0.00000  Uiso   1.00
H75    H     0.28497   0.31470   0.18873   0.00000  Uiso   1.00
H76    H     0.67667   0.17865   0.21168   0.00000  Uiso   1.00
H77    H     0.46279   0.53406   0.15380   0.00000  Uiso   1.00
H78    H     0.46540   0.40217   0.06332   0.00000  Uiso   1.00
H79    H     0.36764   0.60603   0.19584   0.00000  Uiso   1.00
H80    H     0.55339   0.54151   0.20672   0.00000  Uiso   1.00
H81    H     0.47127   0.33874   0.95595   0.00000  Uiso   1.00
H82    H     0.26516   0.76859   0.23539   0.00000  Uiso   1.00
H83    H     0.65685   0.63253   0.25833   0.00000  Uiso   1.00
O84    O     0.48330   0.53655   0.87212   0.00000  Uiso   1.00
O85    O     0.21289   0.10050   0.23874   0.00000  Uiso   1.00
O86    O     0.72678   0.92200   0.26885   0.00000  Uiso   1.00
N87    N     0.48608   0.77442   0.93269   0.00000  Uiso   1.00
N88    N     0.29337   0.17629   0.19394   0.00000  Uiso   1.00
N89    N     0.65956   0.04912   0.21541   0.00000  Uiso   1.00
N90    N     0.47542   0.48056   0.95780   0.00000  Uiso   1.00
N91    N     0.28270   0.88243   0.21905   0.00000  Uiso   1.00
N92    N     0.64890   0.75525   0.24051   0.00000  Uiso   1.00
C93    C     0.26637   0.01927   0.91319   0.00000  Uiso   1.00
C94    C     0.26856   0.87658   0.95602   0.00000  Uiso   1.00
C95    C     0.26265   0.91889   0.00643   0.00000  Uiso   1.00
C96    C     0.26596   0.76835   0.03978   0.00000  Uiso   1.00
C97    C     0.26803   0.57510   0.10879   0.00000  Uiso   1.00
C98    C     0.32111   0.99665   0.88473   0.00000  Uiso   1.00
C99    C     0.35939   0.13992   0.87520   0.00000  Uiso   1.00
C100   C     0.40693   0.09045   0.84853   0.00000  Uiso   1.00
C101   C     0.49057   0.08365   0.80683   0.00000  Uiso   1.00
C102   C     0.22067   0.94981   0.87799   0.00000  Uiso   1.00
C103   C     0.17449   0.05371   0.86278   0.00000  Uiso   1.00
C104   C     0.13747   0.96482   0.83044   0.00000  Uiso   1.00
C105   C     0.06515   0.88529   0.77828   0.00000  Uiso   1.00
C106   C     0.28274   0.67668   0.88277   0.00000  Uiso   1.00
C107   C     0.27745   0.69050   0.93949   0.00000  Uiso   1.00
C108   C     0.28076   0.53985   0.97277   0.00000  Uiso   1.00
C109   C     0.27486   0.58193   0.02323   0.00000  Uiso   1.00
C110   C     0.33000   0.81058   0.86821   0.00000  Uiso   1.00
C111   C     0.37750   0.76088   0.84154   0.00000  Uiso   1.00
C112   C     0.41584   0.90403   0.83198   0.00000  Uiso   1.00
C113   C     0.22955   0.76373   0.86147   0.00000  Uiso   1.00
C114   C     0.19260   0.67466   0.82913   0.00000  Uiso   1.00
C115   C     0.14637   0.77840   0.81388   0.00000  Uiso   1.00
H116   H     0.25945   0.16415   0.92606   0.00000  Uiso   1.00
H117   H     0.25578   0.06292   0.01920   0.00000  Uiso   1.00
H118   H     0.35250   0.28391   0.88799   0.00000  Uiso   1.00
H119   H     0.16763   0.19771   0.87558   0.00000  Uiso   1.00
H120   H     0.25565   0.86863   0.11519   0.00000  Uiso   1.00
H121   H     0.45957   0.33463   0.83850   0.00000  Uiso   1.00
H122   H     0.06973   0.15286   0.81233   0.00000  Uiso   1.00
H123   H     0.28966   0.53180   0.86991   0.00000  Uiso   1.00
H124   H     0.28764   0.39586   0.95998   0.00000  Uiso   1.00
H125   H     0.38436   0.61687   0.82876   0.00000  Uiso   1.00
H126   H     0.19949   0.53066   0.81635   0.00000  Uiso   1.00
H127   H     0.28151   0.32723   0.06712   0.00000  Uiso   1.00
H128   H     0.48543   0.79323   0.79043   0.00000  Uiso   1.00
H129   H     0.09560   0.61145   0.76426   0.00000  Uiso   1.00
O130   O     0.26672   0.51993   0.15142   0.00000  Uiso   1.00
O131   O     0.53426   0.13131   0.78840   0.00000  Uiso   1.00
O132   O     0.02280   0.89282   0.75408   0.00000  Uiso   1.00
N133   N     0.26200   0.75986   0.09151   0.00000  Uiso   1.00
N134   N     0.45266   0.19554   0.83283   0.00000  Uiso   1.00
N135   N     0.08820   0.02561   0.80836   0.00000  Uiso   1.00
N136   N     0.27592   0.46854   0.06565   0.00000  Uiso   1.00
N137   N     0.46658   0.90421   0.80696   0.00000  Uiso   1.00
N138   N     0.10212   0.73429   0.78249   0.00000  Uiso   1.00
C139   C     0.51937   0.97423   0.61179   0.00000  Uiso   1.00
C140   C     0.52046   0.11532   0.56857   0.00000  Uiso   1.00
C141   C     0.51545   0.07025   0.51824   0.00000  Uiso   1.00
C142   C     0.51750   0.21971   0.48447   0.00000  Uiso   1.00
C143   C     0.51819   0.41022   0.41492   0.00000  Uiso   1.00
C144   C     0.57358   0.00456   0.64056   0.00000  Uiso   1.00
C145   C     0.61323   0.86637   0.65078   0.00000  Uiso   1.00
C146   C     0.65999   0.92260   0.67762   0.00000  Uiso   1.00
C147   C     0.74313   0.94113   0.71987   0.00000  Uiso   1.00
C148   C     0.47266   0.03962   0.64647   0.00000  Uiso   1.00
C149   C     0.42745   0.93089   0.66166   0.00000  Uiso   1.00
C150   C     0.38924   0.01663   0.69349   0.00000  Uiso   1.00
C151   C     0.31568   0.08959   0.74492   0.00000  Uiso   1.00
C152   C     0.53191   0.31980   0.64131   0.00000  Uiso   1.00
C153   C     0.52728   0.30302   0.58460   0.00000  Uiso   1.00
C154   C     0.52933   0.45259   0.55090   0.00000  Uiso   1.00
C155   C     0.52432   0.40775   0.50054   0.00000  Uiso   1.00
C156   C     0.58040   0.19226   0.65660   0.00000  Uiso   1.00
C157   C     0.62710   0.24871   0.68344   0.00000  Uiso   1.00
C158   C     0.66681   0.11064   0.69368   0.00000  Uiso   1.00
C159   C     0.47947   0.22733   0.66250   0.00000  Uiso   1.00
C160   C     0.44132   0.31324   0.69432   0.00000  Uiso   1.00
C161   C     0.39606   0.20467   0.70956   0.00000  Uiso   1.00
H162   H     0.51407   0.82809   0.59931   0.00000  Uiso   1.00
H163   H     0.51019   0.92497   0.50585   0.00000  Uiso   1.00
H164   H     0.60794   0.72112   0.63837   0.00000  Uiso   1.00
H165   H     0.42219   0.78564   0.64925   0.00000  Uiso   1.00
H166   H     0.50891   0.11515   0.40930   0.00000  Uiso   1.00
H167   H     0.71503   0.68530   0.68873   0.00000  Uiso   1.00
H168   H     0.32333   0.82135   0.71168   0.00000  Uiso   1.00
H169   H     0.53721   0.46594   0.65380   0.00000  Uiso   1.00
H170   H     0.53460   0.59783   0.56332   0.00000  Uiso   1.00
H171   H     0.63236   0.39397   0.69584   0.00000  Uiso   1.00
H172   H     0.44661   0.45849   0.70672   0.00000  Uiso   1.00
H173   H     0.52873   0.66126   0.45595   0.00000  Uiso   1.00
H174   H     0.73484   0.23141   0.73539   0.00000  Uiso   1.00
H175   H     0.34315   0.36747   0.75833   0.00000  Uiso   1.00
O176   O     0.51670   0.46345   0.37212   0.00000  Uiso   1.00
O177   O     0.78711   0.89950   0.73874   0.00000  Uiso   1.00
O178   O     0.27322   0.07800   0.76885   0.00000  Uiso   1.00
N179   N     0.51392   0.22558   0.43269   0.00000  Uiso   1.00
N180   N     0.70663   0.82371   0.69394   0.00000  Uiso   1.00
N181   N     0.34044   0.95088   0.71541   0.00000  Uiso   1.00
N182   N     0.52458   0.51944   0.45780   0.00000  Uiso   1.00
N183   N     0.71730   0.11757   0.71905   0.00000  Uiso   1.00
N184   N     0.35110   0.24475   0.74051   0.00000  Uiso   1.00
C185   C     0.23363   0.51927   0.41319   0.00000  Uiso   1.00
C186   C     0.23144   0.37658   0.45602   0.00000  Uiso   1.00
C187   C     0.23735   0.41889   0.50643   0.00000  Uiso   1.00
C188   C     0.23404   0.26835   0.53978   0.00000  Uiso   1.00
C189   C     0.23197   0.07510   0.60879   0.00000  Uiso   1.00
C190   C     0.17889   0.49665   0.38473   0.00000  Uiso   1.00
C191   C     0.14061   0.63992   0.37520   0.00000  Uiso   1.00
C192   C     0.09307   0.59045   0.34853   0.00000  Uiso   1.00
C193   C     0.00943   0.58365   0.30683   0.00000  Uiso   1.00
C194   C     0.27933   0.44981   0.37799   0.00000  Uiso   1.00
C195   C     0.32551   0.55371   0.36278   0.00000  Uiso   1.00
C196   C     0.36253   0.46482   0.33044   0.00000  Uiso   1.00
C197   C     0.43485   0.38529   0.27828   0.00000  Uiso   1.00
C198   C     0.21726   0.17668   0.38277   0.00000  Uiso   1.00
C199   C     0.22255   0.19050   0.43949   0.00000  Uiso   1.00
C200   C     0.21924   0.03985   0.47277   0.00000  Uiso   1.00
C201   C     0.22514   0.08193   0.52323   0.00000  Uiso   1.00
C202   C     0.17000   0.31058   0.36821   0.00000  Uiso   1.00
C203   C     0.12250   0.26088   0.34154   0.00000  Uiso   1.00
C204   C     0.08416   0.40403   0.33198   0.00000  Uiso   1.00
C205   C     0.27045   0.26373   0.36147   0.00000  Uiso   1.00
C206   C     0.30740   0.17466   0.32913   0.00000  Uiso   1.00
C207   C     0.35363   0.27840   0.31388   0.00000  Uiso   1.00
H208   H     0.24055   0.66415   0.42606   0.00000  Uiso   1.00
H209   H     0.24422   0.56292   0.51920   0.00000  Uiso   1.00
H210   H     0.14750   0.78391   0.38799   0.00000  Uiso   1.00
H211   H     0.33237   0.69771   0.37558   0.00000  Uiso   1.00
H212   H     0.24435   0.36863   0.61519   0.00000  Uiso   1.00
H213   H     0.04043   0.83463   0.33850   0.00000  Uiso   1.00
H214   H     0.43027   0.65286   0.31233   0.00000  Uiso   1.00
H215   H     0.21034   0.03180   0.36991   0.00000  Uiso   1.00
H216   H     0.21236   0.89586   0.45998   0.00000  Uiso   1.00
H217   H     0.11564   0.11687   0.32876   0.00000  Uiso   1.00
H218   H     0.30051   0.03066   0.31635   0.00000  Uiso   1.00
H219   H     0.21849   0.82723   0.56712   0.00000  Uiso   1.00
H220   H     0.01457   0.29323   0.29043   0.00000  Uiso   1.00
H221   H     0.40440   0.11145   0.26426   0.00000  Uiso   1.00
O222   O     0.23328   0.01993   0.65142   0.00000  Uiso   1.00
O223   O     0.96574   0.63131   0.28840   0.00000  Uiso   1.00
O224   O     0.47720   0.39282   0.25408   0.00000  Uiso   1.00
N225   N     0.23800   0.25986   0.59151   0.00000  Uiso   1.00
N226   N     0.04734   0.69554   0.33283   0.00000  Uiso   1.00
N227   N     0.41180   0.52561   0.30836   0.00000  Uiso   1.00
N228   N     0.22408   0.96854   0.56565   0.00000  Uiso   1.00
N229   N     0.03342   0.40421   0.30696   0.00000  Uiso   1.00
N230   N     0.39788   0.23429   0.28249   0.00000  Uiso   1.00
C231   C     0.98063   0.47423   0.11179   0.00000  Uiso   1.00
C232   C     0.97954   0.61532   0.06857   0.00000  Uiso   1.00
C233   C     0.98455   0.57025   0.01824   0.00000  Uiso   1.00
C234   C     0.98250   0.71971   0.98447   0.00000  Uiso   1.00
C235   C     0.98181   0.91022   0.91492   0.00000  Uiso   1.00
C236   C     0.92642   0.50456   0.14056   0.00000  Uiso   1.00
C237   C     0.88677   0.36637   0.15078   0.00000  Uiso   1.00
C238   C     0.84001   0.42260   0.17762   0.00000  Uiso   1.00
C239   C     0.75687   0.44113   0.21987   0.00000  Uiso   1.00
C240   C     0.02734   0.53962   0.14647   0.00000  Uiso   1.00
C241   C     0.07255   0.43089   0.16166   0.00000  Uiso   1.00
C242   C     0.11076   0.51663   0.19349   0.00000  Uiso   1.00
C243   C     0.18432   0.58959   0.24492   0.00000  Uiso   1.00
C244   C     0.96809   0.81980   0.14131   0.00000  Uiso   1.00
C245   C     0.97272   0.80302   0.08460   0.00000  Uiso   1.00
C246   C     0.97067   0.95259   0.05090   0.00000  Uiso   1.00
C247   C     0.97568   0.90775   0.00054   0.00000  Uiso   1.00
C248   C     0.91960   0.69226   0.15660   0.00000  Uiso   1.00
C249   C     0.87290   0.74871   0.18344   0.00000  Uiso   1.00
C250   C     0.83319   0.61064   0.19368   0.00000  Uiso   1.00
C251   C     0.02053   0.72733   0.16250   0.00000  Uiso   1.00
C252   C     0.05868   0.81324   0.19432   0.00000  Uiso   1.00
C253   C     0.10394   0.70467   0.20956   0.00000  Uiso   1.00
H254   H     0.98593   0.32809   0.09931   0.00000  Uiso   1.00
H255   H     0.98981   0.42497   0.00585   0.00000  Uiso   1.00
H256   H     0.89206   0.22112   0.13837   0.00000  Uiso   1.00
H257   H     0.07781   0.28564   0.14925   0.00000  Uiso   1.00
H258   H     0.99109   0.61515   0.90930   0.00000  Uiso   1.00
H259   H     0.78497   0.18530   0.18873   0.00000  Uiso   1.00
H260   H     0.17667   0.32135   0.21168   0.00000  Uiso   1.00
H261   H     0.96279   0.96594   0.15380   0.00000  Uiso   1.00
H262   H     0.96540   0.09783   0.06332   0.00000  Uiso   1.00
H263   H     0.86764   0.89397   0.19584   0.00000  Uiso   1.00
H264   H     0.05339   0.95849   0.20672   0.00000  Uiso   1.00
H265   H     0.97127   0.16126   0.95595   0.00000  Uiso   1.00
H266   H     0.76516   0.73141   0.23539   0.00000  Uiso   1.00
H267   H     0.15685   0.86747   0.25833   0.00000  Uiso   1.00
O268   O     0.98330   0.96345   0.87212   0.00000  Uiso   1.00
O269   O     0.71289   0.39950   0.23874   0.00000  Uiso   1.00
O270   O     0.22678   0.57800   0.26885   0.00000  Uiso   1.00
N271   N     0.98608   0.72558   0.93269   0.00000  Uiso   1.00
N272   N     0.79337   0.32371   0.19394   0.00000  Uiso   1.00
N273   N     0.15956   0.45088   0.21541   0.00000  Uiso   1.00
N274   N     0.97542   0.01944   0.95780   0.00000  Uiso   1.00
N275   N     0.78270   0.61757   0.21905   0.00000  Uiso   1.00
N276   N     0.14890   0.74475   0.24051   0.00000  Uiso   1.00
C277   C     0.76637   0.48073   0.91319   0.00000  Uiso   1.00
C278   C     0.76856   0.62342   0.95602   0.00000  Uiso   1.00
C279   C     0.76265   0.58111   0.00643   0.00000  Uiso   1.00
C280   C     0.76596   0.73165   0.03978   0.00000  Uiso   1.00
C281   C     0.76803   0.92490   0.10879   0.00000  Uiso   1.00
C282   C     0.82111   0.50335   0.88473   0.00000  Uiso   1.00
C283   C     0.85939   0.36008   0.87520   0.00000  Uiso   1.00
C284   C     0.90693   0.40955   0.84853   0.00000  Uiso   1.00
C285   C     0.99057   0.41635   0.80683   0.00000  Uiso   1.00
C286   C     0.72067   0.55019   0.87799   0.00000  Uiso   1.00
C287   C     0.67449   0.44629   0.86278   0.00000  Uiso   1.00
C288   C     0.63747   0.53518   0.83044   0.00000  Uiso   1.00
C289   C     0.56515   0.61471   0.77828   0.00000  Uiso   1.00
C290   C     0.78274   0.82332   0.88277   0.00000  Uiso   1.00
C291   C     0.77745   0.80950   0.93949   0.00000  Uiso   1.00
C292   C     0.78076   0.96015   0.97277   0.00000  Uiso   1.00
C293   C     0.77486   0.91807   0.02323   0.00000  Uiso   1.00
C294   C     0.83000   0.68942   0.86821   0.00000  Uiso   1.00
C295   C     0.87750   0.73912   0.84154   0.00000  Uiso   1.00
C296   C     0.91584   0.59597   0.83198   0.00000  Uiso   1.00
C297   C     0.72955   0.73627   0.86147   0.00000  Uiso   1.00
C298   C     0.69260   0.82534   0.82913   0.00000  Uiso   1.00
C299   C     0.64637   0.72160   0.81388   0.00000  Uiso   1.00
H300   H     0.75945   0.33585   0.92606   0.00000  Uiso   1.00
H301   H     0.75578   0.43708   0.01920   0.00000  Uiso   1.00
H302   H     0.85250   0.21609   0.88799   0.00000  Uiso   1.00
H303   H     0.66763   0.30229   0.87558   0.00000  Uiso   1.00
H304   H     0.75565   0.63137   0.11519   0.00000  Uiso   1.00
H305   H     0.95957   0.16537   0.83850   0.00000  Uiso   1.00
H306   H     0.56973   0.34714   0.81233   0.00000  Uiso   1.00
H307   H     0.78966   0.96820   0.86991   0.00000  Uiso   1.00
H308   H     0.78764   0.10414   0.95998   0.00000  Uiso   1.00
H309   H     0.88436   0.88313   0.82876   0.00000  Uiso   1.00
H310   H     0.69949   0.96934   0.81635   0.00000  Uiso   1.00
H311   H     0.78151   0.17277   0.06712   0.00000  Uiso   1.00
H312   H     0.98543   0.70677   0.79043   0.00000  Uiso   1.00
H313   H     0.59560   0.88855   0.76426   0.00000  Uiso   1.00
O314   O     0.76672   0.98007   0.15142   0.00000  Uiso   1.00
O315   O     0.03426   0.36869   0.78840   0.00000  Uiso   1.00
O316   O     0.52280   0.60718   0.75408   0.00000  Uiso   1.00
N317   N     0.76200   0.74014   0.09151   0.00000  Uiso   1.00
N318   N     0.95266   0.30446   0.83283   0.00000  Uiso   1.00
N319   N     0.58820   0.47439   0.80836   0.00000  Uiso   1.00
N320   N     0.77592   0.03146   0.06565   0.00000  Uiso   1.00
N321   N     0.96658   0.59579   0.80696   0.00000  Uiso   1.00
N322   N     0.60212   0.76571   0.78249   0.00000  Uiso   1.00
C323   C     0.01937   0.52577   0.61179   0.00000  Uiso   1.00
C324   C     0.02046   0.38468   0.56857   0.00000  Uiso   1.00
C325   C     0.01545   0.42975   0.51824   0.00000  Uiso   1.00
C326   C     0.01750   0.28029   0.48447   0.00000  Uiso   1.00
C327   C     0.01819   0.08978   0.41492   0.00000  Uiso   1.00
C328   C     0.07358   0.49544   0.64056   0.00000  Uiso   1.00
C329   C     0.11323   0.63363   0.65078   0.00000  Uiso   1.00
C330   C     0.15999   0.57740   0.67762   0.00000  Uiso   1.00
C331   C     0.24313   0.55887   0.71987   0.00000  Uiso   1.00
C332   C     0.97266   0.46038   0.64647   0.00000  Uiso   1.00
C333   C     0.92745   0.56911   0.66166   0.00000  Uiso   1.00
C334   C     0.88924   0.48337   0.69349   0.00000  Uiso   1.00
C335   C     0.81568   0.41041   0.74492   0.00000  Uiso   1.00
C336   C     0.03191   0.18020   0.64131   0.00000  Uiso   1.00
C337   C     0.02728   0.19698   0.58460   0.00000  Uiso   1.00
C338   C     0.02933   0.04741   0.55090   0.00000  Uiso   1.00
C339   C     0.02432   0.09225   0.50054   0.00000  Uiso   1.00
C340   C     0.08040   0.30774   0.65660   0.00000  Uiso   1.00
C341   C     0.12710   0.25129   0.68344   0.00000  Uiso   1.00
C342   C     0.16681   0.38936   0.69368   0.00000  Uiso   1.00
C343   C     0.97947   0.27267   0.66250   0.00000  Uiso   1.00
C344   C     0.94132   0.18676   0.69432   0.00000  Uiso   1.00
C345   C     0.89606   0.29533   0.70956   0.00000  Uiso   1.00
H346   H     0.01407   0.67191   0.59931   0.00000  Uiso   1.00
H347   H     0.01019   0.57503   0.50585   0.00000  Uiso   1.00
H348   H     0.10794   0.77888   0.63837   0.00000  Uiso   1.00
H349   H     0.92219   0.71436   0.64925   0.00000  Uiso   1.00
H350   H     0.00891   0.38485   0.40930   0.00000  Uiso   1.00
H351   H     0.21503   0.81470   0.68873   0.00000  Uiso   1.00
H352   H     0.82333   0.67865   0.71168   0.00000  Uiso   1.00
H353   H     0.03721   0.03406   0.65380   0.00000  Uiso   1.00
H354   H     0.03460   0.90217   0.56332   0.00000  Uiso   1.00
H355   H     0.13236   0.10603   0.69584   0.00000  Uiso   1.00
H356   H     0.94661   0.04151   0.70672   0.00000  Uiso   1.00
H357   H     0.02873   0.83874   0.45595   0.00000  Uiso   1.00
H358   H     0.23484   0.26859   0.73539   0.00000  Uiso   1.00
H359   H     0.84315   0.13253   0.75833   0.00000  Uiso   1.00
O360   O     0.01670   0.03655   0.37212   0.00000  Uiso   1.00
O361   O     0.28711   0.60050   0.73874   0.00000  Uiso   1.00
O362   O     0.77322   0.42200   0.76885   0.00000  Uiso   1.00
N363   N     0.01392   0.27442   0.43269   0.00000  Uiso   1.00
N364   N     0.20663   0.67629   0.69394   0.00000  Uiso   1.00
N365   N     0.84044   0.54912   0.71541   0.00000  Uiso   1.00
N366   N     0.02458   0.98056   0.45780   0.00000  Uiso   1.00
N367   N     0.21730   0.38243   0.71905   0.00000  Uiso   1.00
N368   N     0.85110   0.25525   0.74051   0.00000  Uiso   1.00
