data_job_03196
_audit_creation_date              2018-12-19
_audit_creation_method            'Materials Studio'
_symmetry_space_group_name_H-M    'P1'
_symmetry_Int_Tables_number       1
_symmetry_cell_setting            triclinic
loop_
_symmetry_equiv_pos_as_xyz
  x,y,z
_cell_length_a                    15.8169
_cell_length_b                    13.5222
_cell_length_c                    20.7968
_cell_angle_alpha                 90.0000
_cell_angle_beta                  90.0000
_cell_angle_gamma                 90.0000
loop_
_atom_site_label
_atom_site_type_symbol
_atom_site_fract_x
_atom_site_fract_y
_atom_site_fract_z
_atom_site_U_iso_or_equiv
_atom_site_adp_type
_atom_site_occupancy
C1     C     0.05260   0.50900   0.76798   0.00000  Uiso   1.00
C2     C     0.01870   0.44128   0.82064   0.00000  Uiso   1.00
C3     C     0.04199   0.34348   0.83040   0.00000  Uiso   1.00
C4     C     0.00373   0.29412   0.88120   0.00000  Uiso   1.00
C5     C     0.96010   0.18183   0.95693   0.00000  Uiso   1.00
C6     C     0.97548   0.54553   0.73093   0.00000  Uiso   1.00
C7     C     0.96244   0.53539   0.66526   0.00000  Uiso   1.00
C8     C     0.88781   0.57381   0.64054   0.00000  Uiso   1.00
C9     C     0.77711   0.62343   0.57698   0.00000  Uiso   1.00
C10    C     0.08866   0.59930   0.80228   0.00000  Uiso   1.00
C11    C     0.17077   0.63439   0.79660   0.00000  Uiso   1.00
C12    C     0.19142   0.71809   0.83194   0.00000  Uiso   1.00
C13    C     0.25644   0.85119   0.87918   0.00000  Uiso   1.00
C14    C     0.94324   0.59526   0.84082   0.00000  Uiso   1.00
C15    C     0.95930   0.48813   0.86020   0.00000  Uiso   1.00
C16    C     0.92100   0.43891   0.91100   0.00000  Uiso   1.00
C17    C     0.94423   0.34106   0.92084   0.00000  Uiso   1.00
C18    C     0.91608   0.59238   0.77049   0.00000  Uiso   1.00
C19    C     0.84145   0.63083   0.74586   0.00000  Uiso   1.00
C20    C     0.82830   0.62075   0.68018   0.00000  Uiso   1.00
C21    C     0.02926   0.64615   0.84185   0.00000  Uiso   1.00
C22    C     0.04978   0.72982   0.87720   0.00000  Uiso   1.00
C23    C     0.13191   0.76503   0.87158   0.00000  Uiso   1.00
H24    H     0.09884   0.47253   0.73717   0.00000  Uiso   1.00
H25    H     0.08796   0.30724   0.79977   0.00000  Uiso   1.00
H26    H     0.00843   0.49914   0.63465   0.00000  Uiso   1.00
H27    H     0.21672   0.59811   0.76598   0.00000  Uiso   1.00
H28    H     0.04967   0.14465   0.88661   0.00000  Uiso   1.00
H29    H     0.88199   0.54930   0.53845   0.00000  Uiso   1.00
H30    H     0.32123   0.75801   0.81537   0.00000  Uiso   1.00
H31    H     0.89699   0.63174   0.87163   0.00000  Uiso   1.00
H32    H     0.87503   0.47519   0.94161   0.00000  Uiso   1.00
H33    H     0.79550   0.66708   0.77649   0.00000  Uiso   1.00
H34    H     0.00379   0.76606   0.90782   0.00000  Uiso   1.00
H35    H     0.87685   0.28096   0.00173   0.00000  Uiso   1.00
H36    H     0.70917   0.68561   0.65357   0.00000  Uiso   1.00
H37    H     0.14840   0.89432   0.93049   0.00000  Uiso   1.00
O38    O     0.95244   0.10694   0.98777   0.00000  Uiso   1.00
O39    O     0.73246   0.63784   0.53100   0.00000  Uiso   1.00
O40    O     0.30872   0.91166   0.89431   0.00000  Uiso   1.00
N41    N     0.01203   0.19822   0.90411   0.00000  Uiso   1.00
N42    N     0.85525   0.57653   0.57860   0.00000  Uiso   1.00
N43    N     0.26589   0.77167   0.83748   0.00000  Uiso   1.00
N44    N     0.91903   0.27157   0.96605   0.00000  Uiso   1.00
N45    N     0.76226   0.64988   0.64055   0.00000  Uiso   1.00
N46    N     0.17289   0.84502   0.89943   0.00000  Uiso   1.00
C47    C     0.44740   0.49100   0.76798   0.00000  Uiso   1.00
C48    C     0.48130   0.55872   0.82064   0.00000  Uiso   1.00
C49    C     0.45801   0.65652   0.83040   0.00000  Uiso   1.00
C50    C     0.49627   0.70588   0.88120   0.00000  Uiso   1.00
C51    C     0.53990   0.81817   0.95693   0.00000  Uiso   1.00
C52    C     0.52452   0.45447   0.73093   0.00000  Uiso   1.00
C53    C     0.53756   0.46461   0.66526   0.00000  Uiso   1.00
C54    C     0.61219   0.42619   0.64054   0.00000  Uiso   1.00
C55    C     0.72289   0.37657   0.57698   0.00000  Uiso   1.00
C56    C     0.41134   0.40070   0.80228   0.00000  Uiso   1.00
C57    C     0.32923   0.36561   0.79660   0.00000  Uiso   1.00
C58    C     0.30858   0.28191   0.83194   0.00000  Uiso   1.00
C59    C     0.24356   0.14881   0.87918   0.00000  Uiso   1.00
C60    C     0.55676   0.40474   0.84082   0.00000  Uiso   1.00
C61    C     0.54070   0.51187   0.86020   0.00000  Uiso   1.00
C62    C     0.57900   0.56109   0.91100   0.00000  Uiso   1.00
C63    C     0.55577   0.65894   0.92084   0.00000  Uiso   1.00
C64    C     0.58392   0.40762   0.77049   0.00000  Uiso   1.00
C65    C     0.65855   0.36917   0.74586   0.00000  Uiso   1.00
C66    C     0.67170   0.37925   0.68018   0.00000  Uiso   1.00
C67    C     0.47074   0.35385   0.84185   0.00000  Uiso   1.00
C68    C     0.45022   0.27018   0.87720   0.00000  Uiso   1.00
C69    C     0.36809   0.23497   0.87158   0.00000  Uiso   1.00
H70    H     0.40116   0.52747   0.73717   0.00000  Uiso   1.00
H71    H     0.41204   0.69276   0.79977   0.00000  Uiso   1.00
H72    H     0.49157   0.50086   0.63465   0.00000  Uiso   1.00
H73    H     0.28328   0.40189   0.76598   0.00000  Uiso   1.00
H74    H     0.45033   0.85535   0.88661   0.00000  Uiso   1.00
H75    H     0.61801   0.45070   0.53845   0.00000  Uiso   1.00
H76    H     0.17877   0.24199   0.81537   0.00000  Uiso   1.00
H77    H     0.60301   0.36826   0.87163   0.00000  Uiso   1.00
H78    H     0.62497   0.52481   0.94161   0.00000  Uiso   1.00
H79    H     0.70450   0.33292   0.77649   0.00000  Uiso   1.00
H80    H     0.49621   0.23394   0.90782   0.00000  Uiso   1.00
H81    H     0.62315   0.71904   0.00173   0.00000  Uiso   1.00
H82    H     0.79083   0.31439   0.65357   0.00000  Uiso   1.00
H83    H     0.35160   0.10568   0.93049   0.00000  Uiso   1.00
O84    O     0.54756   0.89306   0.98777   0.00000  Uiso   1.00
O85    O     0.76754   0.36216   0.53100   0.00000  Uiso   1.00
O86    O     0.19128   0.08834   0.89431   0.00000  Uiso   1.00
N87    N     0.48797   0.80178   0.90411   0.00000  Uiso   1.00
N88    N     0.64475   0.42347   0.57860   0.00000  Uiso   1.00
N89    N     0.23411   0.22833   0.83748   0.00000  Uiso   1.00
N90    N     0.58097   0.72843   0.96605   0.00000  Uiso   1.00
N91    N     0.73774   0.35012   0.64055   0.00000  Uiso   1.00
N92    N     0.32711   0.15498   0.89943   0.00000  Uiso   1.00
C93    C     0.44740   0.00900   0.73202   0.00000  Uiso   1.00
C94    C     0.48130   0.94128   0.67936   0.00000  Uiso   1.00
C95    C     0.45801   0.84348   0.66960   0.00000  Uiso   1.00
C96    C     0.49627   0.79412   0.61880   0.00000  Uiso   1.00
C97    C     0.53990   0.68183   0.54307   0.00000  Uiso   1.00
C98    C     0.52452   0.04553   0.76907   0.00000  Uiso   1.00
C99    C     0.53756   0.03539   0.83474   0.00000  Uiso   1.00
C100   C     0.61219   0.07381   0.85946   0.00000  Uiso   1.00
C101   C     0.72289   0.12343   0.92302   0.00000  Uiso   1.00
C102   C     0.41134   0.09930   0.69772   0.00000  Uiso   1.00
C103   C     0.32923   0.13439   0.70340   0.00000  Uiso   1.00
C104   C     0.30858   0.21809   0.66806   0.00000  Uiso   1.00
C105   C     0.24356   0.35119   0.62082   0.00000  Uiso   1.00
C106   C     0.55676   0.09526   0.65918   0.00000  Uiso   1.00
C107   C     0.54070   0.98813   0.63980   0.00000  Uiso   1.00
C108   C     0.57900   0.93891   0.58900   0.00000  Uiso   1.00
C109   C     0.55577   0.84106   0.57916   0.00000  Uiso   1.00
C110   C     0.58392   0.09238   0.72951   0.00000  Uiso   1.00
C111   C     0.65855   0.13083   0.75414   0.00000  Uiso   1.00
C112   C     0.67170   0.12075   0.81982   0.00000  Uiso   1.00
C113   C     0.47074   0.14615   0.65815   0.00000  Uiso   1.00
C114   C     0.45022   0.22982   0.62280   0.00000  Uiso   1.00
C115   C     0.36809   0.26503   0.62842   0.00000  Uiso   1.00
H116   H     0.40116   0.97253   0.76283   0.00000  Uiso   1.00
H117   H     0.41204   0.80724   0.70023   0.00000  Uiso   1.00
H118   H     0.49157   0.99914   0.86535   0.00000  Uiso   1.00
H119   H     0.28328   0.09811   0.73402   0.00000  Uiso   1.00
H120   H     0.45033   0.64465   0.61339   0.00000  Uiso   1.00
H121   H     0.61801   0.04930   0.96155   0.00000  Uiso   1.00
H122   H     0.17877   0.25801   0.68463   0.00000  Uiso   1.00
H123   H     0.60301   0.13174   0.62837   0.00000  Uiso   1.00
H124   H     0.62497   0.97519   0.55839   0.00000  Uiso   1.00
H125   H     0.70450   0.16708   0.72351   0.00000  Uiso   1.00
H126   H     0.49621   0.26606   0.59218   0.00000  Uiso   1.00
H127   H     0.62315   0.78096   0.49827   0.00000  Uiso   1.00
H128   H     0.79083   0.18561   0.84643   0.00000  Uiso   1.00
H129   H     0.35160   0.39432   0.56951   0.00000  Uiso   1.00
O130   O     0.54756   0.60694   0.51223   0.00000  Uiso   1.00
O131   O     0.76754   0.13784   0.96900   0.00000  Uiso   1.00
O132   O     0.19128   0.41166   0.60569   0.00000  Uiso   1.00
N133   N     0.48797   0.69822   0.59589   0.00000  Uiso   1.00
N134   N     0.64475   0.07653   0.92140   0.00000  Uiso   1.00
N135   N     0.23411   0.27167   0.66252   0.00000  Uiso   1.00
N136   N     0.58097   0.77157   0.53395   0.00000  Uiso   1.00
N137   N     0.73774   0.14988   0.85945   0.00000  Uiso   1.00
N138   N     0.32711   0.34502   0.60057   0.00000  Uiso   1.00
C139   C     0.05260   0.99100   0.73202   0.00000  Uiso   1.00
C140   C     0.01870   0.05872   0.67936   0.00000  Uiso   1.00
C141   C     0.04199   0.15652   0.66960   0.00000  Uiso   1.00
C142   C     0.00373   0.20588   0.61880   0.00000  Uiso   1.00
C143   C     0.96010   0.31817   0.54307   0.00000  Uiso   1.00
C144   C     0.97548   0.95447   0.76907   0.00000  Uiso   1.00
C145   C     0.96244   0.96461   0.83474   0.00000  Uiso   1.00
C146   C     0.88781   0.92619   0.85946   0.00000  Uiso   1.00
C147   C     0.77711   0.87657   0.92302   0.00000  Uiso   1.00
C148   C     0.08866   0.90070   0.69772   0.00000  Uiso   1.00
C149   C     0.17077   0.86561   0.70340   0.00000  Uiso   1.00
C150   C     0.19142   0.78191   0.66806   0.00000  Uiso   1.00
C151   C     0.25644   0.64881   0.62082   0.00000  Uiso   1.00
C152   C     0.94324   0.90474   0.65918   0.00000  Uiso   1.00
C153   C     0.95930   0.01187   0.63980   0.00000  Uiso   1.00
C154   C     0.92100   0.06109   0.58900   0.00000  Uiso   1.00
C155   C     0.94423   0.15894   0.57916   0.00000  Uiso   1.00
C156   C     0.91608   0.90762   0.72951   0.00000  Uiso   1.00
C157   C     0.84145   0.86917   0.75414   0.00000  Uiso   1.00
C158   C     0.82830   0.87925   0.81982   0.00000  Uiso   1.00
C159   C     0.02926   0.85385   0.65815   0.00000  Uiso   1.00
C160   C     0.04978   0.77018   0.62280   0.00000  Uiso   1.00
C161   C     0.13191   0.73497   0.62842   0.00000  Uiso   1.00
H162   H     0.09884   0.02747   0.76283   0.00000  Uiso   1.00
H163   H     0.08796   0.19276   0.70023   0.00000  Uiso   1.00
H164   H     0.00843   0.00086   0.86535   0.00000  Uiso   1.00
H165   H     0.21672   0.90189   0.73402   0.00000  Uiso   1.00
H166   H     0.04967   0.35535   0.61339   0.00000  Uiso   1.00
H167   H     0.88199   0.95070   0.96155   0.00000  Uiso   1.00
H168   H     0.32123   0.74199   0.68463   0.00000  Uiso   1.00
H169   H     0.89699   0.86826   0.62837   0.00000  Uiso   1.00
H170   H     0.87503   0.02481   0.55839   0.00000  Uiso   1.00
H171   H     0.79550   0.83292   0.72351   0.00000  Uiso   1.00
H172   H     0.00379   0.73394   0.59218   0.00000  Uiso   1.00
H173   H     0.87685   0.21904   0.49827   0.00000  Uiso   1.00
H174   H     0.70917   0.81439   0.84643   0.00000  Uiso   1.00
H175   H     0.14840   0.60568   0.56951   0.00000  Uiso   1.00
O176   O     0.95244   0.39306   0.51223   0.00000  Uiso   1.00
O177   O     0.73246   0.86216   0.96900   0.00000  Uiso   1.00
O178   O     0.30872   0.58834   0.60569   0.00000  Uiso   1.00
N179   N     0.01203   0.30178   0.59589   0.00000  Uiso   1.00
N180   N     0.85525   0.92347   0.92140   0.00000  Uiso   1.00
N181   N     0.26589   0.72833   0.66252   0.00000  Uiso   1.00
N182   N     0.91903   0.22843   0.53395   0.00000  Uiso   1.00
N183   N     0.76226   0.85012   0.85945   0.00000  Uiso   1.00
N184   N     0.17289   0.65498   0.60057   0.00000  Uiso   1.00
C185   C     0.94740   0.49100   0.23202   0.00000  Uiso   1.00
C186   C     0.98130   0.55872   0.17936   0.00000  Uiso   1.00
C187   C     0.95801   0.65652   0.16960   0.00000  Uiso   1.00
C188   C     0.99627   0.70588   0.11880   0.00000  Uiso   1.00
C189   C     0.03990   0.81817   0.04307   0.00000  Uiso   1.00
C190   C     0.02452   0.45447   0.26907   0.00000  Uiso   1.00
C191   C     0.03756   0.46461   0.33474   0.00000  Uiso   1.00
C192   C     0.11219   0.42619   0.35946   0.00000  Uiso   1.00
C193   C     0.22289   0.37657   0.42302   0.00000  Uiso   1.00
C194   C     0.91134   0.40070   0.19772   0.00000  Uiso   1.00
C195   C     0.82923   0.36561   0.20340   0.00000  Uiso   1.00
C196   C     0.80858   0.28191   0.16806   0.00000  Uiso   1.00
C197   C     0.74356   0.14881   0.12082   0.00000  Uiso   1.00
C198   C     0.05676   0.40474   0.15918   0.00000  Uiso   1.00
C199   C     0.04070   0.51187   0.13980   0.00000  Uiso   1.00
C200   C     0.07900   0.56109   0.08900   0.00000  Uiso   1.00
C201   C     0.05577   0.65894   0.07916   0.00000  Uiso   1.00
C202   C     0.08392   0.40762   0.22951   0.00000  Uiso   1.00
C203   C     0.15855   0.36917   0.25414   0.00000  Uiso   1.00
C204   C     0.17170   0.37925   0.31982   0.00000  Uiso   1.00
C205   C     0.97074   0.35385   0.15815   0.00000  Uiso   1.00
C206   C     0.95022   0.27018   0.12280   0.00000  Uiso   1.00
C207   C     0.86809   0.23497   0.12842   0.00000  Uiso   1.00
H208   H     0.90116   0.52747   0.26283   0.00000  Uiso   1.00
H209   H     0.91204   0.69276   0.20023   0.00000  Uiso   1.00
H210   H     0.99157   0.50086   0.36535   0.00000  Uiso   1.00
H211   H     0.78328   0.40189   0.23402   0.00000  Uiso   1.00
H212   H     0.95033   0.85535   0.11339   0.00000  Uiso   1.00
H213   H     0.11801   0.45070   0.46155   0.00000  Uiso   1.00
H214   H     0.67877   0.24199   0.18463   0.00000  Uiso   1.00
H215   H     0.10301   0.36826   0.12837   0.00000  Uiso   1.00
H216   H     0.12497   0.52481   0.05839   0.00000  Uiso   1.00
H217   H     0.20450   0.33292   0.22351   0.00000  Uiso   1.00
H218   H     0.99621   0.23394   0.09218   0.00000  Uiso   1.00
H219   H     0.12315   0.71904   0.99827   0.00000  Uiso   1.00
H220   H     0.29083   0.31439   0.34643   0.00000  Uiso   1.00
H221   H     0.85160   0.10568   0.06951   0.00000  Uiso   1.00
O222   O     0.04756   0.89306   0.01223   0.00000  Uiso   1.00
O223   O     0.26754   0.36216   0.46900   0.00000  Uiso   1.00
O224   O     0.69128   0.08834   0.10569   0.00000  Uiso   1.00
N225   N     0.98797   0.80178   0.09589   0.00000  Uiso   1.00
N226   N     0.14475   0.42347   0.42140   0.00000  Uiso   1.00
N227   N     0.73411   0.22833   0.16252   0.00000  Uiso   1.00
N228   N     0.08097   0.72843   0.03395   0.00000  Uiso   1.00
N229   N     0.23774   0.35012   0.35945   0.00000  Uiso   1.00
N230   N     0.82711   0.15498   0.10057   0.00000  Uiso   1.00
C231   C     0.55260   0.50900   0.23202   0.00000  Uiso   1.00
C232   C     0.51870   0.44128   0.17936   0.00000  Uiso   1.00
C233   C     0.54199   0.34348   0.16960   0.00000  Uiso   1.00
C234   C     0.50373   0.29412   0.11880   0.00000  Uiso   1.00
C235   C     0.46010   0.18183   0.04307   0.00000  Uiso   1.00
C236   C     0.47548   0.54553   0.26907   0.00000  Uiso   1.00
C237   C     0.46244   0.53539   0.33474   0.00000  Uiso   1.00
C238   C     0.38781   0.57381   0.35946   0.00000  Uiso   1.00
C239   C     0.27711   0.62343   0.42302   0.00000  Uiso   1.00
C240   C     0.58866   0.59930   0.19772   0.00000  Uiso   1.00
C241   C     0.67077   0.63439   0.20340   0.00000  Uiso   1.00
C242   C     0.69142   0.71809   0.16806   0.00000  Uiso   1.00
C243   C     0.75644   0.85119   0.12082   0.00000  Uiso   1.00
C244   C     0.44324   0.59526   0.15918   0.00000  Uiso   1.00
C245   C     0.45930   0.48813   0.13980   0.00000  Uiso   1.00
C246   C     0.42100   0.43891   0.08900   0.00000  Uiso   1.00
C247   C     0.44423   0.34106   0.07916   0.00000  Uiso   1.00
C248   C     0.41608   0.59238   0.22951   0.00000  Uiso   1.00
C249   C     0.34145   0.63083   0.25414   0.00000  Uiso   1.00
C250   C     0.32830   0.62075   0.31982   0.00000  Uiso   1.00
C251   C     0.52926   0.64615   0.15815   0.00000  Uiso   1.00
C252   C     0.54978   0.72982   0.12280   0.00000  Uiso   1.00
C253   C     0.63191   0.76503   0.12842   0.00000  Uiso   1.00
H254   H     0.59884   0.47253   0.26283   0.00000  Uiso   1.00
H255   H     0.58796   0.30724   0.20023   0.00000  Uiso   1.00
H256   H     0.50843   0.49914   0.36535   0.00000  Uiso   1.00
H257   H     0.71672   0.59811   0.23402   0.00000  Uiso   1.00
H258   H     0.54967   0.14465   0.11339   0.00000  Uiso   1.00
H259   H     0.38199   0.54930   0.46155   0.00000  Uiso   1.00
H260   H     0.82123   0.75801   0.18463   0.00000  Uiso   1.00
H261   H     0.39699   0.63174   0.12837   0.00000  Uiso   1.00
H262   H     0.37503   0.47519   0.05839   0.00000  Uiso   1.00
H263   H     0.29550   0.66708   0.22351   0.00000  Uiso   1.00
H264   H     0.50379   0.76606   0.09218   0.00000  Uiso   1.00
H265   H     0.37685   0.28096   0.99827   0.00000  Uiso   1.00
H266   H     0.20917   0.68561   0.34643   0.00000  Uiso   1.00
H267   H     0.64840   0.89432   0.06951   0.00000  Uiso   1.00
O268   O     0.45244   0.10694   0.01223   0.00000  Uiso   1.00
O269   O     0.23246   0.63784   0.46900   0.00000  Uiso   1.00
O270   O     0.80872   0.91166   0.10569   0.00000  Uiso   1.00
N271   N     0.51203   0.19822   0.09589   0.00000  Uiso   1.00
N272   N     0.35525   0.57653   0.42140   0.00000  Uiso   1.00
N273   N     0.76589   0.77167   0.16252   0.00000  Uiso   1.00
N274   N     0.41903   0.27157   0.03395   0.00000  Uiso   1.00
N275   N     0.26226   0.64988   0.35945   0.00000  Uiso   1.00
N276   N     0.67289   0.84502   0.10057   0.00000  Uiso   1.00
C277   C     0.55260   0.99100   0.26798   0.00000  Uiso   1.00
C278   C     0.51870   0.05872   0.32064   0.00000  Uiso   1.00
C279   C     0.54199   0.15652   0.33040   0.00000  Uiso   1.00
C280   C     0.50373   0.20588   0.38120   0.00000  Uiso   1.00
C281   C     0.46010   0.31817   0.45693   0.00000  Uiso   1.00
C282   C     0.47548   0.95447   0.23093   0.00000  Uiso   1.00
C283   C     0.46244   0.96461   0.16526   0.00000  Uiso   1.00
C284   C     0.38781   0.92619   0.14054   0.00000  Uiso   1.00
C285   C     0.27711   0.87657   0.07698   0.00000  Uiso   1.00
C286   C     0.58866   0.90070   0.30228   0.00000  Uiso   1.00
C287   C     0.67077   0.86561   0.29660   0.00000  Uiso   1.00
C288   C     0.69142   0.78191   0.33194   0.00000  Uiso   1.00
C289   C     0.75644   0.64881   0.37918   0.00000  Uiso   1.00
C290   C     0.44324   0.90474   0.34082   0.00000  Uiso   1.00
C291   C     0.45930   0.01187   0.36020   0.00000  Uiso   1.00
C292   C     0.42100   0.06109   0.41100   0.00000  Uiso   1.00
C293   C     0.44423   0.15894   0.42084   0.00000  Uiso   1.00
C294   C     0.41608   0.90762   0.27049   0.00000  Uiso   1.00
C295   C     0.34145   0.86917   0.24586   0.00000  Uiso   1.00
C296   C     0.32830   0.87925   0.18018   0.00000  Uiso   1.00
C297   C     0.52926   0.85385   0.34185   0.00000  Uiso   1.00
C298   C     0.54978   0.77018   0.37720   0.00000  Uiso   1.00
C299   C     0.63191   0.73497   0.37158   0.00000  Uiso   1.00
H300   H     0.59884   0.02747   0.23717   0.00000  Uiso   1.00
H301   H     0.58796   0.19276   0.29977   0.00000  Uiso   1.00
H302   H     0.50843   0.00086   0.13465   0.00000  Uiso   1.00
H303   H     0.71672   0.90189   0.26598   0.00000  Uiso   1.00
H304   H     0.54967   0.35535   0.38661   0.00000  Uiso   1.00
H305   H     0.38199   0.95070   0.03845   0.00000  Uiso   1.00
H306   H     0.82123   0.74199   0.31537   0.00000  Uiso   1.00
H307   H     0.39699   0.86826   0.37163   0.00000  Uiso   1.00
H308   H     0.37503   0.02481   0.44161   0.00000  Uiso   1.00
H309   H     0.29550   0.83292   0.27649   0.00000  Uiso   1.00
H310   H     0.50379   0.73394   0.40782   0.00000  Uiso   1.00
H311   H     0.37685   0.21904   0.50173   0.00000  Uiso   1.00
H312   H     0.20917   0.81439   0.15357   0.00000  Uiso   1.00
H313   H     0.64840   0.60568   0.43049   0.00000  Uiso   1.00
O314   O     0.45244   0.39306   0.48777   0.00000  Uiso   1.00
O315   O     0.23246   0.86216   0.03100   0.00000  Uiso   1.00
O316   O     0.80872   0.58834   0.39431   0.00000  Uiso   1.00
N317   N     0.51203   0.30178   0.40411   0.00000  Uiso   1.00
N318   N     0.35525   0.92347   0.07860   0.00000  Uiso   1.00
N319   N     0.76589   0.72833   0.33748   0.00000  Uiso   1.00
N320   N     0.41903   0.22843   0.46605   0.00000  Uiso   1.00
N321   N     0.26226   0.85012   0.14055   0.00000  Uiso   1.00
N322   N     0.67289   0.65498   0.39943   0.00000  Uiso   1.00
C323   C     0.94740   0.00900   0.26798   0.00000  Uiso   1.00
C324   C     0.98130   0.94128   0.32064   0.00000  Uiso   1.00
C325   C     0.95801   0.84348   0.33040   0.00000  Uiso   1.00
C326   C     0.99627   0.79412   0.38120   0.00000  Uiso   1.00
C327   C     0.03990   0.68183   0.45693   0.00000  Uiso   1.00
C328   C     0.02452   0.04553   0.23093   0.00000  Uiso   1.00
C329   C     0.03756   0.03539   0.16526   0.00000  Uiso   1.00
C330   C     0.11219   0.07381   0.14054   0.00000  Uiso   1.00
C331   C     0.22289   0.12343   0.07698   0.00000  Uiso   1.00
C332   C     0.91134   0.09930   0.30228   0.00000  Uiso   1.00
C333   C     0.82923   0.13439   0.29660   0.00000  Uiso   1.00
C334   C     0.80858   0.21809   0.33194   0.00000  Uiso   1.00
C335   C     0.74356   0.35119   0.37918   0.00000  Uiso   1.00
C336   C     0.05676   0.09526   0.34082   0.00000  Uiso   1.00
C337   C     0.04070   0.98813   0.36020   0.00000  Uiso   1.00
C338   C     0.07900   0.93891   0.41100   0.00000  Uiso   1.00
C339   C     0.05577   0.84106   0.42084   0.00000  Uiso   1.00
C340   C     0.08392   0.09238   0.27049   0.00000  Uiso   1.00
C341   C     0.15855   0.13083   0.24586   0.00000  Uiso   1.00
C342   C     0.17170   0.12075   0.18018   0.00000  Uiso   1.00
C343   C     0.97074   0.14615   0.34185   0.00000  Uiso   1.00
C344   C     0.95022   0.22982   0.37720   0.00000  Uiso   1.00
C345   C     0.86809   0.26503   0.37158   0.00000  Uiso   1.00
H346   H     0.90116   0.97253   0.23717   0.00000  Uiso   1.00
H347   H     0.91204   0.80724   0.29977   0.00000  Uiso   1.00
H348   H     0.99157   0.99914   0.13465   0.00000  Uiso   1.00
H349   H     0.78328   0.09811   0.26598   0.00000  Uiso   1.00
H350   H     0.95033   0.64465   0.38661   0.00000  Uiso   1.00
H351   H     0.11801   0.04930   0.03845   0.00000  Uiso   1.00
H352   H     0.67877   0.25801   0.31537   0.00000  Uiso   1.00
H353   H     0.10301   0.13174   0.37163   0.00000  Uiso   1.00
H354   H     0.12497   0.97519   0.44161   0.00000  Uiso   1.00
H355   H     0.20450   0.16708   0.27649   0.00000  Uiso   1.00
H356   H     0.99621   0.26606   0.40782   0.00000  Uiso   1.00
H357   H     0.12315   0.78096   0.50173   0.00000  Uiso   1.00
H358   H     0.29083   0.18561   0.15357   0.00000  Uiso   1.00
H359   H     0.85160   0.39432   0.43049   0.00000  Uiso   1.00
O360   O     0.04756   0.60694   0.48777   0.00000  Uiso   1.00
O361   O     0.26754   0.13784   0.03100   0.00000  Uiso   1.00
O362   O     0.69128   0.41166   0.39431   0.00000  Uiso   1.00
N363   N     0.98797   0.69822   0.40411   0.00000  Uiso   1.00
N364   N     0.14475   0.07653   0.07860   0.00000  Uiso   1.00
N365   N     0.73411   0.27167   0.33748   0.00000  Uiso   1.00
N366   N     0.08097   0.77157   0.46605   0.00000  Uiso   1.00
N367   N     0.23774   0.14988   0.14055   0.00000  Uiso   1.00
N368   N     0.82711   0.34502   0.39943   0.00000  Uiso   1.00
