data_job_06753
_audit_creation_date              2018-12-19
_audit_creation_method            'Materials Studio'
_symmetry_space_group_name_H-M    'P1'
_symmetry_Int_Tables_number       1
_symmetry_cell_setting            triclinic
loop_
_symmetry_equiv_pos_as_xyz
  x,y,z
_cell_length_a                    18.6469
_cell_length_b                    21.6759
_cell_length_c                    23.3915
_cell_angle_alpha                 109.8854
_cell_angle_beta                  109.4507
_cell_angle_gamma                 92.3885
loop_
_atom_site_label
_atom_site_type_symbol
_atom_site_fract_x
_atom_site_fract_y
_atom_site_fract_z
_atom_site_U_iso_or_equiv
_atom_site_adp_type
_atom_site_occupancy
C1     C     0.64272   0.23886   0.43651   0.00000  Uiso   1.00
C2     C     0.56945   0.25823   0.44780   0.00000  Uiso   1.00
C3     C     0.56549   0.31574   0.49565   0.00000  Uiso   1.00
C4     C     0.49300   0.32431   0.49797   0.00000  Uiso   1.00
C5     C     0.38928   0.36156   0.52221   0.00000  Uiso   1.00
C6     C     0.64734   0.17043   0.44084   0.00000  Uiso   1.00
C7     C     0.70888   0.15412   0.48284   0.00000  Uiso   1.00
C8     C     0.70196   0.08877   0.47930   0.00000  Uiso   1.00
C9     C     0.71920   0.98969   0.49272   0.00000  Uiso   1.00
C10    C     0.62797   0.22827   0.36540   0.00000  Uiso   1.00
C11    C     0.67324   0.26058   0.34396   0.00000  Uiso   1.00
C12    C     0.65002   0.24392   0.27690   0.00000  Uiso   1.00
C13    C     0.63719   0.23465   0.17317   0.00000  Uiso   1.00
C14    C     0.52102   0.15180   0.35554   0.00000  Uiso   1.00
C15    C     0.50334   0.21094   0.40382   0.00000  Uiso   1.00
C16    C     0.43084   0.21942   0.40606   0.00000  Uiso   1.00
C17    C     0.42677   0.27694   0.45391   0.00000  Uiso   1.00
C18    C     0.58124   0.12314   0.39687   0.00000  Uiso   1.00
C19    C     0.57423   0.05780   0.39326   0.00000  Uiso   1.00
C20    C     0.63574   0.04140   0.43525   0.00000  Uiso   1.00
C21    C     0.56186   0.18098   0.32142   0.00000  Uiso   1.00
C22    C     0.53858   0.16426   0.25438   0.00000  Uiso   1.00
C23    C     0.58379   0.19654   0.23284   0.00000  Uiso   1.00
H24    H     0.69419   0.27567   0.47075   0.00000  Uiso   1.00
H25    H     0.61666   0.35232   0.52968   0.00000  Uiso   1.00
H26    H     0.76003   0.19072   0.51687   0.00000  Uiso   1.00
H27    H     0.72439   0.29717   0.37801   0.00000  Uiso   1.00
H28    H     0.50156   0.41644   0.57563   0.00000  Uiso   1.00
H29    H     0.80388   0.07569   0.54861   0.00000  Uiso   1.00
H30    H     0.72872   0.30015   0.25579   0.00000  Uiso   1.00
H31    H     0.46955   0.11498   0.32130   0.00000  Uiso   1.00
H32    H     0.37969   0.18282   0.37202   0.00000  Uiso   1.00
H33    H     0.52306   0.02122   0.35922   0.00000  Uiso   1.00
H34    H     0.48742   0.12766   0.22036   0.00000  Uiso   1.00
H35    H     0.30923   0.27886   0.44767   0.00000  Uiso   1.00
H36    H     0.61155   0.93811   0.42065   0.00000  Uiso   1.00
H37    H     0.53638   0.16257   0.12784   0.00000  Uiso   1.00
O38    O     0.35034   0.39516   0.54773   0.00000  Uiso   1.00
O39    O     0.74697   0.94811   0.51227   0.00000  Uiso   1.00
O40    O     0.64836   0.24260   0.12811   0.00000  Uiso   1.00
N41    N     0.46862   0.37476   0.53854   0.00000  Uiso   1.00
N42    N     0.75127   0.05618   0.51329   0.00000  Uiso   1.00
N43    N     0.68101   0.26602   0.23953   0.00000  Uiso   1.00
N44    N     0.36513   0.30073   0.46969   0.00000  Uiso   1.00
N45    N     0.64777   0.98215   0.44444   0.00000  Uiso   1.00
N46    N     0.57752   0.19199   0.17068   0.00000  Uiso   1.00
C47    C     0.73713   0.88325   0.09040   0.00000  Uiso   1.00
C48    C     0.77248   0.90986   0.05141   0.00000  Uiso   1.00
C49    C     0.82980   0.88528   0.02919   0.00000  Uiso   1.00
C50    C     0.85440   0.91649   0.99439   0.00000  Uiso   1.00
C51    C     0.91413   0.94964   0.93572   0.00000  Uiso   1.00
C52    C     0.74867   0.94237   0.15305   0.00000  Uiso   1.00
C53    C     0.78596   0.94512   0.21628   0.00000  Uiso   1.00
C54    C     0.79050   0.00369   0.26704   0.00000  Uiso   1.00
C55    C     0.81321   0.08729   0.36616   0.00000  Uiso   1.00
C56    C     0.65033   0.86546   0.05149   0.00000  Uiso   1.00
C57    C     0.60493   0.80355   0.02934   0.00000  Uiso   1.00
C58    C     0.52666   0.79738   0.99461   0.00000  Uiso   1.00
C59    C     0.39668   0.76157   0.93605   0.00000  Uiso   1.00
C60    C     0.67886   0.98238   0.06813   0.00000  Uiso   1.00
C61    C     0.74083   0.96370   0.03932   0.00000  Uiso   1.00
C62    C     0.76534   0.99496   0.00455   0.00000  Uiso   1.00
C63    C     0.82269   0.97043   0.98227   0.00000  Uiso   1.00
C64    C     0.71702   0.99621   0.14096   0.00000  Uiso   1.00
C65    C     0.72150   0.05479   0.19164   0.00000  Uiso   1.00
C66    C     0.75879   0.05763   0.25493   0.00000  Uiso   1.00
C67    C     0.61868   0.91930   0.03939   0.00000  Uiso   1.00
C68    C     0.54047   0.91322   0.00470   0.00000  Uiso   1.00
C69    C     0.49496   0.85132   0.98250   0.00000  Uiso   1.00
H70    H     0.76177   0.84133   0.09982   0.00000  Uiso   1.00
H71    H     0.85429   0.84362   0.03856   0.00000  Uiso   1.00
H72    H     0.81044   0.90344   0.22562   0.00000  Uiso   1.00
H73    H     0.62944   0.76190   0.03871   0.00000  Uiso   1.00
H74    H     0.94292   0.86991   0.96533   0.00000  Uiso   1.00
H75    H     0.85045   0.99604   0.35976   0.00000  Uiso   1.00
H76    H     0.46876   0.69757   0.96562   0.00000  Uiso   1.00
H77    H     0.65422   0.02430   0.05872   0.00000  Uiso   1.00
H78    H     0.74084   0.03662   0.99519   0.00000  Uiso   1.00
H79    H     0.69700   0.09644   0.18226   0.00000  Uiso   1.00
H80    H     0.51599   0.95490   0.99535   0.00000  Uiso   1.00
H81    H     0.85085   0.02656   0.93013   0.00000  Uiso   1.00
H82    H     0.75837   0.15269   0.32456   0.00000  Uiso   1.00
H83    H     0.37669   0.85422   0.93042   0.00000  Uiso   1.00
O84    O     0.95582   0.95306   0.90671   0.00000  Uiso   1.00
O85    O     0.83448   0.11853   0.42418   0.00000  Uiso   1.00
O86    O     0.33373   0.72694   0.90708   0.00000  Uiso   1.00
N87    N     0.90935   0.90508   0.96575   0.00000  Uiso   1.00
N88    N     0.82291   0.02301   0.33452   0.00000  Uiso   1.00
N89    N     0.46606   0.74396   0.96605   0.00000  Uiso   1.00
N90    N     0.85981   0.98937   0.94681   0.00000  Uiso   1.00
N91    N     0.77336   0.10730   0.31558   0.00000  Uiso   1.00
N92    N     0.41652   0.82826   0.94711   0.00000  Uiso   1.00
C93    C     0.48986   0.21618   0.81123   0.00000  Uiso   1.00
C94    C     0.45622   0.14685   0.75823   0.00000  Uiso   1.00
C95    C     0.38418   0.11064   0.74146   0.00000  Uiso   1.00
C96    C     0.36406   0.04812   0.69163   0.00000  Uiso   1.00
C97    C     0.30419   0.94430   0.61420   0.00000  Uiso   1.00
C98    C     0.56659   0.21005   0.85772   0.00000  Uiso   1.00
C99    C     0.58736   0.22700   0.92461   0.00000  Uiso   1.00
C100   C     0.66016   0.21769   0.95854   0.00000  Uiso   1.00
C101   C     0.77168   0.21204   0.03559   0.00000  Uiso   1.00
C102   C     0.51009   0.25968   0.77755   0.00000  Uiso   1.00
C103   C     0.48336   0.31836   0.77703   0.00000  Uiso   1.00
C104   C     0.50861   0.35085   0.74348   0.00000  Uiso   1.00
C105   C     0.53240   0.42225   0.69604   0.00000  Uiso   1.00
C106   C     0.58224   0.16952   0.75258   0.00000  Uiso   1.00
C107   C     0.50639   0.12150   0.72637   0.00000  Uiso   1.00
C108   C     0.48638   0.05902   0.67656   0.00000  Uiso   1.00
C109   C     0.41432   0.02273   0.65971   0.00000  Uiso   1.00
C110   C     0.61677   0.18471   0.82587   0.00000  Uiso   1.00
C111   C     0.68956   0.17538   0.85971   0.00000  Uiso   1.00
C112   C     0.71043   0.19230   0.92662   0.00000  Uiso   1.00
C113   C     0.56026   0.23433   0.74569   0.00000  Uiso   1.00
C114   C     0.58556   0.26673   0.71213   0.00000  Uiso   1.00
C115   C     0.55887   0.32546   0.71156   0.00000  Uiso   1.00
H116   H     0.45081   0.23592   0.83604   0.00000  Uiso   1.00
H117   H     0.34537   0.13027   0.76613   0.00000  Uiso   1.00
H118   H     0.54852   0.24662   0.94925   0.00000  Uiso   1.00
H119   H     0.44454   0.33796   0.80169   0.00000  Uiso   1.00
H120   H     0.25061   0.00196   0.67458   0.00000  Uiso   1.00
H121   H     0.67898   0.24730   0.06071   0.00000  Uiso   1.00
H122   H     0.45971   0.43992   0.74956   0.00000  Uiso   1.00
H123   H     0.62130   0.14979   0.72777   0.00000  Uiso   1.00
H124   H     0.52522   0.03942   0.65191   0.00000  Uiso   1.00
H125   H     0.72837   0.15577   0.83504   0.00000  Uiso   1.00
H126   H     0.62439   0.24711   0.68748   0.00000  Uiso   1.00
H127   H     0.39658   0.92822   0.58188   0.00000  Uiso   1.00
H128   H     0.82495   0.17357   0.96801   0.00000  Uiso   1.00
H129   H     0.60568   0.36618   0.65686   0.00000  Uiso   1.00
O130   O     0.25732   0.89403   0.58030   0.00000  Uiso   1.00
O131   O     0.81933   0.21592   0.08689   0.00000  Uiso   1.00
O132   O     0.53165   0.46863   0.67867   0.00000  Uiso   1.00
N133   N     0.29814   0.99976   0.66317   0.00000  Uiso   1.00
N134   N     0.69864   0.22913   0.02417   0.00000  Uiso   1.00
N135   N     0.49366   0.40922   0.73329   0.00000  Uiso   1.00
N136   N     0.37669   0.96008   0.61329   0.00000  Uiso   1.00
N137   N     0.77718   0.18945   0.97429   0.00000  Uiso   1.00
N138   N     0.57220   0.36954   0.68341   0.00000  Uiso   1.00
C139   C     0.36341   0.70509   0.28913   0.00000  Uiso   1.00
C140   C     0.35074   0.65324   0.22180   0.00000  Uiso   1.00
C141   C     0.36976   0.66482   0.17337   0.00000  Uiso   1.00
C142   C     0.35355   0.61083   0.11515   0.00000  Uiso   1.00
C143   C     0.33909   0.53994   0.01204   0.00000  Uiso   1.00
C144   C     0.41212   0.67778   0.33860   0.00000  Uiso   1.00
C145   C     0.48273   0.70998   0.38837   0.00000  Uiso   1.00
C146   C     0.51818   0.67664   0.42848   0.00000  Uiso   1.00
C147   C     0.59898   0.64386   0.50673   0.00000  Uiso   1.00
C148   C     0.28447   0.70443   0.29518   0.00000  Uiso   1.00
C149   C     0.24776   0.75906   0.30846   0.00000  Uiso   1.00
C150   C     0.17574   0.74816   0.31203   0.00000  Uiso   1.00
C151   C     0.05834   0.75677   0.32286   0.00000  Uiso   1.00
C152   C     0.30080   0.58861   0.27188   0.00000  Uiso   1.00
C153   C     0.31674   0.58998   0.21243   0.00000  Uiso   1.00
C154   C     0.30049   0.53595   0.15428   0.00000  Uiso   1.00
C155   C     0.31947   0.54745   0.10576   0.00000  Uiso   1.00
C156   C     0.37812   0.61451   0.32923   0.00000  Uiso   1.00
C157   C     0.41346   0.58111   0.36928   0.00000  Uiso   1.00
C158   C     0.48412   0.61326   0.41910   0.00000  Uiso   1.00
C159   C     0.25046   0.64117   0.28581   0.00000  Uiso   1.00
C160   C     0.17849   0.63019   0.28937   0.00000  Uiso   1.00
C161   C     0.14167   0.68478   0.30265   0.00000  Uiso   1.00
H162   H     0.38989   0.75435   0.29643   0.00000  Uiso   1.00
H163   H     0.39608   0.71379   0.18064   0.00000  Uiso   1.00
H164   H     0.50903   0.75895   0.39562   0.00000  Uiso   1.00
H165   H     0.27409   0.80801   0.31571   0.00000  Uiso   1.00
H166   H     0.38797   0.64091   0.04814   0.00000  Uiso   1.00
H167   H     0.62613   0.73614   0.50144   0.00000  Uiso   1.00
H168   H     0.13071   0.83961   0.33295   0.00000  Uiso   1.00
H169   H     0.27432   0.53936   0.26459   0.00000  Uiso   1.00
H170   H     0.27417   0.48700   0.14704   0.00000  Uiso   1.00
H171   H     0.38713   0.53216   0.36202   0.00000  Uiso   1.00
H172   H     0.15219   0.58122   0.28211   0.00000  Uiso   1.00
H173   H     0.28904   0.45684   0.02087   0.00000  Uiso   1.00
H174   H     0.52719   0.55207   0.47417   0.00000  Uiso   1.00
H175   H     0.03177   0.65554   0.30568   0.00000  Uiso   1.00
O176   O     0.34051   0.51831   0.95776   0.00000  Uiso   1.00
O177   O     0.65296   0.64325   0.55248   0.00000  Uiso   1.00
O178   O     0.00298   0.77900   0.33142   0.00000  Uiso   1.00
N179   N     0.36470   0.60478   0.05785   0.00000  Uiso   1.00
N180   N     0.58736   0.69381   0.48165   0.00000  Uiso   1.00
N181   N     0.12420   0.79055   0.32414   0.00000  Uiso   1.00
N182   N     0.31146   0.50573   0.04317   0.00000  Uiso   1.00
N183   N     0.53412   0.59476   0.46698   0.00000  Uiso   1.00
N184   N     0.07096   0.69150   0.30947   0.00000  Uiso   1.00
C185   C     0.91256   0.42497   0.95683   0.00000  Uiso   1.00
C186   C     0.93556   0.48933   0.94938   0.00000  Uiso   1.00
C187   C     0.89522   0.54207   0.95390   0.00000  Uiso   1.00
C188   C     0.92578   0.59652   0.94563   0.00000  Uiso   1.00
C189   C     0.95110   0.69623   0.93599   0.00000  Uiso   1.00
C190   C     0.98142   0.41908   0.01135   0.00000  Uiso   1.00
C191   C     0.97964   0.41274   0.06796   0.00000  Uiso   1.00
C192   C     0.04881   0.40804   0.11184   0.00000  Uiso   1.00
C193   C     0.14532   0.39863   0.19837   0.00000  Uiso   1.00
C194   C     0.90704   0.36850   0.89418   0.00000  Uiso   1.00
C195   C     0.84273   0.31962   0.85227   0.00000  Uiso   1.00
C196   C     0.84928   0.27233   0.79751   0.00000  Uiso   1.00
C197   C     0.83031   0.18439   0.70212   0.00000  Uiso   1.00
C198   C     0.03854   0.42789   0.93410   0.00000  Uiso   1.00
C199   C     0.00399   0.49092   0.93704   0.00000  Uiso   1.00
C200   C     0.03461   0.54530   0.92876   0.00000  Uiso   1.00
C201   C     0.99433   0.59810   0.93326   0.00000  Uiso   1.00
C202   C     0.04985   0.42066   0.99900   0.00000  Uiso   1.00
C203   C     0.11903   0.41597   0.04281   0.00000  Uiso   1.00
C204   C     0.11736   0.40963   0.09948   0.00000  Uiso   1.00
C205   C     0.97547   0.37009   0.88183   0.00000  Uiso   1.00
C206   C     0.98212   0.32286   0.82713   0.00000  Uiso   1.00
C207   C     0.91783   0.27392   0.78515   0.00000  Uiso   1.00
H208   H     0.85929   0.42374   0.96644   0.00000  Uiso   1.00
H209   H     0.84227   0.54083   0.96347   0.00000  Uiso   1.00
H210   H     0.92668   0.41151   0.07750   0.00000  Uiso   1.00
H211   H     0.78979   0.31841   0.86184   0.00000  Uiso   1.00
H212   H     0.85360   0.67135   0.95475   0.00000  Uiso   1.00
H213   H     0.03157   0.39866   0.19518   0.00000  Uiso   1.00
H214   H     0.74291   0.20234   0.74043   0.00000  Uiso   1.00
H215   H     0.09182   0.42912   0.92449   0.00000  Uiso   1.00
H216   H     0.08756   0.54651   0.91920   0.00000  Uiso   1.00
H217   H     0.17197   0.41719   0.03324   0.00000  Uiso   1.00
H218   H     0.03508   0.32410   0.81759   0.00000  Uiso   1.00
H219   H     0.05269   0.67596   0.91883   0.00000  Uiso   1.00
H220   H     0.23066   0.40327   0.15926   0.00000  Uiso   1.00
H221   H     0.94200   0.20696   0.70451   0.00000  Uiso   1.00
O222   O     0.94616   0.75079   0.93409   0.00000  Uiso   1.00
O223   O     0.17965   0.39301   0.24952   0.00000  Uiso   1.00
O224   O     0.80094   0.13546   0.65291   0.00000  Uiso   1.00
N225   N     0.90103   0.65632   0.94700   0.00000  Uiso   1.00
N226   N     0.06743   0.40138   0.17180   0.00000  Uiso   1.00
N227   N     0.79756   0.21783   0.74666   0.00000  Uiso   1.00
N228   N     0.00816   0.65880   0.92767   0.00000  Uiso   1.00
N229   N     0.17456   0.40386   0.15247   0.00000  Uiso   1.00
N230   N     0.90469   0.22031   0.72733   0.00000  Uiso   1.00
C231   C     0.15503   0.59174   0.53954   0.00000  Uiso   1.00
C232   C     0.07817   0.54451   0.49725   0.00000  Uiso   1.00
C233   C     0.05462   0.50659   0.43089   0.00000  Uiso   1.00
C234   C     0.98221   0.46648   0.40106   0.00000  Uiso   1.00
C235   C     0.87004   0.39344   0.33004   0.00000  Uiso   1.00
C236   C     0.19258   0.56856   0.59555   0.00000  Uiso   1.00
C237   C     0.26523   0.55088   0.61185   0.00000  Uiso   1.00
C238   C     0.28914   0.53103   0.66478   0.00000  Uiso   1.00
C239   C     0.35463   0.49537   0.74639   0.00000  Uiso   1.00
C240   C     0.13494   0.65953   0.57038   0.00000  Uiso   1.00
C241   C     0.15913   0.71834   0.56554   0.00000  Uiso   1.00
C242   C     0.13452   0.77509   0.59729   0.00000  Uiso   1.00
C243   C     0.11050   0.88068   0.63983   0.00000  Uiso   1.00
C244   C     0.06833   0.58794   0.60458   0.00000  Uiso   1.00
C245   C     0.03108   0.54244   0.53258   0.00000  Uiso   1.00
C246   C     0.95869   0.50239   0.50285   0.00000  Uiso   1.00
C247   C     0.93503   0.46442   0.43645   0.00000  Uiso   1.00
C248   C     0.14549   0.56650   0.63088   0.00000  Uiso   1.00
C249   C     0.16930   0.54667   0.68380   0.00000  Uiso   1.00
C250   C     0.24197   0.52896   0.70017   0.00000  Uiso   1.00
C251   C     0.08784   0.65747   0.60571   0.00000  Uiso   1.00
C252   C     0.06320   0.71414   0.63749   0.00000  Uiso   1.00
C253   C     0.08734   0.77302   0.63269   0.00000  Uiso   1.00
H254   H     0.19170   0.59334   0.51204   0.00000  Uiso   1.00
H255   H     0.09108   0.50820   0.40357   0.00000  Uiso   1.00
H256   H     0.30167   0.55249   0.58450   0.00000  Uiso   1.00
H257   H     0.19558   0.71992   0.53819   0.00000  Uiso   1.00
H258   H     0.95877   0.41287   0.29889   0.00000  Uiso   1.00
H259   H     0.40281   0.50628   0.68041   0.00000  Uiso   1.00
H260   H     0.17910   0.85935   0.58277   0.00000  Uiso   1.00
H261   H     0.03166   0.58633   0.63208   0.00000  Uiso   1.00
H262   H     0.92226   0.50080   0.53020   0.00000  Uiso   1.00
H263   H     0.13284   0.54509   0.71113   0.00000  Uiso   1.00
H264   H     0.02675   0.71252   0.66482   0.00000  Uiso   1.00
H265   H     0.82174   0.40686   0.40167   0.00000  Uiso   1.00
H266   H     0.26579   0.50027   0.78320   0.00000  Uiso   1.00
H267   H     0.04207   0.85334   0.68555   0.00000  Uiso   1.00
O268   O     0.82118   0.35371   0.28110   0.00000  Uiso   1.00
O269   O     0.40375   0.47627   0.78165   0.00000  Uiso   1.00
O270   O     0.11025   0.93949   0.65353   0.00000  Uiso   1.00
N271   N     0.94153   0.42320   0.33706   0.00000  Uiso   1.00
N272   N     0.35668   0.51052   0.69376   0.00000  Uiso   1.00
N273   N     0.14754   0.84062   0.60248   0.00000  Uiso   1.00
N274   N     0.86780   0.41997   0.39237   0.00000  Uiso   1.00
N275   N     0.28294   0.50729   0.74906   0.00000  Uiso   1.00
N276   N     0.07381   0.83739   0.65778   0.00000  Uiso   1.00
C277   C     0.73811   0.48051   0.60443   0.00000  Uiso   1.00
C278   C     0.80687   0.44565   0.62203   0.00000  Uiso   1.00
C279   C     0.80275   0.37911   0.61449   0.00000  Uiso   1.00
C280   C     0.87225   0.35673   0.63349   0.00000  Uiso   1.00
C281   C     0.96821   0.29610   0.65690   0.00000  Uiso   1.00
C282   C     0.74901   0.51026   0.55682   0.00000  Uiso   1.00
C283   C     0.69623   0.49805   0.49446   0.00000  Uiso   1.00
C284   C     0.71703   0.53008   0.45857   0.00000  Uiso   1.00
C285   C     0.72314   0.56980   0.38076   0.00000  Uiso   1.00
C286   C     0.74805   0.53948   0.66673   0.00000  Uiso   1.00
C287   C     0.69446   0.55185   0.69678   0.00000  Uiso   1.00
C288   C     0.71444   0.60848   0.75342   0.00000  Uiso   1.00
C289   C     0.71906   0.69356   0.84626   0.00000  Uiso   1.00
C290   C     0.86886   0.55910   0.65158   0.00000  Uiso   1.00
C291   C     0.87789   0.48833   0.64764   0.00000  Uiso   1.00
C292   C     0.94741   0.46605   0.66666   0.00000  Uiso   1.00
C293   C     0.94339   0.39949   0.65915   0.00000  Uiso   1.00
C294   C     0.82003   0.55294   0.58243   0.00000  Uiso   1.00
C295   C     0.84090   0.58500   0.54663   0.00000  Uiso   1.00
C296   C     0.78817   0.57284   0.48423   0.00000  Uiso   1.00
C297   C     0.81907   0.58216   0.69235   0.00000  Uiso   1.00
C298   C     0.83913   0.63879   0.74895   0.00000  Uiso   1.00
C299   C     0.78559   0.65125   0.77907   0.00000  Uiso   1.00
H300   H     0.68282   0.44728   0.58448   0.00000  Uiso   1.00
H301   H     0.74777   0.34609   0.59466   0.00000  Uiso   1.00
H302   H     0.64128   0.46502   0.47466   0.00000  Uiso   1.00
H303   H     0.63951   0.51880   0.67694   0.00000  Uiso   1.00
H304   H     0.85111   0.25272   0.61722   0.00000  Uiso   1.00
H305   H     0.62655   0.50351   0.36418   0.00000  Uiso   1.00
H306   H     0.62282   0.61693   0.79075   0.00000  Uiso   1.00
H307   H     0.92416   0.59233   0.67152   0.00000  Uiso   1.00
H308   H     0.00236   0.49910   0.68648   0.00000  Uiso   1.00
H309   H     0.89586   0.61803   0.56647   0.00000  Uiso   1.00
H310   H     0.89410   0.67181   0.76875   0.00000  Uiso   1.00
H311   H     0.05775   0.37690   0.69173   0.00000  Uiso   1.00
H312   H     0.83317   0.62771   0.43870   0.00000  Uiso   1.00
H313   H     0.82945   0.74112   0.86526   0.00000  Uiso   1.00
O314   O     0.00152   0.25086   0.66272   0.00000  Uiso   1.00
O315   O     0.70689   0.57990   0.33076   0.00000  Uiso   1.00
O316   O     0.70200   0.72869   0.89040   0.00000  Uiso   1.00
N317   N     0.88901   0.29474   0.63272   0.00000  Uiso   1.00
N318   N     0.67906   0.52922   0.39614   0.00000  Uiso   1.00
N319   N     0.67557   0.63526   0.79493   0.00000  Uiso   1.00
N320   N     0.00020   0.36157   0.67281   0.00000  Uiso   1.00
N321   N     0.79025   0.59604   0.43624   0.00000  Uiso   1.00
N322   N     0.78675   0.70208   0.83503   0.00000  Uiso   1.00
C323   C     0.20144   0.84227   0.09198   0.00000  Uiso   1.00
C324   C     0.17149   0.77764   0.09550   0.00000  Uiso   1.00
C325   C     0.12651   0.77179   0.13082   0.00000  Uiso   1.00
C326   C     0.10500   0.70829   0.12771   0.00000  Uiso   1.00
C327   C     0.05501   0.61638   0.13880   0.00000  Uiso   1.00
C328   C     0.17248   0.83127   0.01953   0.00000  Uiso   1.00
C329   C     0.12835   0.87052   0.99098   0.00000  Uiso   1.00
C330   C     0.10768   0.85217   0.92391   0.00000  Uiso   1.00
C331   C     0.05928   0.84355   0.81706   0.00000  Uiso   1.00
C332   C     0.28896   0.84774   0.11407   0.00000  Uiso   1.00
C333   C     0.34277   0.90085   0.16500   0.00000  Uiso   1.00
C334   C     0.42018   0.89636   0.17753   0.00000  Uiso   1.00
C335   C     0.55263   0.91332   0.21747   0.00000  Uiso   1.00
C336   C     0.24321   0.73988   0.02364   0.00000  Uiso   1.00
C337   C     0.19418   0.72202   0.05838   0.00000  Uiso   1.00
C338   C     0.17273   0.65851   0.05522   0.00000  Uiso   1.00
C339   C     0.12773   0.65257   0.09053   0.00000  Uiso   1.00
C340   C     0.19517   0.77565   0.98241   0.00000  Uiso   1.00
C341   C     0.17456   0.75724   0.91537   0.00000  Uiso   1.00
C342   C     0.13041   0.79645   0.88673   0.00000  Uiso   1.00
C343   C     0.31165   0.79212   0.07695   0.00000  Uiso   1.00
C344   C     0.38899   0.78756   0.08940   0.00000  Uiso   1.00
C345   C     0.44290   0.84065   0.14034   0.00000  Uiso   1.00
H346   H     0.18377   0.88557   0.12087   0.00000  Uiso   1.00
H347   H     0.10896   0.81484   0.15954   0.00000  Uiso   1.00
H348   H     0.11081   0.91356   0.01971   0.00000  Uiso   1.00
H349   H     0.32519   0.94388   0.19371   0.00000  Uiso   1.00
H350   H     0.03600   0.71190   0.18602   0.00000  Uiso   1.00
H351   H     0.03991   0.92007   0.89120   0.00000  Uiso   1.00
H352   H     0.49199   0.98400   0.25811   0.00000  Uiso   1.00
H353   H     0.26087   0.69658   0.99474   0.00000  Uiso   1.00
H354   H     0.19029   0.61548   0.02649   0.00000  Uiso   1.00
H355   H     0.19213   0.71420   0.88667   0.00000  Uiso   1.00
H356   H     0.40652   0.74451   0.06066   0.00000  Uiso   1.00
H357   H     0.10201   0.55009   0.07803   0.00000  Uiso   1.00
H358   H     0.10592   0.75826   0.78321   0.00000  Uiso   1.00
H359   H     0.55800   0.82218   0.15012   0.00000  Uiso   1.00
O360   O     0.02116   0.58105   0.15517   0.00000  Uiso   1.00
O361   O     0.02631   0.85417   0.76837   0.00000  Uiso   1.00
O362   O     0.61942   0.93804   0.24976   0.00000  Uiso   1.00
N363   N     0.06124   0.68495   0.15626   0.00000  Uiso   1.00
N364   N     0.06488   0.87957   0.88061   0.00000  Uiso   1.00
N365   N     0.48754   0.93934   0.22363   0.00000  Uiso   1.00
N366   N     0.09676   0.59788   0.09815   0.00000  Uiso   1.00
N367   N     0.10040   0.79250   0.82251   0.00000  Uiso   1.00
N368   N     0.52306   0.85227   0.16553   0.00000  Uiso   1.00
C369   C     0.73924   0.66892   0.14436   0.00000  Uiso   1.00
C370   C     0.69194   0.69390   0.18702   0.00000  Uiso   1.00
C371   C     0.70461   0.75776   0.23325   0.00000  Uiso   1.00
C372   C     0.65494   0.77076   0.26721   0.00000  Uiso   1.00
C373   C     0.59062   0.81703   0.33524   0.00000  Uiso   1.00
C374   C     0.68193   0.64256   0.07380   0.00000  Uiso   1.00
C375   C     0.68619   0.66326   0.02484   0.00000  Uiso   1.00
C376   C     0.62811   0.63302   0.96350   0.00000  Uiso   1.00
C377   C     0.54827   0.59955   0.85574   0.00000  Uiso   1.00
C378   C     0.76797   0.60830   0.15724   0.00000  Uiso   1.00
C379   C     0.84458   0.60018   0.17843   0.00000  Uiso   1.00
C380   C     0.85894   0.54109   0.18732   0.00000  Uiso   1.00
C381   C     0.91270   0.45443   0.20912   0.00000  Uiso   1.00
C382   C     0.62851   0.57843   0.12246   0.00000  Uiso   1.00
C383   C     0.63179   0.64475   0.17512   0.00000  Uiso   1.00
C384   C     0.58210   0.65765   0.20903   0.00000  Uiso   1.00
C385   C     0.59469   0.72152   0.25530   0.00000  Uiso   1.00
C386   C     0.62179   0.59341   0.06191   0.00000  Uiso   1.00
C387   C     0.56368   0.56314   0.00062   0.00000  Uiso   1.00
C388   C     0.56785   0.58378   0.95158   0.00000  Uiso   1.00
C389   C     0.70783   0.55915   0.14535   0.00000  Uiso   1.00
C390   C     0.72207   0.50006   0.15420   0.00000  Uiso   1.00
C391   C     0.79869   0.49185   0.17540   0.00000  Uiso   1.00
H392   H     0.78606   0.70719   0.15361   0.00000  Uiso   1.00
H393   H     0.75115   0.79579   0.24244   0.00000  Uiso   1.00
H394   H     0.73274   0.70129   0.03406   0.00000  Uiso   1.00
H395   H     0.89111   0.63822   0.18762   0.00000  Uiso   1.00
H396   H     0.68591   0.87235   0.33565   0.00000  Uiso   1.00
H397   H     0.64711   0.67307   0.89627   0.00000  Uiso   1.00
H398   H     0.98105   0.54009   0.22009   0.00000  Uiso   1.00
H399   H     0.58169   0.54016   0.11320   0.00000  Uiso   1.00
H400   H     0.53556   0.61960   0.19981   0.00000  Uiso   1.00
H401   H     0.51715   0.52510   0.99143   0.00000  Uiso   1.00
H402   H     0.67552   0.46204   0.14500   0.00000  Uiso   1.00
H403   H     0.51092   0.72935   0.30105   0.00000  Uiso   1.00
H404   H     0.47212   0.53007   0.86167   0.00000  Uiso   1.00
H405   H     0.80606   0.39709   0.18549   0.00000  Uiso   1.00
O406   O     0.57174   0.85613   0.37604   0.00000  Uiso   1.00
O407   O     0.52085   0.59467   0.79959   0.00000  Uiso   1.00
O408   O     0.95897   0.42021   0.22444   0.00000  Uiso   1.00
N409   N     0.65106   0.82779   0.31563   0.00000  Uiso   1.00
N410   N     0.61478   0.64149   0.90484   0.00000  Uiso   1.00
N411   N     0.92699   0.51715   0.20757   0.00000  Uiso   1.00
N412   N     0.55691   0.75084   0.29702   0.00000  Uiso   1.00
N413   N     0.52062   0.56454   0.88622   0.00000  Uiso   1.00
N414   N     0.83283   0.44020   0.18895   0.00000  Uiso   1.00
C415   C     0.55101   0.83679   0.64734   0.00000  Uiso   1.00
C416   C     0.55060   0.89061   0.70942   0.00000  Uiso   1.00
C417   C     0.50787   0.88366   0.74608   0.00000  Uiso   1.00
C418   C     0.51547   0.93875   0.80126   0.00000  Uiso   1.00
C419   C     0.50742   0.01322   0.89493   0.00000  Uiso   1.00
C420   C     0.52860   0.86656   0.59473   0.00000  Uiso   1.00
C421   C     0.46736   0.83938   0.53495   0.00000  Uiso   1.00
C422   C     0.45644   0.87423   0.49357   0.00000  Uiso   1.00
C423   C     0.41426   0.91134   0.40916   0.00000  Uiso   1.00
C424   C     0.63514   0.82874   0.66033   0.00000  Uiso   1.00
C425   C     0.66349   0.76975   0.65570   0.00000  Uiso   1.00
C426   C     0.74226   0.77276   0.66954   0.00000  Uiso   1.00
C427   C     0.86550   0.75113   0.68699   0.00000  Uiso   1.00
C428   C     0.64049   0.94700   0.68014   0.00000  Uiso   1.00
C429   C     0.59921   0.95047   0.72723   0.00000  Uiso   1.00
C430   C     0.60687   0.00559   0.78237   0.00000  Uiso   1.00
C431   C     0.56416   0.99872   0.81911   0.00000  Uiso   1.00
C432   C     0.57720   0.92642   0.61254   0.00000  Uiso   1.00
C433   C     0.56637   0.96131   0.57124   0.00000  Uiso   1.00
C434   C     0.50513   0.93420   0.51142   0.00000  Uiso   1.00
C435   C     0.68374   0.88860   0.67815   0.00000  Uiso   1.00
C436   C     0.76249   0.89169   0.69199   0.00000  Uiso   1.00
C437   C     0.79095   0.83272   0.68739   0.00000  Uiso   1.00
H438   H     0.51317   0.79019   0.63346   0.00000  Uiso   1.00
H439   H     0.47026   0.83733   0.73227   0.00000  Uiso   1.00
H440   H     0.42977   0.79306   0.52118   0.00000  Uiso   1.00
H441   H     0.62586   0.72344   0.64191   0.00000  Uiso   1.00
H442   H     0.44410   0.91599   0.84967   0.00000  Uiso   1.00
H443   H     0.35874   0.82264   0.40455   0.00000  Uiso   1.00
H444   H     0.77223   0.67583   0.65913   0.00000  Uiso   1.00
H445   H     0.67833   0.99361   0.69400   0.00000  Uiso   1.00
H446   H     0.64449   0.05191   0.79615   0.00000  Uiso   1.00
H447   H     0.60399   0.00763   0.58504   0.00000  Uiso   1.00
H448   H     0.80008   0.93802   0.70578   0.00000  Uiso   1.00
H449   H     0.58551   0.09015   0.90151   0.00000  Uiso   1.00
H450   H     0.50015   0.99679   0.45638   0.00000  Uiso   1.00
H451   H     0.91364   0.84999   0.71097   0.00000  Uiso   1.00
O452   O     0.48955   0.03776   0.94167   0.00000  Uiso   1.00
O453   O     0.37756   0.91527   0.35768   0.00000  Uiso   1.00
O454   O     0.92005   0.72267   0.69170   0.00000  Uiso   1.00
N455   N     0.48204   0.94898   0.84786   0.00000  Uiso   1.00
N456   N     0.40222   0.86170   0.43170   0.00000  Uiso   1.00
N457   N     0.78880   0.72445   0.66970   0.00000  Uiso   1.00
N458   N     0.55813   0.04269   0.87575   0.00000  Uiso   1.00
N459   N     0.47831   0.95541   0.45959   0.00000  Uiso   1.00
N460   N     0.86489   0.81816   0.69760   0.00000  Uiso   1.00
C461   C     0.25481   0.14559   0.22059   0.00000  Uiso   1.00
C462   C     0.24368   0.12063   0.27117   0.00000  Uiso   1.00
C463   C     0.26644   0.06370   0.28094   0.00000  Uiso   1.00
C464   C     0.25104   0.04942   0.32966   0.00000  Uiso   1.00
C465   C     0.23934   0.00438   0.40247   0.00000  Uiso   1.00
C466   C     0.17460   0.15155   0.17929   0.00000  Uiso   1.00
C467   C     0.13929   0.12062   0.11180   0.00000  Uiso   1.00
C468   C     0.06574   0.13237   0.08318   0.00000  Uiso   1.00
C469   C     0.94681   0.13536   0.01334   0.00000  Uiso   1.00
C470   C     0.29966   0.21659   0.25869   0.00000  Uiso   1.00
C471   C     0.36948   0.24035   0.25795   0.00000  Uiso   1.00
C472   C     0.40121   0.30687   0.29617   0.00000  Uiso   1.00
C473   C     0.47645   0.41084   0.34960   0.00000  Uiso   1.00
C474   C     0.18699   0.22146   0.28975   0.00000  Uiso   1.00
C475   C     0.20684   0.16184   0.30874   0.00000  Uiso   1.00
C476   C     0.19141   0.14765   0.35746   0.00000  Uiso   1.00
C477   C     0.21414   0.09071   0.36730   0.00000  Uiso   1.00
C478   C     0.13776   0.19276   0.21686   0.00000  Uiso   1.00
C479   C     0.06425   0.20456   0.18833   0.00000  Uiso   1.00
C480   C     0.02883   0.17365   0.12081   0.00000  Uiso   1.00
C481   C     0.26282   0.25780   0.29626   0.00000  Uiso   1.00
C482   C     0.29444   0.32429   0.33448   0.00000  Uiso   1.00
C483   C     0.36431   0.34815   0.33380   0.00000  Uiso   1.00
H484   H     0.28349   0.11350   0.19134   0.00000  Uiso   1.00
H485   H     0.29495   0.03182   0.25185   0.00000  Uiso   1.00
H486   H     0.16781   0.08873   0.08275   0.00000  Uiso   1.00
H487   H     0.39797   0.20844   0.22888   0.00000  Uiso   1.00
H488   H     0.29138   0.95941   0.33549   0.00000  Uiso   1.00
H489   H     0.02333   0.07944   0.97892   0.00000  Uiso   1.00
H490   H     0.50866   0.33188   0.28706   0.00000  Uiso   1.00
H491   H     0.15830   0.25355   0.31900   0.00000  Uiso   1.00
H492   H     0.16290   0.17955   0.38652   0.00000  Uiso   1.00
H493   H     0.03576   0.23646   0.21741   0.00000  Uiso   1.00
H494   H     0.26592   0.35617   0.36354   0.00000  Uiso   1.00
H495   H     0.18420   0.07931   0.44479   0.00000  Uiso   1.00
H496   H     0.91615   0.19934   0.08822   0.00000  Uiso   1.00
H497   H     0.40148   0.45178   0.39636   0.00000  Uiso   1.00
O498   O     0.24304   0.96814   0.43224   0.00000  Uiso   1.00
O499   O     0.89138   0.12562   0.96443   0.00000  Uiso   1.00
O500   O     0.52812   0.45681   0.36871   0.00000  Uiso   1.00
N501   N     0.26554   0.99779   0.35196   0.00000  Uiso   1.00
N502   N     0.01492   0.11000   0.01859   0.00000  Uiso   1.00
N503   N     0.46866   0.34601   0.30666   0.00000  Uiso   1.00
N504   N     0.20787   0.06231   0.41077   0.00000  Uiso   1.00
N505   N     0.95725   0.17452   0.07740   0.00000  Uiso   1.00
N506   N     0.41098   0.41053   0.36547   0.00000  Uiso   1.00
C507   C     0.24081   0.30889   0.64533   0.00000  Uiso   1.00
C508   C     0.28060   0.25194   0.61861   0.00000  Uiso   1.00
C509   C     0.34620   0.25821   0.60404   0.00000  Uiso   1.00
C510   C     0.37366   0.20011   0.58005   0.00000  Uiso   1.00
C511   C     0.44103   0.12113   0.53990   0.00000  Uiso   1.00
C512   C     0.15729   0.29094   0.59733   0.00000  Uiso   1.00
C513   C     0.11921   0.33001   0.56488   0.00000  Uiso   1.00
C514   C     0.04287   0.30474   0.52298   0.00000  Uiso   1.00
C515   C     0.91878   0.28633   0.44983   0.00000  Uiso   1.00
C516   C     0.23802   0.30543   0.70861   0.00000  Uiso   1.00
C517   C     0.26781   0.35669   0.76972   0.00000  Uiso   1.00
C518   C     0.25942   0.34363   0.82151   0.00000  Uiso   1.00
C519   C     0.26068   0.34771   0.92114   0.00000  Uiso   1.00
C520   C     0.17294   0.19454   0.62862   0.00000  Uiso   1.00
C521   C     0.24373   0.18983   0.60953   0.00000  Uiso   1.00
C522   C     0.27111   0.13170   0.58556   0.00000  Uiso   1.00
C523   C     0.33673   0.13789   0.57096   0.00000  Uiso   1.00
C524   C     0.12042   0.22883   0.58825   0.00000  Uiso   1.00
C525   C     0.04412   0.20350   0.54639   0.00000  Uiso   1.00
C526   C     0.00593   0.24252   0.51388   0.00000  Uiso   1.00
C527   C     0.20116   0.24332   0.69953   0.00000  Uiso   1.00
C528   C     0.19272   0.23018   0.75123   0.00000  Uiso   1.00
C529   C     0.22248   0.28141   0.81241   0.00000  Uiso   1.00
H530   H     0.26951   0.35724   0.65240   0.00000  Uiso   1.00
H531   H     0.37471   0.30629   0.61107   0.00000  Uiso   1.00
H532   H     0.14775   0.37807   0.57192   0.00000  Uiso   1.00
H533   H     0.29633   0.40474   0.77673   0.00000  Uiso   1.00
H534   H     0.47507   0.22240   0.56123   0.00000  Uiso   1.00
H535   H     0.99651   0.37378   0.47869   0.00000  Uiso   1.00
H536   H     0.30981   0.43003   0.91057   0.00000  Uiso   1.00
H537   H     0.14423   0.14619   0.62155   0.00000  Uiso   1.00
H538   H     0.24256   0.08365   0.57854   0.00000  Uiso   1.00
H539   H     0.01561   0.15544   0.53938   0.00000  Uiso   1.00
H540   H     0.16418   0.18211   0.74419   0.00000  Uiso   1.00
H541   H     0.36781   0.04170   0.53482   0.00000  Uiso   1.00
H542   H     0.88925   0.19308   0.45228   0.00000  Uiso   1.00
H543   H     0.20256   0.24932   0.88416   0.00000  Uiso   1.00
O544   O     0.48837   0.09472   0.52026   0.00000  Uiso   1.00
O545   O     0.86052   0.29333   0.41198   0.00000  Uiso   1.00
O546   O     0.27157   0.36712   0.97860   0.00000  Uiso   1.00
N547   N     0.43634   0.18846   0.56093   0.00000  Uiso   1.00
N548   N     0.98892   0.32998   0.48375   0.00000  Uiso   1.00
N549   N     0.28181   0.38257   0.88752   0.00000  Uiso   1.00
N550   N     0.37863   0.09122   0.54672   0.00000  Uiso   1.00
N551   N     0.93121   0.23275   0.46954   0.00000  Uiso   1.00
N552   N     0.22410   0.28534   0.87331   0.00000  Uiso   1.00
