data_job_05805
_audit_creation_date              2018-12-19
_audit_creation_method            'Materials Studio'
_symmetry_space_group_name_H-M    'P1'
_symmetry_Int_Tables_number       1
_symmetry_cell_setting            triclinic
loop_
_symmetry_equiv_pos_as_xyz
  x,y,z
_cell_length_a                    12.2497
_cell_length_b                    12.2497
_cell_length_c                    15.2349
_cell_angle_alpha                 90.0000
_cell_angle_beta                  90.0000
_cell_angle_gamma                 120.0000
loop_
_atom_site_label
_atom_site_type_symbol
_atom_site_fract_x
_atom_site_fract_y
_atom_site_fract_z
_atom_site_U_iso_or_equiv
_atom_site_adp_type
_atom_site_occupancy
C1     C     0.82417   0.22748   0.27341   0.00000  Uiso   1.00
C2     C     0.73428   0.20389   0.19721   0.00000  Uiso   1.00
C3     C     0.67346   0.27142   0.17987   0.00000  Uiso   1.00
C4     C     0.59499   0.23517   0.10697   0.00000  Uiso   1.00
C5     C     0.45794   0.21374   0.99683   0.00000  Uiso   1.00
C6     C     0.76994   0.10305   0.32312   0.00000  Uiso   1.00
C7     C     0.73912   0.08582   0.41164   0.00000  Uiso   1.00
C8     C     0.69068   0.96468   0.44473   0.00000  Uiso   1.00
C9     C     0.60908   0.78673   0.53008   0.00000  Uiso   1.00
C10    C     0.94692   0.24906   0.23232   0.00000  Uiso   1.00
C11    C     0.06492   0.35457   0.24451   0.00000  Uiso   1.00
C12    C     0.16550   0.35634   0.20116   0.00000  Uiso   1.00
C13    C     0.35868   0.40508   0.14552   0.00000  Uiso   1.00
C14    C     0.79299   0.04299   0.17478   0.00000  Uiso   1.00
C15    C     0.71735   0.10367   0.14364   0.00000  Uiso   1.00
C16    C     0.63896   0.06731   0.07075   0.00000  Uiso   1.00
C17    C     0.57803   0.13478   0.05330   0.00000  Uiso   1.00
C18    C     0.75300   0.00285   0.26955   0.00000  Uiso   1.00
C19    C     0.70462   0.88171   0.30252   0.00000  Uiso   1.00
C20    C     0.67372   0.86429   0.39107   0.00000  Uiso   1.00
C21    C     0.92999   0.14885   0.17874   0.00000  Uiso   1.00
C22    C     0.03041   0.15045   0.13538   0.00000  Uiso   1.00
C23    C     0.14853   0.25595   0.14750   0.00000  Uiso   1.00
H24    H     0.83736   0.30549   0.31512   0.00000  Uiso   1.00
H25    H     0.68658   0.34896   0.22134   0.00000  Uiso   1.00
H26    H     0.75224   0.16339   0.45308   0.00000  Uiso   1.00
H27    H     0.07798   0.43210   0.28596   0.00000  Uiso   1.00
H28    H     0.51191   0.35294   0.09377   0.00000  Uiso   1.00
H29    H     0.65040   0.96166   0.58240   0.00000  Uiso   1.00
H30    H     0.33730   0.52828   0.23002   0.00000  Uiso   1.00
H31    H     0.77981   0.96497   0.13308   0.00000  Uiso   1.00
H32    H     0.62587   0.98976   0.02931   0.00000  Uiso   1.00
H33    H     0.69153   0.80419   0.26105   0.00000  Uiso   1.00
H34    H     0.01727   0.07289   0.09393   0.00000  Uiso   1.00
H35    H     0.46263   0.06139   0.93791   0.00000  Uiso   1.00
H36    H     0.60113   0.67011   0.42655   0.00000  Uiso   1.00
H37    H     0.28802   0.23674   0.07416   0.00000  Uiso   1.00
O38    O     0.38701   0.22959   0.95088   0.00000  Uiso   1.00
O39    O     0.56873   0.71626   0.59195   0.00000  Uiso   1.00
O40    O     0.46992   0.45965   0.12962   0.00000  Uiso   1.00
N41    N     0.52146   0.28094   0.07132   0.00000  Uiso   1.00
N42    N     0.65092   0.91511   0.52816   0.00000  Uiso   1.00
N43    N     0.29312   0.44484   0.19873   0.00000  Uiso   1.00
N44    N     0.49494   0.12406   0.98745   0.00000  Uiso   1.00
N45    N     0.62440   0.75823   0.44429   0.00000  Uiso   1.00
N46    N     0.26660   0.28796   0.11486   0.00000  Uiso   1.00
C47    C     0.77252   0.59670   0.94007   0.00000  Uiso   1.00
C48    C     0.79611   0.53040   0.86388   0.00000  Uiso   1.00
C49    C     0.72858   0.40203   0.84653   0.00000  Uiso   1.00
C50    C     0.76483   0.35982   0.77364   0.00000  Uiso   1.00
C51    C     0.78626   0.24420   0.66349   0.00000  Uiso   1.00
C52    C     0.89695   0.66689   0.98978   0.00000  Uiso   1.00
C53    C     0.91418   0.65329   0.07831   0.00000  Uiso   1.00
C54    C     0.03532   0.72600   0.11140   0.00000  Uiso   1.00
C55    C     0.21327   0.82235   0.19674   0.00000  Uiso   1.00
C56    C     0.75094   0.69786   0.89898   0.00000  Uiso   1.00
C57    C     0.64543   0.71034   0.91117   0.00000  Uiso   1.00
C58    C     0.64366   0.80916   0.86783   0.00000  Uiso   1.00
C59    C     0.59492   0.95360   0.81219   0.00000  Uiso   1.00
C60    C     0.95701   0.75001   0.84145   0.00000  Uiso   1.00
C61    C     0.89633   0.61367   0.81031   0.00000  Uiso   1.00
C62    C     0.93269   0.57165   0.73742   0.00000  Uiso   1.00
C63    C     0.86522   0.44324   0.71997   0.00000  Uiso   1.00
C64    C     0.99715   0.75016   0.93622   0.00000  Uiso   1.00
C65    C     0.11829   0.82291   0.96919   0.00000  Uiso   1.00
C66    C     0.13571   0.80942   0.05773   0.00000  Uiso   1.00
C67    C     0.85115   0.78114   0.84541   0.00000  Uiso   1.00
C68    C     0.84955   0.87996   0.80205   0.00000  Uiso   1.00
C69    C     0.74405   0.89258   0.81417   0.00000  Uiso   1.00
H70    H     0.69451   0.53187   0.98178   0.00000  Uiso   1.00
H71    H     0.65104   0.33762   0.88801   0.00000  Uiso   1.00
H72    H     0.83661   0.58885   0.11974   0.00000  Uiso   1.00
H73    H     0.56790   0.64589   0.95263   0.00000  Uiso   1.00
H74    H     0.64706   0.15897   0.76044   0.00000  Uiso   1.00
H75    H     0.03834   0.68874   0.24907   0.00000  Uiso   1.00
H76    H     0.47172   0.80902   0.89668   0.00000  Uiso   1.00
H77    H     0.03503   0.81484   0.79975   0.00000  Uiso   1.00
H78    H     0.01024   0.63611   0.69598   0.00000  Uiso   1.00
H79    H     0.19581   0.88734   0.92772   0.00000  Uiso   1.00
H80    H     0.92711   0.94438   0.76060   0.00000  Uiso   1.00
H81    H     0.93861   0.40124   0.60458   0.00000  Uiso   1.00
H82    H     0.32989   0.93101   0.09322   0.00000  Uiso   1.00
H83    H     0.76326   0.05128   0.74082   0.00000  Uiso   1.00
O84    O     0.77041   0.15742   0.61755   0.00000  Uiso   1.00
O85    O     0.28374   0.85247   0.25862   0.00000  Uiso   1.00
O86    O     0.54035   0.01026   0.79629   0.00000  Uiso   1.00
N87    N     0.71906   0.24052   0.73799   0.00000  Uiso   1.00
N88    N     0.08489   0.73581   0.19483   0.00000  Uiso   1.00
N89    N     0.55516   0.84827   0.86539   0.00000  Uiso   1.00
N90    N     0.87594   0.37088   0.65412   0.00000  Uiso   1.00
N91    N     0.24177   0.86617   0.11096   0.00000  Uiso   1.00
N92    N     0.71204   0.97864   0.78153   0.00000  Uiso   1.00
C93    C     0.40330   0.17583   0.60674   0.00000  Uiso   1.00
C94    C     0.46960   0.26572   0.53054   0.00000  Uiso   1.00
C95    C     0.59797   0.32654   0.51320   0.00000  Uiso   1.00
C96    C     0.64018   0.40501   0.44030   0.00000  Uiso   1.00
C97    C     0.75580   0.54206   0.33016   0.00000  Uiso   1.00
C98    C     0.33311   0.23006   0.65645   0.00000  Uiso   1.00
C99    C     0.34671   0.26088   0.74497   0.00000  Uiso   1.00
C100   C     0.27400   0.30932   0.77806   0.00000  Uiso   1.00
C101   C     0.17765   0.39092   0.86341   0.00000  Uiso   1.00
C102   C     0.30214   0.05308   0.56565   0.00000  Uiso   1.00
C103   C     0.28966   0.93508   0.57784   0.00000  Uiso   1.00
C104   C     0.19084   0.83450   0.53450   0.00000  Uiso   1.00
C105   C     0.04640   0.64132   0.47886   0.00000  Uiso   1.00
C106   C     0.24999   0.20701   0.50812   0.00000  Uiso   1.00
C107   C     0.38633   0.28265   0.47698   0.00000  Uiso   1.00
C108   C     0.42835   0.36104   0.40408   0.00000  Uiso   1.00
C109   C     0.55676   0.42197   0.38663   0.00000  Uiso   1.00
C110   C     0.24984   0.24700   0.60289   0.00000  Uiso   1.00
C111   C     0.17709   0.29538   0.63586   0.00000  Uiso   1.00
C112   C     0.19058   0.32628   0.72440   0.00000  Uiso   1.00
C113   C     0.21886   0.07001   0.51208   0.00000  Uiso   1.00
C114   C     0.12004   0.96959   0.46872   0.00000  Uiso   1.00
C115   C     0.10742   0.85147   0.48083   0.00000  Uiso   1.00
H116   H     0.46813   0.16264   0.64845   0.00000  Uiso   1.00
H117   H     0.66238   0.31342   0.55468   0.00000  Uiso   1.00
H118   H     0.41115   0.24776   0.78641   0.00000  Uiso   1.00
H119   H     0.35411   0.92202   0.61930   0.00000  Uiso   1.00
H120   H     0.84103   0.48809   0.42710   0.00000  Uiso   1.00
H121   H     0.31126   0.34960   0.91574   0.00000  Uiso   1.00
H122   H     0.19098   0.66270   0.56335   0.00000  Uiso   1.00
H123   H     0.18516   0.22019   0.46641   0.00000  Uiso   1.00
H124   H     0.36389   0.37413   0.36264   0.00000  Uiso   1.00
H125   H     0.11266   0.30847   0.59438   0.00000  Uiso   1.00
H126   H     0.05562   0.98273   0.42727   0.00000  Uiso   1.00
H127   H     0.59876   0.53737   0.27125   0.00000  Uiso   1.00
H128   H     0.06899   0.39887   0.75988   0.00000  Uiso   1.00
H129   H     0.94872   0.71198   0.40749   0.00000  Uiso   1.00
O130   O     0.84258   0.61299   0.28421   0.00000  Uiso   1.00
O131   O     0.14753   0.43127   0.92529   0.00000  Uiso   1.00
O132   O     0.98974   0.53008   0.46296   0.00000  Uiso   1.00
N133   N     0.75948   0.47854   0.40465   0.00000  Uiso   1.00
N134   N     0.26419   0.34908   0.86149   0.00000  Uiso   1.00
N135   N     0.15173   0.70688   0.53206   0.00000  Uiso   1.00
N136   N     0.62912   0.50506   0.32079   0.00000  Uiso   1.00
N137   N     0.13383   0.37560   0.77763   0.00000  Uiso   1.00
N138   N     0.02136   0.73340   0.44819   0.00000  Uiso   1.00
