data_job_05373
_audit_creation_date              2018-12-19
_audit_creation_method            'Materials Studio'
_symmetry_space_group_name_H-M    'P1'
_symmetry_Int_Tables_number       1
_symmetry_cell_setting            triclinic
loop_
_symmetry_equiv_pos_as_xyz
  x,y,z
_cell_length_a                    21.8756
_cell_length_b                    21.8756
_cell_length_c                    9.6205
_cell_angle_alpha                 90.0000
_cell_angle_beta                  90.0000
_cell_angle_gamma                 90.0000
loop_
_atom_site_label
_atom_site_type_symbol
_atom_site_fract_x
_atom_site_fract_y
_atom_site_fract_z
_atom_site_U_iso_or_equiv
_atom_site_adp_type
_atom_site_occupancy
C1     C     0.83769   0.76955   0.47101   0.00000  Uiso   1.00
C2     C     0.86030   0.70590   0.43188   0.00000  Uiso   1.00
C3     C     0.83521   0.65107   0.47675   0.00000  Uiso   1.00
C4     C     0.86251   0.59773   0.42921   0.00000  Uiso   1.00
C5     C     0.88992   0.49866   0.38197   0.00000  Uiso   1.00
C6     C     0.82416   0.80209   0.33424   0.00000  Uiso   1.00
C7     C     0.76868   0.82815   0.29703   0.00000  Uiso   1.00
C8     C     0.76555   0.85578   0.16731   0.00000  Uiso   1.00
C9     C     0.73685   0.90610   0.96852   0.00000  Uiso   1.00
C10    C     0.89240   0.80255   0.53436   0.00000  Uiso   1.00
C11    C     0.89430   0.82902   0.66539   0.00000  Uiso   1.00
C12    C     0.94863   0.85707   0.70413   0.00000  Uiso   1.00
C13    C     0.02589   0.90810   0.81605   0.00000  Uiso   1.00
C14    C     0.93079   0.77230   0.30680   0.00000  Uiso   1.00
C15    C     0.91087   0.70739   0.34269   0.00000  Uiso   1.00
C16    C     0.93822   0.65412   0.29507   0.00000  Uiso   1.00
C17    C     0.91318   0.59923   0.33986   0.00000  Uiso   1.00
C18    C     0.87473   0.80358   0.24505   0.00000  Uiso   1.00
C19    C     0.87169   0.83119   0.11535   0.00000  Uiso   1.00
C20    C     0.81622   0.85728   0.07795   0.00000  Uiso   1.00
C21    C     0.94297   0.80405   0.44517   0.00000  Uiso   1.00
C22    C     0.99731   0.83206   0.48371   0.00000  Uiso   1.00
C23    C     0.99929   0.85856   0.61477   0.00000  Uiso   1.00
H24    H     0.79832   0.76839   0.54044   0.00000  Uiso   1.00
H25    H     0.79607   0.64993   0.54577   0.00000  Uiso   1.00
H26    H     0.72955   0.82699   0.36608   0.00000  Uiso   1.00
H27    H     0.85516   0.82786   0.73438   0.00000  Uiso   1.00
H28    H     0.81588   0.51927   0.51229   0.00000  Uiso   1.00
H29    H     0.67562   0.89261   0.13344   0.00000  Uiso   1.00
H30    H     0.94048   0.89445   0.91007   0.00000  Uiso   1.00
H31    H     0.97017   0.77347   0.23735   0.00000  Uiso   1.00
H32    H     0.97736   0.65529   0.22605   0.00000  Uiso   1.00
H33    H     0.91083   0.83234   0.04636   0.00000  Uiso   1.00
H34    H     0.03644   0.83321   0.41466   0.00000  Uiso   1.00
H35    H     0.96301   0.52361   0.25279   0.00000  Uiso   1.00
H36    H     0.82275   0.89696   0.87394   0.00000  Uiso   1.00
H37    H     0.08761   0.89879   0.65057   0.00000  Uiso   1.00
O38    O     0.89106   0.44361   0.38054   0.00000  Uiso   1.00
O39    O     0.70705   0.93343   0.88351   0.00000  Uiso   1.00
O40    O     0.05454   0.93583   0.90243   0.00000  Uiso   1.00
N41    N     0.84953   0.53651   0.45279   0.00000  Uiso   1.00
N42    N     0.71839   0.88555   0.09858   0.00000  Uiso   1.00
N43    N     0.96600   0.88728   0.82465   0.00000  Uiso   1.00
N44    N     0.92870   0.53885   0.31316   0.00000  Uiso   1.00
N45    N     0.79756   0.88789   0.95895   0.00000  Uiso   1.00
N46    N     0.04518   0.88962   0.68501   0.00000  Uiso   1.00
C47    C     0.16231   0.23045   0.47101   0.00000  Uiso   1.00
C48    C     0.13970   0.29410   0.43188   0.00000  Uiso   1.00
C49    C     0.16479   0.34893   0.47675   0.00000  Uiso   1.00
C50    C     0.13749   0.40227   0.42921   0.00000  Uiso   1.00
C51    C     0.11008   0.50134   0.38197   0.00000  Uiso   1.00
C52    C     0.17584   0.19791   0.33424   0.00000  Uiso   1.00
C53    C     0.23132   0.17185   0.29703   0.00000  Uiso   1.00
C54    C     0.23445   0.14422   0.16731   0.00000  Uiso   1.00
C55    C     0.26315   0.09390   0.96852   0.00000  Uiso   1.00
C56    C     0.10760   0.19745   0.53436   0.00000  Uiso   1.00
C57    C     0.10570   0.17098   0.66539   0.00000  Uiso   1.00
C58    C     0.05137   0.14293   0.70413   0.00000  Uiso   1.00
C59    C     0.97411   0.09190   0.81605   0.00000  Uiso   1.00
C60    C     0.06921   0.22770   0.30680   0.00000  Uiso   1.00
C61    C     0.08913   0.29261   0.34269   0.00000  Uiso   1.00
C62    C     0.06178   0.34588   0.29507   0.00000  Uiso   1.00
C63    C     0.08682   0.40077   0.33986   0.00000  Uiso   1.00
C64    C     0.12527   0.19642   0.24505   0.00000  Uiso   1.00
C65    C     0.12831   0.16881   0.11535   0.00000  Uiso   1.00
C66    C     0.18378   0.14272   0.07795   0.00000  Uiso   1.00
C67    C     0.05703   0.19595   0.44517   0.00000  Uiso   1.00
C68    C     0.00269   0.16794   0.48371   0.00000  Uiso   1.00
C69    C     0.00071   0.14144   0.61477   0.00000  Uiso   1.00
H70    H     0.20168   0.23161   0.54044   0.00000  Uiso   1.00
H71    H     0.20393   0.35007   0.54577   0.00000  Uiso   1.00
H72    H     0.27045   0.17301   0.36608   0.00000  Uiso   1.00
H73    H     0.14484   0.17214   0.73438   0.00000  Uiso   1.00
H74    H     0.18412   0.48073   0.51229   0.00000  Uiso   1.00
H75    H     0.32438   0.10739   0.13344   0.00000  Uiso   1.00
H76    H     0.05952   0.10555   0.91007   0.00000  Uiso   1.00
H77    H     0.02983   0.22653   0.23735   0.00000  Uiso   1.00
H78    H     0.02264   0.34471   0.22605   0.00000  Uiso   1.00
H79    H     0.08917   0.16766   0.04636   0.00000  Uiso   1.00
H80    H     0.96356   0.16679   0.41466   0.00000  Uiso   1.00
H81    H     0.03699   0.47639   0.25279   0.00000  Uiso   1.00
H82    H     0.17725   0.10304   0.87394   0.00000  Uiso   1.00
H83    H     0.91239   0.10121   0.65057   0.00000  Uiso   1.00
O84    O     0.10894   0.55639   0.38054   0.00000  Uiso   1.00
O85    O     0.29295   0.06657   0.88351   0.00000  Uiso   1.00
O86    O     0.94546   0.06417   0.90243   0.00000  Uiso   1.00
N87    N     0.15047   0.46349   0.45279   0.00000  Uiso   1.00
N88    N     0.28161   0.11445   0.09858   0.00000  Uiso   1.00
N89    N     0.03400   0.11272   0.82465   0.00000  Uiso   1.00
N90    N     0.07130   0.46115   0.31316   0.00000  Uiso   1.00
N91    N     0.20244   0.11211   0.95895   0.00000  Uiso   1.00
N92    N     0.95482   0.11038   0.68501   0.00000  Uiso   1.00
C93    C     0.76955   0.16231   0.52899   0.00000  Uiso   1.00
C94    C     0.70590   0.13970   0.56812   0.00000  Uiso   1.00
C95    C     0.65107   0.16479   0.52325   0.00000  Uiso   1.00
C96    C     0.59773   0.13749   0.57079   0.00000  Uiso   1.00
C97    C     0.49866   0.11008   0.61803   0.00000  Uiso   1.00
C98    C     0.80209   0.17584   0.66576   0.00000  Uiso   1.00
C99    C     0.82815   0.23132   0.70297   0.00000  Uiso   1.00
C100   C     0.85578   0.23445   0.83269   0.00000  Uiso   1.00
C101   C     0.90610   0.26315   0.03148   0.00000  Uiso   1.00
C102   C     0.80255   0.10760   0.46564   0.00000  Uiso   1.00
C103   C     0.82902   0.10570   0.33461   0.00000  Uiso   1.00
C104   C     0.85707   0.05137   0.29587   0.00000  Uiso   1.00
C105   C     0.90810   0.97411   0.18395   0.00000  Uiso   1.00
C106   C     0.77230   0.06921   0.69320   0.00000  Uiso   1.00
C107   C     0.70739   0.08913   0.65731   0.00000  Uiso   1.00
C108   C     0.65412   0.06178   0.70493   0.00000  Uiso   1.00
C109   C     0.59923   0.08682   0.66014   0.00000  Uiso   1.00
C110   C     0.80358   0.12527   0.75495   0.00000  Uiso   1.00
C111   C     0.83119   0.12831   0.88465   0.00000  Uiso   1.00
C112   C     0.85728   0.18378   0.92205   0.00000  Uiso   1.00
C113   C     0.80405   0.05703   0.55483   0.00000  Uiso   1.00
C114   C     0.83206   0.00269   0.51629   0.00000  Uiso   1.00
C115   C     0.85856   0.00071   0.38523   0.00000  Uiso   1.00
H116   H     0.76839   0.20168   0.45956   0.00000  Uiso   1.00
H117   H     0.64993   0.20393   0.45423   0.00000  Uiso   1.00
H118   H     0.82699   0.27045   0.63392   0.00000  Uiso   1.00
H119   H     0.82786   0.14484   0.26562   0.00000  Uiso   1.00
H120   H     0.51927   0.18412   0.48771   0.00000  Uiso   1.00
H121   H     0.89261   0.32438   0.86656   0.00000  Uiso   1.00
H122   H     0.89445   0.05952   0.08993   0.00000  Uiso   1.00
H123   H     0.77347   0.02983   0.76265   0.00000  Uiso   1.00
H124   H     0.65529   0.02264   0.77395   0.00000  Uiso   1.00
H125   H     0.83234   0.08917   0.95364   0.00000  Uiso   1.00
H126   H     0.83321   0.96356   0.58534   0.00000  Uiso   1.00
H127   H     0.52361   0.03699   0.74721   0.00000  Uiso   1.00
H128   H     0.89696   0.17725   0.12606   0.00000  Uiso   1.00
H129   H     0.89879   0.91239   0.34943   0.00000  Uiso   1.00
O130   O     0.44361   0.10894   0.61946   0.00000  Uiso   1.00
O131   O     0.93343   0.29295   0.11649   0.00000  Uiso   1.00
O132   O     0.93583   0.94546   0.09757   0.00000  Uiso   1.00
N133   N     0.53651   0.15047   0.54721   0.00000  Uiso   1.00
N134   N     0.88555   0.28161   0.90142   0.00000  Uiso   1.00
N135   N     0.88728   0.03400   0.17535   0.00000  Uiso   1.00
N136   N     0.53885   0.07130   0.68684   0.00000  Uiso   1.00
N137   N     0.88789   0.20244   0.04105   0.00000  Uiso   1.00
N138   N     0.88962   0.95482   0.31499   0.00000  Uiso   1.00
C139   C     0.23045   0.83769   0.52899   0.00000  Uiso   1.00
C140   C     0.29410   0.86030   0.56812   0.00000  Uiso   1.00
C141   C     0.34893   0.83521   0.52325   0.00000  Uiso   1.00
C142   C     0.40227   0.86251   0.57079   0.00000  Uiso   1.00
C143   C     0.50134   0.88992   0.61803   0.00000  Uiso   1.00
C144   C     0.19791   0.82416   0.66576   0.00000  Uiso   1.00
C145   C     0.17185   0.76868   0.70297   0.00000  Uiso   1.00
C146   C     0.14422   0.76555   0.83269   0.00000  Uiso   1.00
C147   C     0.09390   0.73685   0.03148   0.00000  Uiso   1.00
C148   C     0.19745   0.89240   0.46564   0.00000  Uiso   1.00
C149   C     0.17098   0.89430   0.33461   0.00000  Uiso   1.00
C150   C     0.14293   0.94863   0.29587   0.00000  Uiso   1.00
C151   C     0.09190   0.02589   0.18395   0.00000  Uiso   1.00
C152   C     0.22770   0.93079   0.69320   0.00000  Uiso   1.00
C153   C     0.29261   0.91087   0.65731   0.00000  Uiso   1.00
C154   C     0.34588   0.93822   0.70493   0.00000  Uiso   1.00
C155   C     0.40077   0.91318   0.66014   0.00000  Uiso   1.00
C156   C     0.19642   0.87473   0.75495   0.00000  Uiso   1.00
C157   C     0.16881   0.87169   0.88465   0.00000  Uiso   1.00
C158   C     0.14272   0.81622   0.92205   0.00000  Uiso   1.00
C159   C     0.19595   0.94297   0.55483   0.00000  Uiso   1.00
C160   C     0.16794   0.99731   0.51629   0.00000  Uiso   1.00
C161   C     0.14144   0.99929   0.38523   0.00000  Uiso   1.00
H162   H     0.23161   0.79832   0.45956   0.00000  Uiso   1.00
H163   H     0.35007   0.79607   0.45423   0.00000  Uiso   1.00
H164   H     0.17301   0.72955   0.63392   0.00000  Uiso   1.00
H165   H     0.17214   0.85516   0.26562   0.00000  Uiso   1.00
H166   H     0.48073   0.81588   0.48771   0.00000  Uiso   1.00
H167   H     0.10739   0.67562   0.86656   0.00000  Uiso   1.00
H168   H     0.10555   0.94048   0.08993   0.00000  Uiso   1.00
H169   H     0.22653   0.97017   0.76265   0.00000  Uiso   1.00
H170   H     0.34471   0.97736   0.77395   0.00000  Uiso   1.00
H171   H     0.16766   0.91083   0.95364   0.00000  Uiso   1.00
H172   H     0.16679   0.03644   0.58534   0.00000  Uiso   1.00
H173   H     0.47639   0.96301   0.74721   0.00000  Uiso   1.00
H174   H     0.10304   0.82275   0.12606   0.00000  Uiso   1.00
H175   H     0.10121   0.08761   0.34943   0.00000  Uiso   1.00
O176   O     0.55639   0.89106   0.61946   0.00000  Uiso   1.00
O177   O     0.06657   0.70705   0.11649   0.00000  Uiso   1.00
O178   O     0.06417   0.05454   0.09757   0.00000  Uiso   1.00
N179   N     0.46349   0.84953   0.54721   0.00000  Uiso   1.00
N180   N     0.11445   0.71839   0.90142   0.00000  Uiso   1.00
N181   N     0.11272   0.96600   0.17535   0.00000  Uiso   1.00
N182   N     0.46115   0.92870   0.68684   0.00000  Uiso   1.00
N183   N     0.11211   0.79756   0.04105   0.00000  Uiso   1.00
N184   N     0.11038   0.04518   0.31499   0.00000  Uiso   1.00
C185   C     0.66231   0.26955   0.02899   0.00000  Uiso   1.00
C186   C     0.63970   0.20590   0.06812   0.00000  Uiso   1.00
C187   C     0.66479   0.15107   0.02325   0.00000  Uiso   1.00
C188   C     0.63749   0.09773   0.07079   0.00000  Uiso   1.00
C189   C     0.61008   0.99866   0.11803   0.00000  Uiso   1.00
C190   C     0.67584   0.30209   0.16576   0.00000  Uiso   1.00
C191   C     0.73132   0.32815   0.20297   0.00000  Uiso   1.00
C192   C     0.73445   0.35578   0.33269   0.00000  Uiso   1.00
C193   C     0.76315   0.40610   0.53148   0.00000  Uiso   1.00
C194   C     0.60760   0.30255   0.96564   0.00000  Uiso   1.00
C195   C     0.60570   0.32902   0.83461   0.00000  Uiso   1.00
C196   C     0.55137   0.35707   0.79587   0.00000  Uiso   1.00
C197   C     0.47411   0.40810   0.68395   0.00000  Uiso   1.00
C198   C     0.56921   0.27230   0.19320   0.00000  Uiso   1.00
C199   C     0.58913   0.20739   0.15731   0.00000  Uiso   1.00
C200   C     0.56178   0.15412   0.20493   0.00000  Uiso   1.00
C201   C     0.58682   0.09923   0.16014   0.00000  Uiso   1.00
C202   C     0.62527   0.30358   0.25495   0.00000  Uiso   1.00
C203   C     0.62831   0.33119   0.38465   0.00000  Uiso   1.00
C204   C     0.68378   0.35728   0.42205   0.00000  Uiso   1.00
C205   C     0.55703   0.30405   0.05483   0.00000  Uiso   1.00
C206   C     0.50269   0.33206   0.01629   0.00000  Uiso   1.00
C207   C     0.50071   0.35856   0.88523   0.00000  Uiso   1.00
H208   H     0.70168   0.26839   0.95956   0.00000  Uiso   1.00
H209   H     0.70393   0.14993   0.95423   0.00000  Uiso   1.00
H210   H     0.77045   0.32699   0.13392   0.00000  Uiso   1.00
H211   H     0.64484   0.32786   0.76562   0.00000  Uiso   1.00
H212   H     0.68412   0.01927   0.98771   0.00000  Uiso   1.00
H213   H     0.82438   0.39261   0.36656   0.00000  Uiso   1.00
H214   H     0.55952   0.39445   0.58993   0.00000  Uiso   1.00
H215   H     0.52983   0.27347   0.26265   0.00000  Uiso   1.00
H216   H     0.52264   0.15529   0.27395   0.00000  Uiso   1.00
H217   H     0.58917   0.33234   0.45364   0.00000  Uiso   1.00
H218   H     0.46356   0.33321   0.08534   0.00000  Uiso   1.00
H219   H     0.53699   0.02361   0.24721   0.00000  Uiso   1.00
H220   H     0.67725   0.39696   0.62606   0.00000  Uiso   1.00
H221   H     0.41239   0.39879   0.84943   0.00000  Uiso   1.00
O222   O     0.60894   0.94361   0.11946   0.00000  Uiso   1.00
O223   O     0.79295   0.43343   0.61649   0.00000  Uiso   1.00
O224   O     0.44546   0.43583   0.59757   0.00000  Uiso   1.00
N225   N     0.65047   0.03651   0.04721   0.00000  Uiso   1.00
N226   N     0.78161   0.38555   0.40142   0.00000  Uiso   1.00
N227   N     0.53400   0.38728   0.67535   0.00000  Uiso   1.00
N228   N     0.57130   0.03885   0.18684   0.00000  Uiso   1.00
N229   N     0.70244   0.38789   0.54105   0.00000  Uiso   1.00
N230   N     0.45482   0.38962   0.81499   0.00000  Uiso   1.00
C231   C     0.33769   0.73045   0.02899   0.00000  Uiso   1.00
C232   C     0.36030   0.79410   0.06812   0.00000  Uiso   1.00
C233   C     0.33521   0.84893   0.02325   0.00000  Uiso   1.00
C234   C     0.36251   0.90227   0.07079   0.00000  Uiso   1.00
C235   C     0.38992   0.00134   0.11803   0.00000  Uiso   1.00
C236   C     0.32416   0.69791   0.16576   0.00000  Uiso   1.00
C237   C     0.26868   0.67185   0.20297   0.00000  Uiso   1.00
C238   C     0.26555   0.64422   0.33269   0.00000  Uiso   1.00
C239   C     0.23685   0.59390   0.53148   0.00000  Uiso   1.00
C240   C     0.39240   0.69745   0.96564   0.00000  Uiso   1.00
C241   C     0.39430   0.67098   0.83461   0.00000  Uiso   1.00
C242   C     0.44863   0.64293   0.79587   0.00000  Uiso   1.00
C243   C     0.52589   0.59190   0.68395   0.00000  Uiso   1.00
C244   C     0.43079   0.72770   0.19320   0.00000  Uiso   1.00
C245   C     0.41087   0.79261   0.15731   0.00000  Uiso   1.00
C246   C     0.43822   0.84588   0.20493   0.00000  Uiso   1.00
C247   C     0.41318   0.90077   0.16014   0.00000  Uiso   1.00
C248   C     0.37473   0.69642   0.25495   0.00000  Uiso   1.00
C249   C     0.37169   0.66881   0.38465   0.00000  Uiso   1.00
C250   C     0.31622   0.64272   0.42205   0.00000  Uiso   1.00
C251   C     0.44297   0.69595   0.05483   0.00000  Uiso   1.00
C252   C     0.49731   0.66794   0.01629   0.00000  Uiso   1.00
C253   C     0.49929   0.64144   0.88523   0.00000  Uiso   1.00
H254   H     0.29832   0.73161   0.95956   0.00000  Uiso   1.00
H255   H     0.29607   0.85007   0.95423   0.00000  Uiso   1.00
H256   H     0.22955   0.67301   0.13392   0.00000  Uiso   1.00
H257   H     0.35516   0.67214   0.76562   0.00000  Uiso   1.00
H258   H     0.31588   0.98073   0.98771   0.00000  Uiso   1.00
H259   H     0.17562   0.60739   0.36656   0.00000  Uiso   1.00
H260   H     0.44048   0.60555   0.58993   0.00000  Uiso   1.00
H261   H     0.47017   0.72653   0.26265   0.00000  Uiso   1.00
H262   H     0.47736   0.84471   0.27395   0.00000  Uiso   1.00
H263   H     0.41083   0.66766   0.45364   0.00000  Uiso   1.00
H264   H     0.53644   0.66679   0.08534   0.00000  Uiso   1.00
H265   H     0.46301   0.97639   0.24721   0.00000  Uiso   1.00
H266   H     0.32275   0.60304   0.62606   0.00000  Uiso   1.00
H267   H     0.58761   0.60121   0.84943   0.00000  Uiso   1.00
O268   O     0.39106   0.05639   0.11946   0.00000  Uiso   1.00
O269   O     0.20705   0.56657   0.61649   0.00000  Uiso   1.00
O270   O     0.55454   0.56417   0.59757   0.00000  Uiso   1.00
N271   N     0.34953   0.96349   0.04721   0.00000  Uiso   1.00
N272   N     0.21839   0.61445   0.40142   0.00000  Uiso   1.00
N273   N     0.46600   0.61272   0.67535   0.00000  Uiso   1.00
N274   N     0.42870   0.96115   0.18684   0.00000  Uiso   1.00
N275   N     0.29756   0.61211   0.54105   0.00000  Uiso   1.00
N276   N     0.54518   0.61038   0.81499   0.00000  Uiso   1.00
C277   C     0.73045   0.66231   0.97101   0.00000  Uiso   1.00
C278   C     0.79410   0.63970   0.93188   0.00000  Uiso   1.00
C279   C     0.84893   0.66479   0.97675   0.00000  Uiso   1.00
C280   C     0.90227   0.63749   0.92921   0.00000  Uiso   1.00
C281   C     0.00134   0.61008   0.88197   0.00000  Uiso   1.00
C282   C     0.69791   0.67584   0.83424   0.00000  Uiso   1.00
C283   C     0.67185   0.73132   0.79703   0.00000  Uiso   1.00
C284   C     0.64422   0.73445   0.66731   0.00000  Uiso   1.00
C285   C     0.59390   0.76315   0.46852   0.00000  Uiso   1.00
C286   C     0.69745   0.60760   0.03436   0.00000  Uiso   1.00
C287   C     0.67098   0.60570   0.16539   0.00000  Uiso   1.00
C288   C     0.64293   0.55137   0.20413   0.00000  Uiso   1.00
C289   C     0.59190   0.47411   0.31605   0.00000  Uiso   1.00
C290   C     0.72770   0.56921   0.80680   0.00000  Uiso   1.00
C291   C     0.79261   0.58913   0.84269   0.00000  Uiso   1.00
C292   C     0.84588   0.56178   0.79507   0.00000  Uiso   1.00
C293   C     0.90077   0.58682   0.83986   0.00000  Uiso   1.00
C294   C     0.69642   0.62527   0.74505   0.00000  Uiso   1.00
C295   C     0.66881   0.62831   0.61535   0.00000  Uiso   1.00
C296   C     0.64272   0.68378   0.57795   0.00000  Uiso   1.00
C297   C     0.69595   0.55703   0.94517   0.00000  Uiso   1.00
C298   C     0.66794   0.50269   0.98371   0.00000  Uiso   1.00
C299   C     0.64144   0.50071   0.11477   0.00000  Uiso   1.00
H300   H     0.73161   0.70168   0.04044   0.00000  Uiso   1.00
H301   H     0.85007   0.70393   0.04577   0.00000  Uiso   1.00
H302   H     0.67301   0.77045   0.86608   0.00000  Uiso   1.00
H303   H     0.67214   0.64484   0.23438   0.00000  Uiso   1.00
H304   H     0.98073   0.68412   0.01229   0.00000  Uiso   1.00
H305   H     0.60739   0.82438   0.63344   0.00000  Uiso   1.00
H306   H     0.60555   0.55952   0.41007   0.00000  Uiso   1.00
H307   H     0.72653   0.52983   0.73735   0.00000  Uiso   1.00
H308   H     0.84471   0.52264   0.72605   0.00000  Uiso   1.00
H309   H     0.66766   0.58917   0.54636   0.00000  Uiso   1.00
H310   H     0.66679   0.46356   0.91466   0.00000  Uiso   1.00
H311   H     0.97639   0.53699   0.75279   0.00000  Uiso   1.00
H312   H     0.60304   0.67725   0.37394   0.00000  Uiso   1.00
H313   H     0.60121   0.41239   0.15057   0.00000  Uiso   1.00
O314   O     0.05639   0.60894   0.88054   0.00000  Uiso   1.00
O315   O     0.56657   0.79295   0.38351   0.00000  Uiso   1.00
O316   O     0.56417   0.44546   0.40243   0.00000  Uiso   1.00
N317   N     0.96349   0.65047   0.95279   0.00000  Uiso   1.00
N318   N     0.61445   0.78161   0.59858   0.00000  Uiso   1.00
N319   N     0.61272   0.53400   0.32465   0.00000  Uiso   1.00
N320   N     0.96115   0.57130   0.81316   0.00000  Uiso   1.00
N321   N     0.61211   0.70244   0.45895   0.00000  Uiso   1.00
N322   N     0.61038   0.45482   0.18501   0.00000  Uiso   1.00
C323   C     0.26955   0.33769   0.97101   0.00000  Uiso   1.00
C324   C     0.20590   0.36030   0.93188   0.00000  Uiso   1.00
C325   C     0.15107   0.33521   0.97675   0.00000  Uiso   1.00
C326   C     0.09773   0.36251   0.92921   0.00000  Uiso   1.00
C327   C     0.99866   0.38992   0.88197   0.00000  Uiso   1.00
C328   C     0.30209   0.32416   0.83424   0.00000  Uiso   1.00
C329   C     0.32815   0.26868   0.79703   0.00000  Uiso   1.00
C330   C     0.35578   0.26555   0.66731   0.00000  Uiso   1.00
C331   C     0.40610   0.23685   0.46852   0.00000  Uiso   1.00
C332   C     0.30255   0.39240   0.03436   0.00000  Uiso   1.00
C333   C     0.32902   0.39430   0.16539   0.00000  Uiso   1.00
C334   C     0.35707   0.44863   0.20413   0.00000  Uiso   1.00
C335   C     0.40810   0.52589   0.31605   0.00000  Uiso   1.00
C336   C     0.27230   0.43079   0.80680   0.00000  Uiso   1.00
C337   C     0.20739   0.41087   0.84269   0.00000  Uiso   1.00
C338   C     0.15412   0.43822   0.79507   0.00000  Uiso   1.00
C339   C     0.09923   0.41318   0.83986   0.00000  Uiso   1.00
C340   C     0.30358   0.37473   0.74505   0.00000  Uiso   1.00
C341   C     0.33119   0.37169   0.61535   0.00000  Uiso   1.00
C342   C     0.35728   0.31622   0.57795   0.00000  Uiso   1.00
C343   C     0.30405   0.44297   0.94517   0.00000  Uiso   1.00
C344   C     0.33206   0.49731   0.98371   0.00000  Uiso   1.00
C345   C     0.35856   0.49929   0.11477   0.00000  Uiso   1.00
H346   H     0.26839   0.29832   0.04044   0.00000  Uiso   1.00
H347   H     0.14993   0.29607   0.04577   0.00000  Uiso   1.00
H348   H     0.32699   0.22955   0.86608   0.00000  Uiso   1.00
H349   H     0.32786   0.35516   0.23438   0.00000  Uiso   1.00
H350   H     0.01927   0.31588   0.01229   0.00000  Uiso   1.00
H351   H     0.39261   0.17562   0.63344   0.00000  Uiso   1.00
H352   H     0.39445   0.44048   0.41007   0.00000  Uiso   1.00
H353   H     0.27347   0.47017   0.73735   0.00000  Uiso   1.00
H354   H     0.15529   0.47736   0.72605   0.00000  Uiso   1.00
H355   H     0.33234   0.41083   0.54636   0.00000  Uiso   1.00
H356   H     0.33321   0.53644   0.91466   0.00000  Uiso   1.00
H357   H     0.02361   0.46301   0.75279   0.00000  Uiso   1.00
H358   H     0.39696   0.32275   0.37394   0.00000  Uiso   1.00
H359   H     0.39879   0.58761   0.15057   0.00000  Uiso   1.00
O360   O     0.94361   0.39106   0.88054   0.00000  Uiso   1.00
O361   O     0.43343   0.20705   0.38351   0.00000  Uiso   1.00
O362   O     0.43583   0.55454   0.40243   0.00000  Uiso   1.00
N363   N     0.03651   0.34953   0.95279   0.00000  Uiso   1.00
N364   N     0.38555   0.21839   0.59858   0.00000  Uiso   1.00
N365   N     0.38728   0.46600   0.32465   0.00000  Uiso   1.00
N366   N     0.03885   0.42870   0.81316   0.00000  Uiso   1.00
N367   N     0.38789   0.29756   0.45895   0.00000  Uiso   1.00
N368   N     0.38962   0.54518   0.18501   0.00000  Uiso   1.00
