data_job_02397
_audit_creation_date              2018-12-19
_audit_creation_method            'Materials Studio'
_symmetry_space_group_name_H-M    'P1'
_symmetry_Int_Tables_number       1
_symmetry_cell_setting            triclinic
loop_
_symmetry_equiv_pos_as_xyz
  x,y,z
_cell_length_a                    17.1597
_cell_length_b                    29.0386
_cell_length_c                    10.3717
_cell_angle_alpha                 90.0000
_cell_angle_beta                  90.0000
_cell_angle_gamma                 90.0000
loop_
_atom_site_label
_atom_site_type_symbol
_atom_site_fract_x
_atom_site_fract_y
_atom_site_fract_z
_atom_site_U_iso_or_equiv
_atom_site_adp_type
_atom_site_occupancy
C1     C     0.10528   0.35724   0.32839   0.00000  Uiso   1.00
C2     C     0.06473   0.31312   0.37154   0.00000  Uiso   1.00
C3     C     0.07593   0.26971   0.31873   0.00000  Uiso   1.00
C4     C     0.03330   0.23376   0.37175   0.00000  Uiso   1.00
C5     C     0.97821   0.16416   0.42317   0.00000  Uiso   1.00
C6     C     0.04048   0.39107   0.29444   0.00000  Uiso   1.00
C7     C     0.03129   0.41319   0.17681   0.00000  Uiso   1.00
C8     C     0.96824   0.44286   0.16494   0.00000  Uiso   1.00
C9     C     0.87553   0.49429   0.09669   0.00000  Uiso   1.00
C10    C     0.14508   0.37667   0.44805   0.00000  Uiso   1.00
C11    C     0.22385   0.38670   0.45958   0.00000  Uiso   1.00
C12    C     0.24887   0.40426   0.57702   0.00000  Uiso   1.00
C13    C     0.31857   0.43334   0.74728   0.00000  Uiso   1.00
C14    C     0.00964   0.37058   0.51645   0.00000  Uiso   1.00
C15    C     0.01279   0.32037   0.47369   0.00000  Uiso   1.00
C16    C     0.97012   0.28447   0.52680   0.00000  Uiso   1.00
C17    C     0.98126   0.24102   0.47408   0.00000  Uiso   1.00
C18    C     0.98853   0.39831   0.39658   0.00000  Uiso   1.00
C19    C     0.92548   0.42795   0.38488   0.00000  Uiso   1.00
C20    C     0.91620   0.45012   0.26726   0.00000  Uiso   1.00
C21    C     0.09314   0.38391   0.55020   0.00000  Uiso   1.00
C22    C     0.11804   0.40146   0.66765   0.00000  Uiso   1.00
C23    C     0.19683   0.41152   0.67935   0.00000  Uiso   1.00
H24    H     0.14572   0.35160   0.24886   0.00000  Uiso   1.00
H25    H     0.11613   0.26412   0.23968   0.00000  Uiso   1.00
H26    H     0.07150   0.40758   0.09779   0.00000  Uiso   1.00
H27    H     0.26403   0.38109   0.38051   0.00000  Uiso   1.00
H28    H     0.06040   0.17033   0.27451   0.00000  Uiso   1.00
H29    H     0.96632   0.47284   0.97534   0.00000  Uiso   1.00
H30    H     0.37229   0.41699   0.57151   0.00000  Uiso   1.00
H31    H     0.96920   0.37622   0.59598   0.00000  Uiso   1.00
H32    H     0.92993   0.29009   0.60585   0.00000  Uiso   1.00
H33    H     0.88530   0.43355   0.46395   0.00000  Uiso   1.00
H34    H     0.07782   0.40706   0.74667   0.00000  Uiso   1.00
H35    H     0.90927   0.19141   0.57170   0.00000  Uiso   1.00
H36    H     0.81519   0.49392   0.27253   0.00000  Uiso   1.00
H37    H     0.22116   0.43807   0.86871   0.00000  Uiso   1.00
O38    O     0.96217   0.12377   0.42330   0.00000  Uiso   1.00
O39    O     0.83874   0.52066   0.03082   0.00000  Uiso   1.00
O40    O     0.37137   0.44737   0.81298   0.00000  Uiso   1.00
N41    N     0.03023   0.18711   0.34312   0.00000  Uiso   1.00
N42    N     0.94226   0.46993   0.06341   0.00000  Uiso   1.00
N43    N     0.32181   0.41773   0.62076   0.00000  Uiso   1.00
N44    N     0.94891   0.19846   0.50303   0.00000  Uiso   1.00
N45    N     0.86094   0.48128   0.22332   0.00000  Uiso   1.00
N46    N     0.24049   0.42907   0.78068   0.00000  Uiso   1.00
C47    C     0.39472   0.64276   0.82839   0.00000  Uiso   1.00
C48    C     0.43527   0.68688   0.87154   0.00000  Uiso   1.00
C49    C     0.42407   0.73029   0.81873   0.00000  Uiso   1.00
C50    C     0.46670   0.76624   0.87175   0.00000  Uiso   1.00
C51    C     0.52179   0.83584   0.92317   0.00000  Uiso   1.00
C52    C     0.45952   0.60893   0.79444   0.00000  Uiso   1.00
C53    C     0.46871   0.58681   0.67681   0.00000  Uiso   1.00
C54    C     0.53176   0.55714   0.66494   0.00000  Uiso   1.00
C55    C     0.62447   0.50571   0.59669   0.00000  Uiso   1.00
C56    C     0.35492   0.62333   0.94805   0.00000  Uiso   1.00
C57    C     0.27615   0.61330   0.95958   0.00000  Uiso   1.00
C58    C     0.25113   0.59574   0.07702   0.00000  Uiso   1.00
C59    C     0.18143   0.56666   0.24728   0.00000  Uiso   1.00
C60    C     0.49036   0.62942   0.01645   0.00000  Uiso   1.00
C61    C     0.48721   0.67963   0.97369   0.00000  Uiso   1.00
C62    C     0.52988   0.71553   0.02680   0.00000  Uiso   1.00
C63    C     0.51874   0.75898   0.97408   0.00000  Uiso   1.00
C64    C     0.51147   0.60169   0.89658   0.00000  Uiso   1.00
C65    C     0.57452   0.57205   0.88488   0.00000  Uiso   1.00
C66    C     0.58380   0.54988   0.76726   0.00000  Uiso   1.00
C67    C     0.40686   0.61609   0.05020   0.00000  Uiso   1.00
C68    C     0.38196   0.59854   0.16765   0.00000  Uiso   1.00
C69    C     0.30317   0.58848   0.17935   0.00000  Uiso   1.00
H70    H     0.35428   0.64840   0.74886   0.00000  Uiso   1.00
H71    H     0.38387   0.73588   0.73968   0.00000  Uiso   1.00
H72    H     0.42850   0.59242   0.59779   0.00000  Uiso   1.00
H73    H     0.23597   0.61891   0.88051   0.00000  Uiso   1.00
H74    H     0.43960   0.82967   0.77451   0.00000  Uiso   1.00
H75    H     0.53368   0.52716   0.47534   0.00000  Uiso   1.00
H76    H     0.12771   0.58301   0.07151   0.00000  Uiso   1.00
H77    H     0.53080   0.62378   0.09598   0.00000  Uiso   1.00
H78    H     0.57007   0.70991   0.10585   0.00000  Uiso   1.00
H79    H     0.61470   0.56645   0.96395   0.00000  Uiso   1.00
H80    H     0.42218   0.59294   0.24667   0.00000  Uiso   1.00
H81    H     0.59073   0.80859   0.07170   0.00000  Uiso   1.00
H82    H     0.68481   0.50608   0.77253   0.00000  Uiso   1.00
H83    H     0.27884   0.56193   0.36871   0.00000  Uiso   1.00
O84    O     0.53783   0.87623   0.92330   0.00000  Uiso   1.00
O85    O     0.66126   0.47934   0.53082   0.00000  Uiso   1.00
O86    O     0.12863   0.55263   0.31298   0.00000  Uiso   1.00
N87    N     0.46977   0.81289   0.84312   0.00000  Uiso   1.00
N88    N     0.55774   0.53007   0.56341   0.00000  Uiso   1.00
N89    N     0.17819   0.58227   0.12076   0.00000  Uiso   1.00
N90    N     0.55109   0.80154   0.00303   0.00000  Uiso   1.00
N91    N     0.63906   0.51872   0.72332   0.00000  Uiso   1.00
N92    N     0.25951   0.57093   0.28068   0.00000  Uiso   1.00
C93    C     0.89472   0.85724   0.17161   0.00000  Uiso   1.00
C94    C     0.93527   0.81312   0.12846   0.00000  Uiso   1.00
C95    C     0.92407   0.76971   0.18127   0.00000  Uiso   1.00
C96    C     0.96670   0.73376   0.12825   0.00000  Uiso   1.00
C97    C     0.02179   0.66416   0.07683   0.00000  Uiso   1.00
C98    C     0.95952   0.89107   0.20556   0.00000  Uiso   1.00
C99    C     0.96871   0.91319   0.32319   0.00000  Uiso   1.00
C100   C     0.03176   0.94286   0.33506   0.00000  Uiso   1.00
C101   C     0.12447   0.99429   0.40331   0.00000  Uiso   1.00
C102   C     0.85492   0.87667   0.05195   0.00000  Uiso   1.00
C103   C     0.77615   0.88670   0.04042   0.00000  Uiso   1.00
C104   C     0.75113   0.90426   0.92298   0.00000  Uiso   1.00
C105   C     0.68143   0.93334   0.75272   0.00000  Uiso   1.00
C106   C     0.99036   0.87058   0.98355   0.00000  Uiso   1.00
C107   C     0.98721   0.82037   0.02631   0.00000  Uiso   1.00
C108   C     0.02988   0.78447   0.97320   0.00000  Uiso   1.00
C109   C     0.01874   0.74102   0.02592   0.00000  Uiso   1.00
C110   C     0.01147   0.89831   0.10342   0.00000  Uiso   1.00
C111   C     0.07452   0.92795   0.11512   0.00000  Uiso   1.00
C112   C     0.08380   0.95012   0.23274   0.00000  Uiso   1.00
C113   C     0.90686   0.88391   0.94980   0.00000  Uiso   1.00
C114   C     0.88196   0.90146   0.83235   0.00000  Uiso   1.00
C115   C     0.80317   0.91152   0.82065   0.00000  Uiso   1.00
H116   H     0.85428   0.85160   0.25114   0.00000  Uiso   1.00
H117   H     0.88387   0.76412   0.26032   0.00000  Uiso   1.00
H118   H     0.92850   0.90758   0.40221   0.00000  Uiso   1.00
H119   H     0.73597   0.88109   0.11949   0.00000  Uiso   1.00
H120   H     0.93960   0.67033   0.22549   0.00000  Uiso   1.00
H121   H     0.03368   0.97284   0.52466   0.00000  Uiso   1.00
H122   H     0.62771   0.91699   0.92849   0.00000  Uiso   1.00
H123   H     0.03080   0.87622   0.90402   0.00000  Uiso   1.00
H124   H     0.07007   0.79009   0.89415   0.00000  Uiso   1.00
H125   H     0.11470   0.93355   0.03605   0.00000  Uiso   1.00
H126   H     0.92218   0.90706   0.75333   0.00000  Uiso   1.00
H127   H     0.09073   0.69141   0.92830   0.00000  Uiso   1.00
H128   H     0.18481   0.99392   0.22747   0.00000  Uiso   1.00
H129   H     0.77884   0.93807   0.63129   0.00000  Uiso   1.00
O130   O     0.03783   0.62377   0.07670   0.00000  Uiso   1.00
O131   O     0.16126   0.02066   0.46918   0.00000  Uiso   1.00
O132   O     0.62863   0.94737   0.68702   0.00000  Uiso   1.00
N133   N     0.96977   0.68711   0.15688   0.00000  Uiso   1.00
N134   N     0.05774   0.96993   0.43659   0.00000  Uiso   1.00
N135   N     0.67819   0.91773   0.87924   0.00000  Uiso   1.00
N136   N     0.05109   0.69846   0.99697   0.00000  Uiso   1.00
N137   N     0.13906   0.98128   0.27668   0.00000  Uiso   1.00
N138   N     0.75951   0.92907   0.71932   0.00000  Uiso   1.00
C139   C     0.60528   0.14276   0.67161   0.00000  Uiso   1.00
C140   C     0.56473   0.18688   0.62846   0.00000  Uiso   1.00
C141   C     0.57593   0.23029   0.68127   0.00000  Uiso   1.00
C142   C     0.53330   0.26624   0.62825   0.00000  Uiso   1.00
C143   C     0.47821   0.33584   0.57683   0.00000  Uiso   1.00
C144   C     0.54048   0.10893   0.70556   0.00000  Uiso   1.00
C145   C     0.53129   0.08681   0.82319   0.00000  Uiso   1.00
C146   C     0.46824   0.05714   0.83506   0.00000  Uiso   1.00
C147   C     0.37553   0.00571   0.90331   0.00000  Uiso   1.00
C148   C     0.64508   0.12333   0.55195   0.00000  Uiso   1.00
C149   C     0.72385   0.11330   0.54042   0.00000  Uiso   1.00
C150   C     0.74887   0.09574   0.42298   0.00000  Uiso   1.00
C151   C     0.81857   0.06666   0.25272   0.00000  Uiso   1.00
C152   C     0.50964   0.12942   0.48355   0.00000  Uiso   1.00
C153   C     0.51279   0.17963   0.52631   0.00000  Uiso   1.00
C154   C     0.47012   0.21553   0.47320   0.00000  Uiso   1.00
C155   C     0.48126   0.25898   0.52592   0.00000  Uiso   1.00
C156   C     0.48853   0.10169   0.60342   0.00000  Uiso   1.00
C157   C     0.42548   0.07205   0.61512   0.00000  Uiso   1.00
C158   C     0.41620   0.04988   0.73274   0.00000  Uiso   1.00
C159   C     0.59314   0.11609   0.44980   0.00000  Uiso   1.00
C160   C     0.61804   0.09854   0.33235   0.00000  Uiso   1.00
C161   C     0.69683   0.08848   0.32065   0.00000  Uiso   1.00
H162   H     0.64572   0.14840   0.75114   0.00000  Uiso   1.00
H163   H     0.61613   0.23588   0.76032   0.00000  Uiso   1.00
H164   H     0.57150   0.09242   0.90221   0.00000  Uiso   1.00
H165   H     0.76403   0.11891   0.61949   0.00000  Uiso   1.00
H166   H     0.56040   0.32967   0.72549   0.00000  Uiso   1.00
H167   H     0.46632   0.02716   0.02466   0.00000  Uiso   1.00
H168   H     0.87229   0.08301   0.42849   0.00000  Uiso   1.00
H169   H     0.46920   0.12378   0.40402   0.00000  Uiso   1.00
H170   H     0.42993   0.20991   0.39415   0.00000  Uiso   1.00
H171   H     0.38530   0.06645   0.53605   0.00000  Uiso   1.00
H172   H     0.57782   0.09294   0.25333   0.00000  Uiso   1.00
H173   H     0.40927   0.30859   0.42830   0.00000  Uiso   1.00
H174   H     0.31519   0.00608   0.72747   0.00000  Uiso   1.00
H175   H     0.72116   0.06193   0.13129   0.00000  Uiso   1.00
O176   O     0.46217   0.37623   0.57670   0.00000  Uiso   1.00
O177   O     0.33874   0.97934   0.96918   0.00000  Uiso   1.00
O178   O     0.87137   0.05263   0.18702   0.00000  Uiso   1.00
N179   N     0.53023   0.31289   0.65688   0.00000  Uiso   1.00
N180   N     0.44226   0.03007   0.93659   0.00000  Uiso   1.00
N181   N     0.82181   0.08227   0.37924   0.00000  Uiso   1.00
N182   N     0.44891   0.30154   0.49697   0.00000  Uiso   1.00
N183   N     0.36094   0.01872   0.77668   0.00000  Uiso   1.00
N184   N     0.74049   0.07093   0.21932   0.00000  Uiso   1.00
C185   C     0.89472   0.64276   0.67161   0.00000  Uiso   1.00
C186   C     0.93527   0.68688   0.62846   0.00000  Uiso   1.00
C187   C     0.92407   0.73029   0.68127   0.00000  Uiso   1.00
C188   C     0.96670   0.76624   0.62825   0.00000  Uiso   1.00
C189   C     0.02179   0.83584   0.57683   0.00000  Uiso   1.00
C190   C     0.95952   0.60893   0.70556   0.00000  Uiso   1.00
C191   C     0.96871   0.58681   0.82319   0.00000  Uiso   1.00
C192   C     0.03176   0.55714   0.83506   0.00000  Uiso   1.00
C193   C     0.12447   0.50571   0.90331   0.00000  Uiso   1.00
C194   C     0.85492   0.62333   0.55195   0.00000  Uiso   1.00
C195   C     0.77615   0.61330   0.54042   0.00000  Uiso   1.00
C196   C     0.75113   0.59574   0.42298   0.00000  Uiso   1.00
C197   C     0.68143   0.56666   0.25272   0.00000  Uiso   1.00
C198   C     0.99036   0.62942   0.48355   0.00000  Uiso   1.00
C199   C     0.98721   0.67963   0.52631   0.00000  Uiso   1.00
C200   C     0.02988   0.71553   0.47320   0.00000  Uiso   1.00
C201   C     0.01874   0.75898   0.52592   0.00000  Uiso   1.00
C202   C     0.01147   0.60169   0.60342   0.00000  Uiso   1.00
C203   C     0.07452   0.57205   0.61512   0.00000  Uiso   1.00
C204   C     0.08380   0.54988   0.73274   0.00000  Uiso   1.00
C205   C     0.90686   0.61609   0.44980   0.00000  Uiso   1.00
C206   C     0.88196   0.59854   0.33235   0.00000  Uiso   1.00
C207   C     0.80317   0.58848   0.32065   0.00000  Uiso   1.00
H208   H     0.85428   0.64840   0.75114   0.00000  Uiso   1.00
H209   H     0.88387   0.73588   0.76032   0.00000  Uiso   1.00
H210   H     0.92850   0.59242   0.90221   0.00000  Uiso   1.00
H211   H     0.73597   0.61891   0.61949   0.00000  Uiso   1.00
H212   H     0.93960   0.82967   0.72549   0.00000  Uiso   1.00
H213   H     0.03368   0.52716   0.02466   0.00000  Uiso   1.00
H214   H     0.62771   0.58301   0.42849   0.00000  Uiso   1.00
H215   H     0.03080   0.62378   0.40402   0.00000  Uiso   1.00
H216   H     0.07007   0.70991   0.39415   0.00000  Uiso   1.00
H217   H     0.11470   0.56645   0.53605   0.00000  Uiso   1.00
H218   H     0.92218   0.59294   0.25333   0.00000  Uiso   1.00
H219   H     0.09073   0.80859   0.42830   0.00000  Uiso   1.00
H220   H     0.18481   0.50608   0.72747   0.00000  Uiso   1.00
H221   H     0.77884   0.56193   0.13129   0.00000  Uiso   1.00
O222   O     0.03783   0.87623   0.57670   0.00000  Uiso   1.00
O223   O     0.16126   0.47934   0.96918   0.00000  Uiso   1.00
O224   O     0.62863   0.55263   0.18702   0.00000  Uiso   1.00
N225   N     0.96977   0.81289   0.65688   0.00000  Uiso   1.00
N226   N     0.05774   0.53007   0.93659   0.00000  Uiso   1.00
N227   N     0.67819   0.58227   0.37924   0.00000  Uiso   1.00
N228   N     0.05109   0.80154   0.49697   0.00000  Uiso   1.00
N229   N     0.13906   0.51872   0.77668   0.00000  Uiso   1.00
N230   N     0.75951   0.57093   0.21932   0.00000  Uiso   1.00
C231   C     0.60528   0.35724   0.17161   0.00000  Uiso   1.00
C232   C     0.56473   0.31312   0.12846   0.00000  Uiso   1.00
C233   C     0.57593   0.26971   0.18127   0.00000  Uiso   1.00
C234   C     0.53330   0.23376   0.12825   0.00000  Uiso   1.00
C235   C     0.47821   0.16416   0.07683   0.00000  Uiso   1.00
C236   C     0.54048   0.39107   0.20556   0.00000  Uiso   1.00
C237   C     0.53129   0.41319   0.32319   0.00000  Uiso   1.00
C238   C     0.46824   0.44286   0.33506   0.00000  Uiso   1.00
C239   C     0.37553   0.49429   0.40331   0.00000  Uiso   1.00
C240   C     0.64508   0.37667   0.05195   0.00000  Uiso   1.00
C241   C     0.72385   0.38670   0.04042   0.00000  Uiso   1.00
C242   C     0.74887   0.40426   0.92298   0.00000  Uiso   1.00
C243   C     0.81857   0.43334   0.75272   0.00000  Uiso   1.00
C244   C     0.50964   0.37058   0.98355   0.00000  Uiso   1.00
C245   C     0.51279   0.32037   0.02631   0.00000  Uiso   1.00
C246   C     0.47012   0.28447   0.97320   0.00000  Uiso   1.00
C247   C     0.48126   0.24102   0.02592   0.00000  Uiso   1.00
C248   C     0.48853   0.39831   0.10342   0.00000  Uiso   1.00
C249   C     0.42548   0.42795   0.11512   0.00000  Uiso   1.00
C250   C     0.41620   0.45012   0.23274   0.00000  Uiso   1.00
C251   C     0.59314   0.38391   0.94980   0.00000  Uiso   1.00
C252   C     0.61804   0.40146   0.83235   0.00000  Uiso   1.00
C253   C     0.69683   0.41152   0.82065   0.00000  Uiso   1.00
H254   H     0.64572   0.35160   0.25114   0.00000  Uiso   1.00
H255   H     0.61613   0.26412   0.26032   0.00000  Uiso   1.00
H256   H     0.57150   0.40758   0.40221   0.00000  Uiso   1.00
H257   H     0.76403   0.38109   0.11949   0.00000  Uiso   1.00
H258   H     0.56040   0.17033   0.22549   0.00000  Uiso   1.00
H259   H     0.46632   0.47284   0.52466   0.00000  Uiso   1.00
H260   H     0.87229   0.41699   0.92849   0.00000  Uiso   1.00
H261   H     0.46920   0.37622   0.90402   0.00000  Uiso   1.00
H262   H     0.42993   0.29009   0.89415   0.00000  Uiso   1.00
H263   H     0.38530   0.43355   0.03605   0.00000  Uiso   1.00
H264   H     0.57782   0.40706   0.75333   0.00000  Uiso   1.00
H265   H     0.40927   0.19141   0.92830   0.00000  Uiso   1.00
H266   H     0.31519   0.49392   0.22747   0.00000  Uiso   1.00
H267   H     0.72116   0.43807   0.63129   0.00000  Uiso   1.00
O268   O     0.46217   0.12377   0.07670   0.00000  Uiso   1.00
O269   O     0.33874   0.52066   0.46918   0.00000  Uiso   1.00
O270   O     0.87137   0.44737   0.68702   0.00000  Uiso   1.00
N271   N     0.53023   0.18711   0.15688   0.00000  Uiso   1.00
N272   N     0.44226   0.46993   0.43659   0.00000  Uiso   1.00
N273   N     0.82181   0.41773   0.87924   0.00000  Uiso   1.00
N274   N     0.44891   0.19846   0.99697   0.00000  Uiso   1.00
N275   N     0.36094   0.48128   0.27668   0.00000  Uiso   1.00
N276   N     0.74049   0.42907   0.71932   0.00000  Uiso   1.00
C277   C     0.10528   0.14276   0.82839   0.00000  Uiso   1.00
C278   C     0.06473   0.18688   0.87154   0.00000  Uiso   1.00
C279   C     0.07593   0.23029   0.81873   0.00000  Uiso   1.00
C280   C     0.03330   0.26624   0.87175   0.00000  Uiso   1.00
C281   C     0.97821   0.33584   0.92317   0.00000  Uiso   1.00
C282   C     0.04048   0.10893   0.79444   0.00000  Uiso   1.00
C283   C     0.03129   0.08681   0.67681   0.00000  Uiso   1.00
C284   C     0.96824   0.05714   0.66494   0.00000  Uiso   1.00
C285   C     0.87553   0.00571   0.59669   0.00000  Uiso   1.00
C286   C     0.14508   0.12333   0.94805   0.00000  Uiso   1.00
C287   C     0.22385   0.11330   0.95958   0.00000  Uiso   1.00
C288   C     0.24887   0.09574   0.07702   0.00000  Uiso   1.00
C289   C     0.31857   0.06666   0.24728   0.00000  Uiso   1.00
C290   C     0.00964   0.12942   0.01645   0.00000  Uiso   1.00
C291   C     0.01279   0.17963   0.97369   0.00000  Uiso   1.00
C292   C     0.97012   0.21553   0.02680   0.00000  Uiso   1.00
C293   C     0.98126   0.25898   0.97408   0.00000  Uiso   1.00
C294   C     0.98853   0.10169   0.89658   0.00000  Uiso   1.00
C295   C     0.92548   0.07205   0.88488   0.00000  Uiso   1.00
C296   C     0.91620   0.04988   0.76726   0.00000  Uiso   1.00
C297   C     0.09314   0.11609   0.05020   0.00000  Uiso   1.00
C298   C     0.11804   0.09854   0.16765   0.00000  Uiso   1.00
C299   C     0.19683   0.08848   0.17935   0.00000  Uiso   1.00
H300   H     0.14572   0.14840   0.74886   0.00000  Uiso   1.00
H301   H     0.11613   0.23588   0.73968   0.00000  Uiso   1.00
H302   H     0.07150   0.09242   0.59779   0.00000  Uiso   1.00
H303   H     0.26403   0.11891   0.88051   0.00000  Uiso   1.00
H304   H     0.06040   0.32967   0.77451   0.00000  Uiso   1.00
H305   H     0.96632   0.02716   0.47534   0.00000  Uiso   1.00
H306   H     0.37229   0.08301   0.07151   0.00000  Uiso   1.00
H307   H     0.96920   0.12378   0.09598   0.00000  Uiso   1.00
H308   H     0.92993   0.20991   0.10585   0.00000  Uiso   1.00
H309   H     0.88530   0.06645   0.96395   0.00000  Uiso   1.00
H310   H     0.07782   0.09294   0.24667   0.00000  Uiso   1.00
H311   H     0.90927   0.30859   0.07170   0.00000  Uiso   1.00
H312   H     0.81519   0.00608   0.77253   0.00000  Uiso   1.00
H313   H     0.22116   0.06193   0.36871   0.00000  Uiso   1.00
O314   O     0.96217   0.37623   0.92330   0.00000  Uiso   1.00
O315   O     0.83874   0.97934   0.53082   0.00000  Uiso   1.00
O316   O     0.37137   0.05263   0.31298   0.00000  Uiso   1.00
N317   N     0.03023   0.31289   0.84312   0.00000  Uiso   1.00
N318   N     0.94226   0.03007   0.56341   0.00000  Uiso   1.00
N319   N     0.32181   0.08227   0.12076   0.00000  Uiso   1.00
N320   N     0.94891   0.30154   0.00303   0.00000  Uiso   1.00
N321   N     0.86094   0.01872   0.72332   0.00000  Uiso   1.00
N322   N     0.24049   0.07093   0.28068   0.00000  Uiso   1.00
C323   C     0.39472   0.85724   0.32839   0.00000  Uiso   1.00
C324   C     0.43527   0.81312   0.37154   0.00000  Uiso   1.00
C325   C     0.42407   0.76971   0.31873   0.00000  Uiso   1.00
C326   C     0.46670   0.73376   0.37175   0.00000  Uiso   1.00
C327   C     0.52179   0.66416   0.42317   0.00000  Uiso   1.00
C328   C     0.45952   0.89107   0.29444   0.00000  Uiso   1.00
C329   C     0.46871   0.91319   0.17681   0.00000  Uiso   1.00
C330   C     0.53176   0.94286   0.16494   0.00000  Uiso   1.00
C331   C     0.62447   0.99429   0.09669   0.00000  Uiso   1.00
C332   C     0.35492   0.87667   0.44805   0.00000  Uiso   1.00
C333   C     0.27615   0.88670   0.45958   0.00000  Uiso   1.00
C334   C     0.25113   0.90426   0.57702   0.00000  Uiso   1.00
C335   C     0.18143   0.93334   0.74728   0.00000  Uiso   1.00
C336   C     0.49036   0.87058   0.51645   0.00000  Uiso   1.00
C337   C     0.48721   0.82037   0.47369   0.00000  Uiso   1.00
C338   C     0.52988   0.78447   0.52680   0.00000  Uiso   1.00
C339   C     0.51874   0.74102   0.47408   0.00000  Uiso   1.00
C340   C     0.51147   0.89831   0.39658   0.00000  Uiso   1.00
C341   C     0.57452   0.92795   0.38488   0.00000  Uiso   1.00
C342   C     0.58380   0.95012   0.26726   0.00000  Uiso   1.00
C343   C     0.40686   0.88391   0.55020   0.00000  Uiso   1.00
C344   C     0.38196   0.90146   0.66765   0.00000  Uiso   1.00
C345   C     0.30317   0.91152   0.67935   0.00000  Uiso   1.00
H346   H     0.35428   0.85160   0.24886   0.00000  Uiso   1.00
H347   H     0.38387   0.76412   0.23968   0.00000  Uiso   1.00
H348   H     0.42850   0.90758   0.09779   0.00000  Uiso   1.00
H349   H     0.23597   0.88109   0.38051   0.00000  Uiso   1.00
H350   H     0.43960   0.67033   0.27451   0.00000  Uiso   1.00
H351   H     0.53368   0.97284   0.97534   0.00000  Uiso   1.00
H352   H     0.12771   0.91699   0.57151   0.00000  Uiso   1.00
H353   H     0.53080   0.87622   0.59598   0.00000  Uiso   1.00
H354   H     0.57007   0.79009   0.60585   0.00000  Uiso   1.00
H355   H     0.61470   0.93355   0.46395   0.00000  Uiso   1.00
H356   H     0.42218   0.90706   0.74667   0.00000  Uiso   1.00
H357   H     0.59073   0.69141   0.57170   0.00000  Uiso   1.00
H358   H     0.68481   0.99392   0.27253   0.00000  Uiso   1.00
H359   H     0.27884   0.93807   0.86871   0.00000  Uiso   1.00
O360   O     0.53783   0.62377   0.42330   0.00000  Uiso   1.00
O361   O     0.66126   0.02066   0.03082   0.00000  Uiso   1.00
O362   O     0.12863   0.94737   0.81298   0.00000  Uiso   1.00
N363   N     0.46977   0.68711   0.34312   0.00000  Uiso   1.00
N364   N     0.55774   0.96993   0.06341   0.00000  Uiso   1.00
N365   N     0.17819   0.91773   0.62076   0.00000  Uiso   1.00
N366   N     0.55109   0.69846   0.50303   0.00000  Uiso   1.00
N367   N     0.63906   0.98128   0.22332   0.00000  Uiso   1.00
N368   N     0.25951   0.92907   0.78068   0.00000  Uiso   1.00
