data_job_02373
_audit_creation_date              2018-12-19
_audit_creation_method            'Materials Studio'
_symmetry_space_group_name_H-M    'P1'
_symmetry_Int_Tables_number       1
_symmetry_cell_setting            triclinic
loop_
_symmetry_equiv_pos_as_xyz
  x,y,z
_cell_length_a                    11.4937
_cell_length_b                    37.4225
_cell_length_c                    12.5857
_cell_angle_alpha                 90.0000
_cell_angle_beta                  90.0000
_cell_angle_gamma                 90.0000
loop_
_atom_site_label
_atom_site_type_symbol
_atom_site_fract_x
_atom_site_fract_y
_atom_site_fract_z
_atom_site_U_iso_or_equiv
_atom_site_adp_type
_atom_site_occupancy
C1     C     0.54610   0.61571   0.30863   0.00000  Uiso   1.00
C2     C     0.67481   0.60616   0.30094   0.00000  Uiso   1.00
C3     C     0.72254   0.57270   0.32001   0.00000  Uiso   1.00
C4     C     0.84224   0.56943   0.30878   0.00000  Uiso   1.00
C5     C     0.03154   0.55017   0.30136   0.00000  Uiso   1.00
C6     C     0.53827   0.64660   0.38731   0.00000  Uiso   1.00
C7     C     0.47118   0.64716   0.47899   0.00000  Uiso   1.00
C8     C     0.47593   0.67793   0.54045   0.00000  Uiso   1.00
C9     C     0.45318   0.72147   0.66707   0.00000  Uiso   1.00
C10    C     0.51274   0.63115   0.20072   0.00000  Uiso   1.00
C11    C     0.42417   0.61872   0.13552   0.00000  Uiso   1.00
C12    C     0.40741   0.63649   0.03990   0.00000  Uiso   1.00
C13    C     0.34502   0.65604   0.87681   0.00000  Uiso   1.00
C14    C     0.67379   0.66938   0.25476   0.00000  Uiso   1.00
C15    C     0.74416   0.63531   0.27169   0.00000  Uiso   1.00
C16    C     0.86381   0.63209   0.26042   0.00000  Uiso   1.00
C17    C     0.91172   0.59863   0.27947   0.00000  Uiso   1.00
C18    C     0.60762   0.67576   0.35806   0.00000  Uiso   1.00
C19    C     0.61245   0.70654   0.41939   0.00000  Uiso   1.00
C20    C     0.54540   0.70714   0.51114   0.00000  Uiso   1.00
C21    C     0.58209   0.66030   0.17146   0.00000  Uiso   1.00
C22    C     0.56545   0.67810   0.07593   0.00000  Uiso   1.00
C23    C     0.47688   0.66570   0.01059   0.00000  Uiso   1.00
H24    H     0.49211   0.59302   0.33141   0.00000  Uiso   1.00
H25    H     0.66884   0.55015   0.34266   0.00000  Uiso   1.00
H26    H     0.41751   0.62459   0.50160   0.00000  Uiso   1.00
H27    H     0.37052   0.59616   0.15819   0.00000  Uiso   1.00
H28    H     0.89538   0.51549   0.34228   0.00000  Uiso   1.00
H29    H     0.36541   0.67246   0.67739   0.00000  Uiso   1.00
H30    H     0.26631   0.61250   0.95323   0.00000  Uiso   1.00
H31    H     0.72778   0.69208   0.23199   0.00000  Uiso   1.00
H32    H     0.91746   0.65465   0.23778   0.00000  Uiso   1.00
H33    H     0.66613   0.72910   0.39673   0.00000  Uiso   1.00
H34    H     0.61913   0.70066   0.05331   0.00000  Uiso   1.00
H35    H     0.09716   0.60030   0.25716   0.00000  Uiso   1.00
H36    H     0.56718   0.75728   0.59227   0.00000  Uiso   1.00
H37    H     0.46809   0.69732   0.86812   0.00000  Uiso   1.00
O38    O     0.11680   0.53149   0.30536   0.00000  Uiso   1.00
O39    O     0.42148   0.73743   0.74500   0.00000  Uiso   1.00
O40    O     0.29147   0.65877   0.79493   0.00000  Uiso   1.00
N41    N     0.91684   0.54058   0.32143   0.00000  Uiso   1.00
N42    N     0.42136   0.68734   0.63475   0.00000  Uiso   1.00
N43    N     0.32869   0.63129   0.95774   0.00000  Uiso   1.00
N44    N     0.02541   0.58622   0.27563   0.00000  Uiso   1.00
N45    N     0.52994   0.73298   0.58894   0.00000  Uiso   1.00
N46    N     0.43727   0.67693   0.91193   0.00000  Uiso   1.00
C47    C     0.54610   0.11571   0.80863   0.00000  Uiso   1.00
C48    C     0.67481   0.10616   0.80094   0.00000  Uiso   1.00
C49    C     0.72254   0.07270   0.82001   0.00000  Uiso   1.00
C50    C     0.84224   0.06943   0.80878   0.00000  Uiso   1.00
C51    C     0.03154   0.05017   0.80136   0.00000  Uiso   1.00
C52    C     0.53827   0.14660   0.88731   0.00000  Uiso   1.00
C53    C     0.47118   0.14716   0.97899   0.00000  Uiso   1.00
C54    C     0.47593   0.17793   0.04045   0.00000  Uiso   1.00
C55    C     0.45318   0.22147   0.16707   0.00000  Uiso   1.00
C56    C     0.51274   0.13115   0.70072   0.00000  Uiso   1.00
C57    C     0.42417   0.11872   0.63552   0.00000  Uiso   1.00
C58    C     0.40741   0.13649   0.53990   0.00000  Uiso   1.00
C59    C     0.34502   0.15604   0.37681   0.00000  Uiso   1.00
C60    C     0.67379   0.16938   0.75476   0.00000  Uiso   1.00
C61    C     0.74416   0.13531   0.77169   0.00000  Uiso   1.00
C62    C     0.86381   0.13209   0.76042   0.00000  Uiso   1.00
C63    C     0.91172   0.09863   0.77947   0.00000  Uiso   1.00
C64    C     0.60762   0.17576   0.85806   0.00000  Uiso   1.00
C65    C     0.61245   0.20654   0.91939   0.00000  Uiso   1.00
C66    C     0.54540   0.20714   0.01114   0.00000  Uiso   1.00
C67    C     0.58209   0.16030   0.67146   0.00000  Uiso   1.00
C68    C     0.56545   0.17810   0.57593   0.00000  Uiso   1.00
C69    C     0.47688   0.16570   0.51059   0.00000  Uiso   1.00
H70    H     0.49211   0.09302   0.83141   0.00000  Uiso   1.00
H71    H     0.66884   0.05015   0.84266   0.00000  Uiso   1.00
H72    H     0.41751   0.12459   0.00160   0.00000  Uiso   1.00
H73    H     0.37052   0.09616   0.65819   0.00000  Uiso   1.00
H74    H     0.89538   0.01549   0.84228   0.00000  Uiso   1.00
H75    H     0.36541   0.17246   0.17739   0.00000  Uiso   1.00
H76    H     0.26631   0.11250   0.45323   0.00000  Uiso   1.00
H77    H     0.72778   0.19208   0.73199   0.00000  Uiso   1.00
H78    H     0.91746   0.15465   0.73778   0.00000  Uiso   1.00
H79    H     0.66613   0.22910   0.89673   0.00000  Uiso   1.00
H80    H     0.61913   0.20066   0.55331   0.00000  Uiso   1.00
H81    H     0.09716   0.10030   0.75716   0.00000  Uiso   1.00
H82    H     0.56718   0.25728   0.09227   0.00000  Uiso   1.00
H83    H     0.46809   0.19732   0.36812   0.00000  Uiso   1.00
O84    O     0.11680   0.03149   0.80536   0.00000  Uiso   1.00
O85    O     0.42148   0.23743   0.24500   0.00000  Uiso   1.00
O86    O     0.29147   0.15877   0.29493   0.00000  Uiso   1.00
N87    N     0.91684   0.04058   0.82143   0.00000  Uiso   1.00
N88    N     0.42136   0.18734   0.13475   0.00000  Uiso   1.00
N89    N     0.32869   0.13129   0.45774   0.00000  Uiso   1.00
N90    N     0.02541   0.08622   0.77563   0.00000  Uiso   1.00
N91    N     0.52994   0.23298   0.08894   0.00000  Uiso   1.00
N92    N     0.43727   0.17693   0.41193   0.00000  Uiso   1.00
C93    C     0.45390   0.38429   0.30863   0.00000  Uiso   1.00
C94    C     0.32519   0.39384   0.30094   0.00000  Uiso   1.00
C95    C     0.27746   0.42730   0.32001   0.00000  Uiso   1.00
C96    C     0.15776   0.43057   0.30878   0.00000  Uiso   1.00
C97    C     0.96846   0.44983   0.30136   0.00000  Uiso   1.00
C98    C     0.46173   0.35340   0.38731   0.00000  Uiso   1.00
C99    C     0.52882   0.35284   0.47899   0.00000  Uiso   1.00
C100   C     0.52407   0.32207   0.54045   0.00000  Uiso   1.00
C101   C     0.54682   0.27853   0.66707   0.00000  Uiso   1.00
C102   C     0.48726   0.36885   0.20072   0.00000  Uiso   1.00
C103   C     0.57583   0.38128   0.13552   0.00000  Uiso   1.00
C104   C     0.59259   0.36351   0.03990   0.00000  Uiso   1.00
C105   C     0.65498   0.34396   0.87681   0.00000  Uiso   1.00
C106   C     0.32621   0.33062   0.25476   0.00000  Uiso   1.00
C107   C     0.25584   0.36469   0.27169   0.00000  Uiso   1.00
C108   C     0.13619   0.36791   0.26042   0.00000  Uiso   1.00
C109   C     0.08828   0.40137   0.27947   0.00000  Uiso   1.00
C110   C     0.39238   0.32424   0.35806   0.00000  Uiso   1.00
C111   C     0.38755   0.29346   0.41939   0.00000  Uiso   1.00
C112   C     0.45460   0.29286   0.51114   0.00000  Uiso   1.00
C113   C     0.41791   0.33970   0.17146   0.00000  Uiso   1.00
C114   C     0.43455   0.32190   0.07593   0.00000  Uiso   1.00
C115   C     0.52312   0.33430   0.01059   0.00000  Uiso   1.00
H116   H     0.50789   0.40698   0.33141   0.00000  Uiso   1.00
H117   H     0.33116   0.44985   0.34266   0.00000  Uiso   1.00
H118   H     0.58249   0.37541   0.50160   0.00000  Uiso   1.00
H119   H     0.62948   0.40384   0.15819   0.00000  Uiso   1.00
H120   H     0.10462   0.48451   0.34228   0.00000  Uiso   1.00
H121   H     0.63459   0.32754   0.67739   0.00000  Uiso   1.00
H122   H     0.73369   0.38750   0.95323   0.00000  Uiso   1.00
H123   H     0.27222   0.30792   0.23199   0.00000  Uiso   1.00
H124   H     0.08254   0.34535   0.23778   0.00000  Uiso   1.00
H125   H     0.33387   0.27090   0.39673   0.00000  Uiso   1.00
H126   H     0.38087   0.29934   0.05331   0.00000  Uiso   1.00
H127   H     0.90284   0.39970   0.25716   0.00000  Uiso   1.00
H128   H     0.43282   0.24272   0.59227   0.00000  Uiso   1.00
H129   H     0.53191   0.30268   0.86812   0.00000  Uiso   1.00
O130   O     0.88320   0.46851   0.30536   0.00000  Uiso   1.00
O131   O     0.57852   0.26257   0.74500   0.00000  Uiso   1.00
O132   O     0.70853   0.34123   0.79493   0.00000  Uiso   1.00
N133   N     0.08316   0.45942   0.32143   0.00000  Uiso   1.00
N134   N     0.57864   0.31266   0.63475   0.00000  Uiso   1.00
N135   N     0.67131   0.36871   0.95774   0.00000  Uiso   1.00
N136   N     0.97459   0.41378   0.27563   0.00000  Uiso   1.00
N137   N     0.47006   0.26702   0.58894   0.00000  Uiso   1.00
N138   N     0.56273   0.32307   0.91193   0.00000  Uiso   1.00
C139   C     0.45390   0.88429   0.80863   0.00000  Uiso   1.00
C140   C     0.32519   0.89384   0.80094   0.00000  Uiso   1.00
C141   C     0.27746   0.92730   0.82001   0.00000  Uiso   1.00
C142   C     0.15776   0.93057   0.80878   0.00000  Uiso   1.00
C143   C     0.96846   0.94983   0.80136   0.00000  Uiso   1.00
C144   C     0.46173   0.85340   0.88731   0.00000  Uiso   1.00
C145   C     0.52882   0.85284   0.97899   0.00000  Uiso   1.00
C146   C     0.52407   0.82207   0.04045   0.00000  Uiso   1.00
C147   C     0.54682   0.77853   0.16707   0.00000  Uiso   1.00
C148   C     0.48726   0.86885   0.70072   0.00000  Uiso   1.00
C149   C     0.57583   0.88128   0.63552   0.00000  Uiso   1.00
C150   C     0.59259   0.86351   0.53990   0.00000  Uiso   1.00
C151   C     0.65498   0.84396   0.37681   0.00000  Uiso   1.00
C152   C     0.32621   0.83062   0.75476   0.00000  Uiso   1.00
C153   C     0.25584   0.86469   0.77169   0.00000  Uiso   1.00
C154   C     0.13619   0.86791   0.76042   0.00000  Uiso   1.00
C155   C     0.08828   0.90137   0.77947   0.00000  Uiso   1.00
C156   C     0.39238   0.82424   0.85806   0.00000  Uiso   1.00
C157   C     0.38755   0.79346   0.91939   0.00000  Uiso   1.00
C158   C     0.45460   0.79286   0.01114   0.00000  Uiso   1.00
C159   C     0.41791   0.83970   0.67146   0.00000  Uiso   1.00
C160   C     0.43455   0.82190   0.57593   0.00000  Uiso   1.00
C161   C     0.52312   0.83430   0.51059   0.00000  Uiso   1.00
H162   H     0.50789   0.90698   0.83141   0.00000  Uiso   1.00
H163   H     0.33116   0.94985   0.84266   0.00000  Uiso   1.00
H164   H     0.58249   0.87541   0.00160   0.00000  Uiso   1.00
H165   H     0.62948   0.90384   0.65819   0.00000  Uiso   1.00
H166   H     0.10462   0.98451   0.84228   0.00000  Uiso   1.00
H167   H     0.63459   0.82754   0.17739   0.00000  Uiso   1.00
H168   H     0.73369   0.88750   0.45323   0.00000  Uiso   1.00
H169   H     0.27222   0.80792   0.73199   0.00000  Uiso   1.00
H170   H     0.08254   0.84535   0.73778   0.00000  Uiso   1.00
H171   H     0.33387   0.77090   0.89673   0.00000  Uiso   1.00
H172   H     0.38087   0.79934   0.55331   0.00000  Uiso   1.00
H173   H     0.90284   0.89970   0.75716   0.00000  Uiso   1.00
H174   H     0.43282   0.74272   0.09227   0.00000  Uiso   1.00
H175   H     0.53191   0.80268   0.36812   0.00000  Uiso   1.00
O176   O     0.88320   0.96851   0.80536   0.00000  Uiso   1.00
O177   O     0.57852   0.76257   0.24500   0.00000  Uiso   1.00
O178   O     0.70853   0.84123   0.29493   0.00000  Uiso   1.00
N179   N     0.08316   0.95942   0.82143   0.00000  Uiso   1.00
N180   N     0.57864   0.81266   0.13475   0.00000  Uiso   1.00
N181   N     0.67131   0.86871   0.45774   0.00000  Uiso   1.00
N182   N     0.97459   0.91378   0.77563   0.00000  Uiso   1.00
N183   N     0.47006   0.76702   0.08894   0.00000  Uiso   1.00
N184   N     0.56273   0.82307   0.41193   0.00000  Uiso   1.00
C185   C     0.04610   0.88429   0.30863   0.00000  Uiso   1.00
C186   C     0.17481   0.89384   0.30094   0.00000  Uiso   1.00
C187   C     0.22254   0.92730   0.32001   0.00000  Uiso   1.00
C188   C     0.34224   0.93057   0.30878   0.00000  Uiso   1.00
C189   C     0.53154   0.94983   0.30136   0.00000  Uiso   1.00
C190   C     0.03827   0.85340   0.38731   0.00000  Uiso   1.00
C191   C     0.97118   0.85284   0.47899   0.00000  Uiso   1.00
C192   C     0.97593   0.82207   0.54045   0.00000  Uiso   1.00
C193   C     0.95318   0.77853   0.66707   0.00000  Uiso   1.00
C194   C     0.01274   0.86885   0.20072   0.00000  Uiso   1.00
C195   C     0.92417   0.88128   0.13552   0.00000  Uiso   1.00
C196   C     0.90741   0.86351   0.03990   0.00000  Uiso   1.00
C197   C     0.84502   0.84396   0.87681   0.00000  Uiso   1.00
C198   C     0.17379   0.83062   0.25476   0.00000  Uiso   1.00
C199   C     0.24416   0.86469   0.27169   0.00000  Uiso   1.00
C200   C     0.36381   0.86791   0.26042   0.00000  Uiso   1.00
C201   C     0.41172   0.90137   0.27947   0.00000  Uiso   1.00
C202   C     0.10762   0.82424   0.35806   0.00000  Uiso   1.00
C203   C     0.11245   0.79346   0.41939   0.00000  Uiso   1.00
C204   C     0.04540   0.79286   0.51114   0.00000  Uiso   1.00
C205   C     0.08209   0.83970   0.17146   0.00000  Uiso   1.00
C206   C     0.06545   0.82190   0.07593   0.00000  Uiso   1.00
C207   C     0.97688   0.83430   0.01059   0.00000  Uiso   1.00
H208   H     0.99211   0.90698   0.33141   0.00000  Uiso   1.00
H209   H     0.16884   0.94985   0.34266   0.00000  Uiso   1.00
H210   H     0.91751   0.87541   0.50160   0.00000  Uiso   1.00
H211   H     0.87052   0.90384   0.15819   0.00000  Uiso   1.00
H212   H     0.39538   0.98451   0.34228   0.00000  Uiso   1.00
H213   H     0.86541   0.82754   0.67739   0.00000  Uiso   1.00
H214   H     0.76631   0.88750   0.95323   0.00000  Uiso   1.00
H215   H     0.22778   0.80792   0.23199   0.00000  Uiso   1.00
H216   H     0.41746   0.84535   0.23778   0.00000  Uiso   1.00
H217   H     0.16613   0.77090   0.39673   0.00000  Uiso   1.00
H218   H     0.11913   0.79934   0.05331   0.00000  Uiso   1.00
H219   H     0.59716   0.89970   0.25716   0.00000  Uiso   1.00
H220   H     0.06718   0.74272   0.59227   0.00000  Uiso   1.00
H221   H     0.96809   0.80268   0.86812   0.00000  Uiso   1.00
O222   O     0.61680   0.96851   0.30536   0.00000  Uiso   1.00
O223   O     0.92148   0.76257   0.74500   0.00000  Uiso   1.00
O224   O     0.79147   0.84123   0.79493   0.00000  Uiso   1.00
N225   N     0.41684   0.95942   0.32143   0.00000  Uiso   1.00
N226   N     0.92136   0.81266   0.63475   0.00000  Uiso   1.00
N227   N     0.82869   0.86871   0.95774   0.00000  Uiso   1.00
N228   N     0.52541   0.91378   0.27563   0.00000  Uiso   1.00
N229   N     0.02994   0.76702   0.58894   0.00000  Uiso   1.00
N230   N     0.93727   0.82307   0.91193   0.00000  Uiso   1.00
C231   C     0.04610   0.38429   0.80863   0.00000  Uiso   1.00
C232   C     0.17481   0.39384   0.80094   0.00000  Uiso   1.00
C233   C     0.22254   0.42730   0.82001   0.00000  Uiso   1.00
C234   C     0.34224   0.43057   0.80878   0.00000  Uiso   1.00
C235   C     0.53154   0.44983   0.80136   0.00000  Uiso   1.00
C236   C     0.03827   0.35340   0.88731   0.00000  Uiso   1.00
C237   C     0.97118   0.35284   0.97899   0.00000  Uiso   1.00
C238   C     0.97593   0.32207   0.04045   0.00000  Uiso   1.00
C239   C     0.95318   0.27853   0.16707   0.00000  Uiso   1.00
C240   C     0.01274   0.36885   0.70072   0.00000  Uiso   1.00
C241   C     0.92417   0.38128   0.63552   0.00000  Uiso   1.00
C242   C     0.90741   0.36351   0.53990   0.00000  Uiso   1.00
C243   C     0.84502   0.34396   0.37681   0.00000  Uiso   1.00
C244   C     0.17379   0.33062   0.75476   0.00000  Uiso   1.00
C245   C     0.24416   0.36469   0.77169   0.00000  Uiso   1.00
C246   C     0.36381   0.36791   0.76042   0.00000  Uiso   1.00
C247   C     0.41172   0.40137   0.77947   0.00000  Uiso   1.00
C248   C     0.10762   0.32424   0.85806   0.00000  Uiso   1.00
C249   C     0.11245   0.29346   0.91939   0.00000  Uiso   1.00
C250   C     0.04540   0.29286   0.01114   0.00000  Uiso   1.00
C251   C     0.08209   0.33970   0.67146   0.00000  Uiso   1.00
C252   C     0.06545   0.32190   0.57593   0.00000  Uiso   1.00
C253   C     0.97688   0.33430   0.51059   0.00000  Uiso   1.00
H254   H     0.99211   0.40698   0.83141   0.00000  Uiso   1.00
H255   H     0.16884   0.44985   0.84266   0.00000  Uiso   1.00
H256   H     0.91751   0.37541   0.00160   0.00000  Uiso   1.00
H257   H     0.87052   0.40384   0.65819   0.00000  Uiso   1.00
H258   H     0.39538   0.48451   0.84228   0.00000  Uiso   1.00
H259   H     0.86541   0.32754   0.17739   0.00000  Uiso   1.00
H260   H     0.76631   0.38750   0.45323   0.00000  Uiso   1.00
H261   H     0.22778   0.30792   0.73199   0.00000  Uiso   1.00
H262   H     0.41746   0.34535   0.73778   0.00000  Uiso   1.00
H263   H     0.16613   0.27090   0.89673   0.00000  Uiso   1.00
H264   H     0.11913   0.29934   0.55331   0.00000  Uiso   1.00
H265   H     0.59716   0.39970   0.75716   0.00000  Uiso   1.00
H266   H     0.06718   0.24272   0.09227   0.00000  Uiso   1.00
H267   H     0.96809   0.30268   0.36812   0.00000  Uiso   1.00
O268   O     0.61680   0.46851   0.80536   0.00000  Uiso   1.00
O269   O     0.92148   0.26257   0.24500   0.00000  Uiso   1.00
O270   O     0.79147   0.34123   0.29493   0.00000  Uiso   1.00
N271   N     0.41684   0.45942   0.82143   0.00000  Uiso   1.00
N272   N     0.92136   0.31266   0.13475   0.00000  Uiso   1.00
N273   N     0.82869   0.36871   0.45774   0.00000  Uiso   1.00
N274   N     0.52541   0.41378   0.77563   0.00000  Uiso   1.00
N275   N     0.02994   0.26702   0.08894   0.00000  Uiso   1.00
N276   N     0.93727   0.32307   0.41193   0.00000  Uiso   1.00
C277   C     0.95390   0.11571   0.30863   0.00000  Uiso   1.00
C278   C     0.82519   0.10616   0.30094   0.00000  Uiso   1.00
C279   C     0.77746   0.07270   0.32001   0.00000  Uiso   1.00
C280   C     0.65776   0.06943   0.30878   0.00000  Uiso   1.00
C281   C     0.46846   0.05017   0.30136   0.00000  Uiso   1.00
C282   C     0.96173   0.14660   0.38731   0.00000  Uiso   1.00
C283   C     0.02882   0.14716   0.47899   0.00000  Uiso   1.00
C284   C     0.02407   0.17793   0.54045   0.00000  Uiso   1.00
C285   C     0.04682   0.22147   0.66707   0.00000  Uiso   1.00
C286   C     0.98726   0.13115   0.20072   0.00000  Uiso   1.00
C287   C     0.07583   0.11872   0.13552   0.00000  Uiso   1.00
C288   C     0.09259   0.13649   0.03990   0.00000  Uiso   1.00
C289   C     0.15498   0.15604   0.87681   0.00000  Uiso   1.00
C290   C     0.82621   0.16938   0.25476   0.00000  Uiso   1.00
C291   C     0.75584   0.13531   0.27169   0.00000  Uiso   1.00
C292   C     0.63619   0.13209   0.26042   0.00000  Uiso   1.00
C293   C     0.58828   0.09863   0.27947   0.00000  Uiso   1.00
C294   C     0.89238   0.17576   0.35806   0.00000  Uiso   1.00
C295   C     0.88755   0.20654   0.41939   0.00000  Uiso   1.00
C296   C     0.95460   0.20714   0.51114   0.00000  Uiso   1.00
C297   C     0.91791   0.16030   0.17146   0.00000  Uiso   1.00
C298   C     0.93455   0.17810   0.07593   0.00000  Uiso   1.00
C299   C     0.02312   0.16570   0.01059   0.00000  Uiso   1.00
H300   H     0.00789   0.09302   0.33141   0.00000  Uiso   1.00
H301   H     0.83116   0.05015   0.34266   0.00000  Uiso   1.00
H302   H     0.08249   0.12459   0.50160   0.00000  Uiso   1.00
H303   H     0.12948   0.09616   0.15819   0.00000  Uiso   1.00
H304   H     0.60462   0.01549   0.34228   0.00000  Uiso   1.00
H305   H     0.13459   0.17246   0.67739   0.00000  Uiso   1.00
H306   H     0.23369   0.11250   0.95323   0.00000  Uiso   1.00
H307   H     0.77222   0.19208   0.23199   0.00000  Uiso   1.00
H308   H     0.58254   0.15465   0.23778   0.00000  Uiso   1.00
H309   H     0.83387   0.22910   0.39673   0.00000  Uiso   1.00
H310   H     0.88087   0.20066   0.05331   0.00000  Uiso   1.00
H311   H     0.40284   0.10030   0.25716   0.00000  Uiso   1.00
H312   H     0.93282   0.25728   0.59227   0.00000  Uiso   1.00
H313   H     0.03191   0.19732   0.86812   0.00000  Uiso   1.00
O314   O     0.38320   0.03149   0.30536   0.00000  Uiso   1.00
O315   O     0.07852   0.23743   0.74500   0.00000  Uiso   1.00
O316   O     0.20853   0.15877   0.79493   0.00000  Uiso   1.00
N317   N     0.58316   0.04058   0.32143   0.00000  Uiso   1.00
N318   N     0.07864   0.18734   0.63475   0.00000  Uiso   1.00
N319   N     0.17131   0.13129   0.95774   0.00000  Uiso   1.00
N320   N     0.47459   0.08622   0.27563   0.00000  Uiso   1.00
N321   N     0.97006   0.23298   0.58894   0.00000  Uiso   1.00
N322   N     0.06273   0.17693   0.91193   0.00000  Uiso   1.00
C323   C     0.95390   0.61571   0.80863   0.00000  Uiso   1.00
C324   C     0.82519   0.60616   0.80094   0.00000  Uiso   1.00
C325   C     0.77746   0.57270   0.82001   0.00000  Uiso   1.00
C326   C     0.65776   0.56943   0.80878   0.00000  Uiso   1.00
C327   C     0.46846   0.55017   0.80136   0.00000  Uiso   1.00
C328   C     0.96173   0.64660   0.88731   0.00000  Uiso   1.00
C329   C     0.02882   0.64716   0.97899   0.00000  Uiso   1.00
C330   C     0.02407   0.67793   0.04045   0.00000  Uiso   1.00
C331   C     0.04682   0.72147   0.16707   0.00000  Uiso   1.00
C332   C     0.98726   0.63115   0.70072   0.00000  Uiso   1.00
C333   C     0.07583   0.61872   0.63552   0.00000  Uiso   1.00
C334   C     0.09259   0.63649   0.53990   0.00000  Uiso   1.00
C335   C     0.15498   0.65604   0.37681   0.00000  Uiso   1.00
C336   C     0.82621   0.66938   0.75476   0.00000  Uiso   1.00
C337   C     0.75584   0.63531   0.77169   0.00000  Uiso   1.00
C338   C     0.63619   0.63209   0.76042   0.00000  Uiso   1.00
C339   C     0.58828   0.59863   0.77947   0.00000  Uiso   1.00
C340   C     0.89238   0.67576   0.85806   0.00000  Uiso   1.00
C341   C     0.88755   0.70654   0.91939   0.00000  Uiso   1.00
C342   C     0.95460   0.70714   0.01114   0.00000  Uiso   1.00
C343   C     0.91791   0.66030   0.67146   0.00000  Uiso   1.00
C344   C     0.93455   0.67810   0.57593   0.00000  Uiso   1.00
C345   C     0.02312   0.66570   0.51059   0.00000  Uiso   1.00
H346   H     0.00789   0.59302   0.83141   0.00000  Uiso   1.00
H347   H     0.83116   0.55015   0.84266   0.00000  Uiso   1.00
H348   H     0.08249   0.62459   0.00160   0.00000  Uiso   1.00
H349   H     0.12948   0.59616   0.65819   0.00000  Uiso   1.00
H350   H     0.60462   0.51549   0.84228   0.00000  Uiso   1.00
H351   H     0.13459   0.67246   0.17739   0.00000  Uiso   1.00
H352   H     0.23369   0.61250   0.45323   0.00000  Uiso   1.00
H353   H     0.77222   0.69208   0.73199   0.00000  Uiso   1.00
H354   H     0.58254   0.65465   0.73778   0.00000  Uiso   1.00
H355   H     0.83387   0.72910   0.89673   0.00000  Uiso   1.00
H356   H     0.88087   0.70066   0.55331   0.00000  Uiso   1.00
H357   H     0.40284   0.60030   0.75716   0.00000  Uiso   1.00
H358   H     0.93282   0.75728   0.09227   0.00000  Uiso   1.00
H359   H     0.03191   0.69732   0.36812   0.00000  Uiso   1.00
O360   O     0.38320   0.53149   0.80536   0.00000  Uiso   1.00
O361   O     0.07852   0.73743   0.24500   0.00000  Uiso   1.00
O362   O     0.20853   0.65877   0.29493   0.00000  Uiso   1.00
N363   N     0.58316   0.54058   0.82143   0.00000  Uiso   1.00
N364   N     0.07864   0.68734   0.13475   0.00000  Uiso   1.00
N365   N     0.17131   0.63129   0.45774   0.00000  Uiso   1.00
N366   N     0.47459   0.58622   0.77563   0.00000  Uiso   1.00
N367   N     0.97006   0.73298   0.08894   0.00000  Uiso   1.00
N368   N     0.06273   0.67693   0.41193   0.00000  Uiso   1.00
