data_job_03465
_audit_creation_date              2018-12-19
_audit_creation_method            'Materials Studio'
_symmetry_space_group_name_H-M    'P1'
_symmetry_Int_Tables_number       1
_symmetry_cell_setting            triclinic
loop_
_symmetry_equiv_pos_as_xyz
  x,y,z
_cell_length_a                    34.6157
_cell_length_b                    22.2661
_cell_length_c                    13.4062
_cell_angle_alpha                 90.0000
_cell_angle_beta                  90.0000
_cell_angle_gamma                 90.0000
loop_
_atom_site_label
_atom_site_type_symbol
_atom_site_fract_x
_atom_site_fract_y
_atom_site_fract_z
_atom_site_U_iso_or_equiv
_atom_site_adp_type
_atom_site_occupancy
C1     C     0.67069   0.14401   0.56470   0.00000  Uiso   1.00
C2     C     0.67305   0.19709   0.63630   0.00000  Uiso   1.00
C3     C     0.67206   0.25727   0.60949   0.00000  Uiso   1.00
C4     C     0.67462   0.29905   0.68608   0.00000  Uiso   1.00
C5     C     0.67779   0.38419   0.78209   0.00000  Uiso   1.00
C6     C     0.70672   0.10634   0.58389   0.00000  Uiso   1.00
C7     C     0.73404   0.09021   0.51300   0.00000  Uiso   1.00
C8     C     0.76493   0.05559   0.54548   0.00000  Uiso   1.00
C9     C     0.82036   0.99980   0.56009   0.00000  Uiso   1.00
C10    C     0.63662   0.10610   0.59979   0.00000  Uiso   1.00
C11    C     0.60499   0.08975   0.54227   0.00000  Uiso   1.00
C12    C     0.57686   0.05490   0.58813   0.00000  Uiso   1.00
C13    C     0.52343   0.99873   0.62744   0.00000  Uiso   1.00
C14    C     0.67699   0.11119   0.74841   0.00000  Uiso   1.00
C15    C     0.67648   0.17927   0.73609   0.00000  Uiso   1.00
C16    C     0.67903   0.22096   0.81275   0.00000  Uiso   1.00
C17    C     0.67804   0.28120   0.78605   0.00000  Uiso   1.00
C18    C     0.71015   0.08852   0.68367   0.00000  Uiso   1.00
C19    C     0.74101   0.05390   0.71626   0.00000  Uiso   1.00
C20    C     0.76836   0.03773   0.64545   0.00000  Uiso   1.00
C21    C     0.64004   0.08827   0.69958   0.00000  Uiso   1.00
C22    C     0.61196   0.05344   0.74554   0.00000  Uiso   1.00
C23    C     0.58029   0.03704   0.68810   0.00000  Uiso   1.00
H24    H     0.66803   0.15788   0.48701   0.00000  Uiso   1.00
H25    H     0.66942   0.27105   0.53225   0.00000  Uiso   1.00
H26    H     0.73138   0.10401   0.43578   0.00000  Uiso   1.00
H27    H     0.60235   0.10355   0.46505   0.00000  Uiso   1.00
H28    H     0.67248   0.38866   0.62642   0.00000  Uiso   1.00
H29    H     0.80313   0.03642   0.42300   0.00000  Uiso   1.00
H30    H     0.53104   0.03545   0.48472   0.00000  Uiso   1.00
H31    H     0.67966   0.09731   0.82611   0.00000  Uiso   1.00
H32    H     0.68168   0.20716   0.88996   0.00000  Uiso   1.00
H33    H     0.74365   0.04011   0.79349   0.00000  Uiso   1.00
H34    H     0.61461   0.03965   0.82276   0.00000  Uiso   1.00
H35    H     0.68244   0.33680   0.91675   0.00000  Uiso   1.00
H36    H     0.81308   0.98456   0.71333   0.00000  Uiso   1.00
H37    H     0.54099   0.98359   0.77505   0.00000  Uiso   1.00
O38    O     0.67859   0.43608   0.80747   0.00000  Uiso   1.00
O39    O     0.84999   0.97395   0.54059   0.00000  Uiso   1.00
O40    O     0.49301   0.97268   0.62156   0.00000  Uiso   1.00
N41    N     0.67454   0.36138   0.68599   0.00000  Uiso   1.00
N42    N     0.79669   0.03207   0.49581   0.00000  Uiso   1.00
N43    N     0.54231   0.03114   0.55350   0.00000  Uiso   1.00
N44    N     0.67989   0.33347   0.84221   0.00000  Uiso   1.00
N45    N     0.80204   0.00416   0.65203   0.00000  Uiso   1.00
N46    N     0.54767   0.00324   0.70972   0.00000  Uiso   1.00
C47    C     0.82931   0.35599   0.06470   0.00000  Uiso   1.00
C48    C     0.82695   0.30291   0.13630   0.00000  Uiso   1.00
C49    C     0.82794   0.24273   0.10949   0.00000  Uiso   1.00
C50    C     0.82538   0.20095   0.18608   0.00000  Uiso   1.00
C51    C     0.82221   0.11581   0.28209   0.00000  Uiso   1.00
C52    C     0.79328   0.39366   0.08389   0.00000  Uiso   1.00
C53    C     0.76596   0.40979   0.01300   0.00000  Uiso   1.00
C54    C     0.73507   0.44441   0.04548   0.00000  Uiso   1.00
C55    C     0.67964   0.50020   0.06009   0.00000  Uiso   1.00
C56    C     0.86338   0.39390   0.09979   0.00000  Uiso   1.00
C57    C     0.89501   0.41025   0.04227   0.00000  Uiso   1.00
C58    C     0.92314   0.44510   0.08813   0.00000  Uiso   1.00
C59    C     0.97657   0.50127   0.12744   0.00000  Uiso   1.00
C60    C     0.82301   0.38881   0.24841   0.00000  Uiso   1.00
C61    C     0.82352   0.32073   0.23609   0.00000  Uiso   1.00
C62    C     0.82097   0.27904   0.31275   0.00000  Uiso   1.00
C63    C     0.82196   0.21880   0.28605   0.00000  Uiso   1.00
C64    C     0.78985   0.41148   0.18367   0.00000  Uiso   1.00
C65    C     0.75899   0.44610   0.21626   0.00000  Uiso   1.00
C66    C     0.73164   0.46227   0.14545   0.00000  Uiso   1.00
C67    C     0.85996   0.41173   0.19958   0.00000  Uiso   1.00
C68    C     0.88804   0.44656   0.24554   0.00000  Uiso   1.00
C69    C     0.91971   0.46296   0.18810   0.00000  Uiso   1.00
H70    H     0.83197   0.34212   0.98701   0.00000  Uiso   1.00
H71    H     0.83058   0.22895   0.03225   0.00000  Uiso   1.00
H72    H     0.76862   0.39599   0.93578   0.00000  Uiso   1.00
H73    H     0.89765   0.39645   0.96505   0.00000  Uiso   1.00
H74    H     0.82752   0.11134   0.12642   0.00000  Uiso   1.00
H75    H     0.69687   0.46358   0.92300   0.00000  Uiso   1.00
H76    H     0.96896   0.46455   0.98472   0.00000  Uiso   1.00
H77    H     0.82034   0.40269   0.32611   0.00000  Uiso   1.00
H78    H     0.81832   0.29284   0.38996   0.00000  Uiso   1.00
H79    H     0.75635   0.45989   0.29349   0.00000  Uiso   1.00
H80    H     0.88539   0.46035   0.32276   0.00000  Uiso   1.00
H81    H     0.81756   0.16320   0.41675   0.00000  Uiso   1.00
H82    H     0.68692   0.51544   0.21333   0.00000  Uiso   1.00
H83    H     0.95901   0.51641   0.27505   0.00000  Uiso   1.00
O84    O     0.82141   0.06392   0.30747   0.00000  Uiso   1.00
O85    O     0.65001   0.52605   0.04059   0.00000  Uiso   1.00
O86    O     0.00699   0.52732   0.12156   0.00000  Uiso   1.00
N87    N     0.82546   0.13862   0.18599   0.00000  Uiso   1.00
N88    N     0.70331   0.46793   0.99581   0.00000  Uiso   1.00
N89    N     0.95769   0.46886   0.05350   0.00000  Uiso   1.00
N90    N     0.82011   0.16653   0.34221   0.00000  Uiso   1.00
N91    N     0.69796   0.49584   0.15203   0.00000  Uiso   1.00
N92    N     0.95233   0.49676   0.20972   0.00000  Uiso   1.00
C93    C     0.32931   0.14401   0.93530   0.00000  Uiso   1.00
C94    C     0.32695   0.19709   0.86370   0.00000  Uiso   1.00
C95    C     0.32794   0.25727   0.89051   0.00000  Uiso   1.00
C96    C     0.32538   0.29905   0.81392   0.00000  Uiso   1.00
C97    C     0.32221   0.38419   0.71791   0.00000  Uiso   1.00
C98    C     0.29328   0.10634   0.91611   0.00000  Uiso   1.00
C99    C     0.26596   0.09021   0.98700   0.00000  Uiso   1.00
C100   C     0.23507   0.05559   0.95452   0.00000  Uiso   1.00
C101   C     0.17964   0.99980   0.93991   0.00000  Uiso   1.00
C102   C     0.36338   0.10610   0.90021   0.00000  Uiso   1.00
C103   C     0.39501   0.08975   0.95773   0.00000  Uiso   1.00
C104   C     0.42314   0.05490   0.91187   0.00000  Uiso   1.00
C105   C     0.47657   0.99873   0.87256   0.00000  Uiso   1.00
C106   C     0.32301   0.11119   0.75159   0.00000  Uiso   1.00
C107   C     0.32352   0.17927   0.76391   0.00000  Uiso   1.00
C108   C     0.32097   0.22096   0.68725   0.00000  Uiso   1.00
C109   C     0.32196   0.28120   0.71395   0.00000  Uiso   1.00
C110   C     0.28985   0.08852   0.81633   0.00000  Uiso   1.00
C111   C     0.25899   0.05390   0.78374   0.00000  Uiso   1.00
C112   C     0.23164   0.03773   0.85455   0.00000  Uiso   1.00
C113   C     0.35996   0.08827   0.80042   0.00000  Uiso   1.00
C114   C     0.38804   0.05344   0.75446   0.00000  Uiso   1.00
C115   C     0.41971   0.03704   0.81190   0.00000  Uiso   1.00
H116   H     0.33197   0.15788   0.01299   0.00000  Uiso   1.00
H117   H     0.33058   0.27105   0.96775   0.00000  Uiso   1.00
H118   H     0.26862   0.10401   0.06422   0.00000  Uiso   1.00
H119   H     0.39765   0.10355   0.03495   0.00000  Uiso   1.00
H120   H     0.32752   0.38866   0.87358   0.00000  Uiso   1.00
H121   H     0.19687   0.03642   0.07700   0.00000  Uiso   1.00
H122   H     0.46896   0.03545   0.01528   0.00000  Uiso   1.00
H123   H     0.32034   0.09731   0.67389   0.00000  Uiso   1.00
H124   H     0.31832   0.20716   0.61004   0.00000  Uiso   1.00
H125   H     0.25635   0.04011   0.70651   0.00000  Uiso   1.00
H126   H     0.38539   0.03965   0.67724   0.00000  Uiso   1.00
H127   H     0.31756   0.33680   0.58325   0.00000  Uiso   1.00
H128   H     0.18692   0.98456   0.78667   0.00000  Uiso   1.00
H129   H     0.45901   0.98359   0.72495   0.00000  Uiso   1.00
O130   O     0.32141   0.43608   0.69253   0.00000  Uiso   1.00
O131   O     0.15001   0.97395   0.95941   0.00000  Uiso   1.00
O132   O     0.50699   0.97268   0.87844   0.00000  Uiso   1.00
N133   N     0.32546   0.36138   0.81401   0.00000  Uiso   1.00
N134   N     0.20331   0.03207   0.00419   0.00000  Uiso   1.00
N135   N     0.45769   0.03114   0.94650   0.00000  Uiso   1.00
N136   N     0.32011   0.33347   0.65779   0.00000  Uiso   1.00
N137   N     0.19796   0.00416   0.84797   0.00000  Uiso   1.00
N138   N     0.45233   0.00324   0.79028   0.00000  Uiso   1.00
C139   C     0.17069   0.35599   0.43530   0.00000  Uiso   1.00
C140   C     0.17305   0.30291   0.36370   0.00000  Uiso   1.00
C141   C     0.17206   0.24273   0.39051   0.00000  Uiso   1.00
C142   C     0.17462   0.20095   0.31392   0.00000  Uiso   1.00
C143   C     0.17779   0.11581   0.21791   0.00000  Uiso   1.00
C144   C     0.20672   0.39366   0.41611   0.00000  Uiso   1.00
C145   C     0.23404   0.40979   0.48700   0.00000  Uiso   1.00
C146   C     0.26493   0.44441   0.45452   0.00000  Uiso   1.00
C147   C     0.32036   0.50020   0.43991   0.00000  Uiso   1.00
C148   C     0.13662   0.39390   0.40021   0.00000  Uiso   1.00
C149   C     0.10499   0.41025   0.45773   0.00000  Uiso   1.00
C150   C     0.07686   0.44510   0.41187   0.00000  Uiso   1.00
C151   C     0.02343   0.50127   0.37256   0.00000  Uiso   1.00
C152   C     0.17699   0.38881   0.25159   0.00000  Uiso   1.00
C153   C     0.17648   0.32073   0.26391   0.00000  Uiso   1.00
C154   C     0.17903   0.27904   0.18725   0.00000  Uiso   1.00
C155   C     0.17804   0.21880   0.21395   0.00000  Uiso   1.00
C156   C     0.21015   0.41148   0.31633   0.00000  Uiso   1.00
C157   C     0.24101   0.44610   0.28374   0.00000  Uiso   1.00
C158   C     0.26836   0.46227   0.35455   0.00000  Uiso   1.00
C159   C     0.14004   0.41173   0.30042   0.00000  Uiso   1.00
C160   C     0.11196   0.44656   0.25446   0.00000  Uiso   1.00
C161   C     0.08029   0.46296   0.31190   0.00000  Uiso   1.00
H162   H     0.16803   0.34212   0.51299   0.00000  Uiso   1.00
H163   H     0.16942   0.22895   0.46775   0.00000  Uiso   1.00
H164   H     0.23138   0.39599   0.56422   0.00000  Uiso   1.00
H165   H     0.10235   0.39645   0.53495   0.00000  Uiso   1.00
H166   H     0.17248   0.11134   0.37358   0.00000  Uiso   1.00
H167   H     0.30313   0.46358   0.57700   0.00000  Uiso   1.00
H168   H     0.03104   0.46455   0.51528   0.00000  Uiso   1.00
H169   H     0.17966   0.40269   0.17389   0.00000  Uiso   1.00
H170   H     0.18168   0.29284   0.11004   0.00000  Uiso   1.00
H171   H     0.24365   0.45989   0.20651   0.00000  Uiso   1.00
H172   H     0.11461   0.46035   0.17724   0.00000  Uiso   1.00
H173   H     0.18244   0.16320   0.08325   0.00000  Uiso   1.00
H174   H     0.31308   0.51544   0.28667   0.00000  Uiso   1.00
H175   H     0.04099   0.51641   0.22495   0.00000  Uiso   1.00
O176   O     0.17859   0.06392   0.19253   0.00000  Uiso   1.00
O177   O     0.34999   0.52605   0.45941   0.00000  Uiso   1.00
O178   O     0.99301   0.52732   0.37844   0.00000  Uiso   1.00
N179   N     0.17454   0.13862   0.31401   0.00000  Uiso   1.00
N180   N     0.29669   0.46793   0.50419   0.00000  Uiso   1.00
N181   N     0.04231   0.46886   0.44650   0.00000  Uiso   1.00
N182   N     0.17989   0.16653   0.15779   0.00000  Uiso   1.00
N183   N     0.30204   0.49584   0.34797   0.00000  Uiso   1.00
N184   N     0.04767   0.49676   0.29028   0.00000  Uiso   1.00
C185   C     0.32931   0.85599   0.43530   0.00000  Uiso   1.00
C186   C     0.32695   0.80291   0.36370   0.00000  Uiso   1.00
C187   C     0.32794   0.74273   0.39051   0.00000  Uiso   1.00
C188   C     0.32538   0.70095   0.31392   0.00000  Uiso   1.00
C189   C     0.32221   0.61581   0.21791   0.00000  Uiso   1.00
C190   C     0.29328   0.89366   0.41611   0.00000  Uiso   1.00
C191   C     0.26596   0.90979   0.48700   0.00000  Uiso   1.00
C192   C     0.23507   0.94441   0.45452   0.00000  Uiso   1.00
C193   C     0.17964   0.00020   0.43991   0.00000  Uiso   1.00
C194   C     0.36338   0.89390   0.40021   0.00000  Uiso   1.00
C195   C     0.39501   0.91025   0.45773   0.00000  Uiso   1.00
C196   C     0.42314   0.94510   0.41187   0.00000  Uiso   1.00
C197   C     0.47657   0.00127   0.37256   0.00000  Uiso   1.00
C198   C     0.32301   0.88881   0.25159   0.00000  Uiso   1.00
C199   C     0.32352   0.82073   0.26391   0.00000  Uiso   1.00
C200   C     0.32097   0.77904   0.18725   0.00000  Uiso   1.00
C201   C     0.32196   0.71880   0.21395   0.00000  Uiso   1.00
C202   C     0.28985   0.91148   0.31633   0.00000  Uiso   1.00
C203   C     0.25899   0.94610   0.28374   0.00000  Uiso   1.00
C204   C     0.23164   0.96227   0.35455   0.00000  Uiso   1.00
C205   C     0.35996   0.91173   0.30042   0.00000  Uiso   1.00
C206   C     0.38804   0.94656   0.25446   0.00000  Uiso   1.00
C207   C     0.41971   0.96296   0.31190   0.00000  Uiso   1.00
H208   H     0.33197   0.84212   0.51299   0.00000  Uiso   1.00
H209   H     0.33058   0.72895   0.46775   0.00000  Uiso   1.00
H210   H     0.26862   0.89599   0.56422   0.00000  Uiso   1.00
H211   H     0.39765   0.89645   0.53495   0.00000  Uiso   1.00
H212   H     0.32752   0.61134   0.37358   0.00000  Uiso   1.00
H213   H     0.19687   0.96358   0.57700   0.00000  Uiso   1.00
H214   H     0.46896   0.96455   0.51528   0.00000  Uiso   1.00
H215   H     0.32034   0.90269   0.17389   0.00000  Uiso   1.00
H216   H     0.31832   0.79284   0.11004   0.00000  Uiso   1.00
H217   H     0.25635   0.95989   0.20651   0.00000  Uiso   1.00
H218   H     0.38539   0.96035   0.17724   0.00000  Uiso   1.00
H219   H     0.31756   0.66320   0.08325   0.00000  Uiso   1.00
H220   H     0.18692   0.01544   0.28667   0.00000  Uiso   1.00
H221   H     0.45901   0.01641   0.22495   0.00000  Uiso   1.00
O222   O     0.32141   0.56392   0.19253   0.00000  Uiso   1.00
O223   O     0.15001   0.02605   0.45941   0.00000  Uiso   1.00
O224   O     0.50699   0.02732   0.37844   0.00000  Uiso   1.00
N225   N     0.32546   0.63862   0.31401   0.00000  Uiso   1.00
N226   N     0.20331   0.96793   0.50419   0.00000  Uiso   1.00
N227   N     0.45769   0.96886   0.44650   0.00000  Uiso   1.00
N228   N     0.32011   0.66653   0.15779   0.00000  Uiso   1.00
N229   N     0.19796   0.99584   0.34797   0.00000  Uiso   1.00
N230   N     0.45233   0.99676   0.29028   0.00000  Uiso   1.00
C231   C     0.17069   0.64401   0.93530   0.00000  Uiso   1.00
C232   C     0.17305   0.69709   0.86370   0.00000  Uiso   1.00
C233   C     0.17206   0.75727   0.89051   0.00000  Uiso   1.00
C234   C     0.17462   0.79905   0.81392   0.00000  Uiso   1.00
C235   C     0.17779   0.88419   0.71791   0.00000  Uiso   1.00
C236   C     0.20672   0.60634   0.91611   0.00000  Uiso   1.00
C237   C     0.23404   0.59021   0.98700   0.00000  Uiso   1.00
C238   C     0.26493   0.55559   0.95452   0.00000  Uiso   1.00
C239   C     0.32036   0.49980   0.93991   0.00000  Uiso   1.00
C240   C     0.13662   0.60610   0.90021   0.00000  Uiso   1.00
C241   C     0.10499   0.58975   0.95773   0.00000  Uiso   1.00
C242   C     0.07686   0.55490   0.91187   0.00000  Uiso   1.00
C243   C     0.02343   0.49873   0.87256   0.00000  Uiso   1.00
C244   C     0.17699   0.61119   0.75159   0.00000  Uiso   1.00
C245   C     0.17648   0.67927   0.76391   0.00000  Uiso   1.00
C246   C     0.17903   0.72096   0.68725   0.00000  Uiso   1.00
C247   C     0.17804   0.78120   0.71395   0.00000  Uiso   1.00
C248   C     0.21015   0.58852   0.81633   0.00000  Uiso   1.00
C249   C     0.24101   0.55390   0.78374   0.00000  Uiso   1.00
C250   C     0.26836   0.53773   0.85455   0.00000  Uiso   1.00
C251   C     0.14004   0.58827   0.80042   0.00000  Uiso   1.00
C252   C     0.11196   0.55344   0.75446   0.00000  Uiso   1.00
C253   C     0.08029   0.53704   0.81190   0.00000  Uiso   1.00
H254   H     0.16803   0.65788   0.01299   0.00000  Uiso   1.00
H255   H     0.16942   0.77105   0.96775   0.00000  Uiso   1.00
H256   H     0.23138   0.60401   0.06422   0.00000  Uiso   1.00
H257   H     0.10235   0.60355   0.03495   0.00000  Uiso   1.00
H258   H     0.17248   0.88866   0.87358   0.00000  Uiso   1.00
H259   H     0.30313   0.53642   0.07700   0.00000  Uiso   1.00
H260   H     0.03104   0.53545   0.01528   0.00000  Uiso   1.00
H261   H     0.17966   0.59731   0.67389   0.00000  Uiso   1.00
H262   H     0.18168   0.70716   0.61004   0.00000  Uiso   1.00
H263   H     0.24365   0.54011   0.70651   0.00000  Uiso   1.00
H264   H     0.11461   0.53965   0.67724   0.00000  Uiso   1.00
H265   H     0.18244   0.83680   0.58325   0.00000  Uiso   1.00
H266   H     0.31308   0.48456   0.78667   0.00000  Uiso   1.00
H267   H     0.04099   0.48359   0.72495   0.00000  Uiso   1.00
O268   O     0.17859   0.93608   0.69253   0.00000  Uiso   1.00
O269   O     0.34999   0.47395   0.95941   0.00000  Uiso   1.00
O270   O     0.99301   0.47268   0.87844   0.00000  Uiso   1.00
N271   N     0.17454   0.86138   0.81401   0.00000  Uiso   1.00
N272   N     0.29669   0.53207   0.00419   0.00000  Uiso   1.00
N273   N     0.04231   0.53114   0.94650   0.00000  Uiso   1.00
N274   N     0.17989   0.83347   0.65779   0.00000  Uiso   1.00
N275   N     0.30204   0.50416   0.84797   0.00000  Uiso   1.00
N276   N     0.04767   0.50324   0.79028   0.00000  Uiso   1.00
C277   C     0.67069   0.85599   0.06470   0.00000  Uiso   1.00
C278   C     0.67305   0.80291   0.13630   0.00000  Uiso   1.00
C279   C     0.67206   0.74273   0.10949   0.00000  Uiso   1.00
C280   C     0.67462   0.70095   0.18608   0.00000  Uiso   1.00
C281   C     0.67779   0.61581   0.28209   0.00000  Uiso   1.00
C282   C     0.70672   0.89366   0.08389   0.00000  Uiso   1.00
C283   C     0.73404   0.90979   0.01300   0.00000  Uiso   1.00
C284   C     0.76493   0.94441   0.04548   0.00000  Uiso   1.00
C285   C     0.82036   0.00020   0.06009   0.00000  Uiso   1.00
C286   C     0.63662   0.89390   0.09979   0.00000  Uiso   1.00
C287   C     0.60499   0.91025   0.04227   0.00000  Uiso   1.00
C288   C     0.57686   0.94510   0.08813   0.00000  Uiso   1.00
C289   C     0.52343   0.00127   0.12744   0.00000  Uiso   1.00
C290   C     0.67699   0.88881   0.24841   0.00000  Uiso   1.00
C291   C     0.67648   0.82073   0.23609   0.00000  Uiso   1.00
C292   C     0.67903   0.77904   0.31275   0.00000  Uiso   1.00
C293   C     0.67804   0.71880   0.28605   0.00000  Uiso   1.00
C294   C     0.71015   0.91148   0.18367   0.00000  Uiso   1.00
C295   C     0.74101   0.94610   0.21626   0.00000  Uiso   1.00
C296   C     0.76836   0.96227   0.14545   0.00000  Uiso   1.00
C297   C     0.64004   0.91173   0.19958   0.00000  Uiso   1.00
C298   C     0.61196   0.94656   0.24554   0.00000  Uiso   1.00
C299   C     0.58029   0.96296   0.18810   0.00000  Uiso   1.00
H300   H     0.66803   0.84212   0.98701   0.00000  Uiso   1.00
H301   H     0.66942   0.72895   0.03225   0.00000  Uiso   1.00
H302   H     0.73138   0.89599   0.93578   0.00000  Uiso   1.00
H303   H     0.60235   0.89645   0.96505   0.00000  Uiso   1.00
H304   H     0.67248   0.61134   0.12642   0.00000  Uiso   1.00
H305   H     0.80313   0.96358   0.92300   0.00000  Uiso   1.00
H306   H     0.53104   0.96455   0.98472   0.00000  Uiso   1.00
H307   H     0.67966   0.90269   0.32611   0.00000  Uiso   1.00
H308   H     0.68168   0.79284   0.38996   0.00000  Uiso   1.00
H309   H     0.74365   0.95989   0.29349   0.00000  Uiso   1.00
H310   H     0.61461   0.96035   0.32276   0.00000  Uiso   1.00
H311   H     0.68244   0.66320   0.41675   0.00000  Uiso   1.00
H312   H     0.81308   0.01544   0.21333   0.00000  Uiso   1.00
H313   H     0.54099   0.01641   0.27505   0.00000  Uiso   1.00
O314   O     0.67859   0.56392   0.30747   0.00000  Uiso   1.00
O315   O     0.84999   0.02605   0.04059   0.00000  Uiso   1.00
O316   O     0.49301   0.02732   0.12156   0.00000  Uiso   1.00
N317   N     0.67454   0.63862   0.18599   0.00000  Uiso   1.00
N318   N     0.79669   0.96793   0.99581   0.00000  Uiso   1.00
N319   N     0.54231   0.96886   0.05350   0.00000  Uiso   1.00
N320   N     0.67989   0.66653   0.34221   0.00000  Uiso   1.00
N321   N     0.80204   0.99584   0.15203   0.00000  Uiso   1.00
N322   N     0.54767   0.99676   0.20972   0.00000  Uiso   1.00
C323   C     0.82931   0.64401   0.56470   0.00000  Uiso   1.00
C324   C     0.82695   0.69709   0.63630   0.00000  Uiso   1.00
C325   C     0.82794   0.75727   0.60949   0.00000  Uiso   1.00
C326   C     0.82538   0.79905   0.68608   0.00000  Uiso   1.00
C327   C     0.82221   0.88419   0.78209   0.00000  Uiso   1.00
C328   C     0.79328   0.60634   0.58389   0.00000  Uiso   1.00
C329   C     0.76596   0.59021   0.51300   0.00000  Uiso   1.00
C330   C     0.73507   0.55559   0.54548   0.00000  Uiso   1.00
C331   C     0.67964   0.49980   0.56009   0.00000  Uiso   1.00
C332   C     0.86338   0.60610   0.59979   0.00000  Uiso   1.00
C333   C     0.89501   0.58975   0.54227   0.00000  Uiso   1.00
C334   C     0.92314   0.55490   0.58813   0.00000  Uiso   1.00
C335   C     0.97657   0.49873   0.62744   0.00000  Uiso   1.00
C336   C     0.82301   0.61119   0.74841   0.00000  Uiso   1.00
C337   C     0.82352   0.67927   0.73609   0.00000  Uiso   1.00
C338   C     0.82097   0.72096   0.81275   0.00000  Uiso   1.00
C339   C     0.82196   0.78120   0.78605   0.00000  Uiso   1.00
C340   C     0.78985   0.58852   0.68367   0.00000  Uiso   1.00
C341   C     0.75899   0.55390   0.71626   0.00000  Uiso   1.00
C342   C     0.73164   0.53773   0.64545   0.00000  Uiso   1.00
C343   C     0.85996   0.58827   0.69958   0.00000  Uiso   1.00
C344   C     0.88804   0.55344   0.74554   0.00000  Uiso   1.00
C345   C     0.91971   0.53704   0.68810   0.00000  Uiso   1.00
H346   H     0.83197   0.65788   0.48701   0.00000  Uiso   1.00
H347   H     0.83058   0.77105   0.53225   0.00000  Uiso   1.00
H348   H     0.76862   0.60401   0.43578   0.00000  Uiso   1.00
H349   H     0.89765   0.60355   0.46505   0.00000  Uiso   1.00
H350   H     0.82752   0.88866   0.62642   0.00000  Uiso   1.00
H351   H     0.69687   0.53642   0.42300   0.00000  Uiso   1.00
H352   H     0.96896   0.53545   0.48472   0.00000  Uiso   1.00
H353   H     0.82034   0.59731   0.82611   0.00000  Uiso   1.00
H354   H     0.81832   0.70716   0.88996   0.00000  Uiso   1.00
H355   H     0.75635   0.54011   0.79349   0.00000  Uiso   1.00
H356   H     0.88539   0.53965   0.82276   0.00000  Uiso   1.00
H357   H     0.81756   0.83680   0.91675   0.00000  Uiso   1.00
H358   H     0.68692   0.48456   0.71333   0.00000  Uiso   1.00
H359   H     0.95901   0.48359   0.77505   0.00000  Uiso   1.00
O360   O     0.82141   0.93608   0.80747   0.00000  Uiso   1.00
O361   O     0.65001   0.47395   0.54059   0.00000  Uiso   1.00
O362   O     0.00699   0.47268   0.62156   0.00000  Uiso   1.00
N363   N     0.82546   0.86138   0.68599   0.00000  Uiso   1.00
N364   N     0.70331   0.53207   0.49581   0.00000  Uiso   1.00
N365   N     0.95769   0.53114   0.55350   0.00000  Uiso   1.00
N366   N     0.82011   0.83347   0.84221   0.00000  Uiso   1.00
N367   N     0.69796   0.50416   0.65203   0.00000  Uiso   1.00
N368   N     0.95233   0.50324   0.70972   0.00000  Uiso   1.00
