data_job_04391
_audit_creation_date              2018-12-19
_audit_creation_method            'Materials Studio'
_symmetry_space_group_name_H-M    'P1'
_symmetry_Int_Tables_number       1
_symmetry_cell_setting            triclinic
loop_
_symmetry_equiv_pos_as_xyz
  x,y,z
_cell_length_a                    7.0269
_cell_length_b                    41.8085
_cell_length_c                    24.8634
_cell_angle_alpha                 90.0000
_cell_angle_beta                  106.3193
_cell_angle_gamma                 90.0000
loop_
_atom_site_label
_atom_site_type_symbol
_atom_site_fract_x
_atom_site_fract_y
_atom_site_fract_z
_atom_site_U_iso_or_equiv
_atom_site_adp_type
_atom_site_occupancy
C1     C     0.09126   0.09889   0.37728   0.00000  Uiso   1.00
C2     C     0.96317   0.12840   0.37674   0.00000  Uiso   1.00
C3     C     0.02596   0.15991   0.37770   0.00000  Uiso   1.00
C4     C     0.88618   0.18350   0.37699   0.00000  Uiso   1.00
C5     C     0.71707   0.23049   0.37643   0.00000  Uiso   1.00
C6     C     0.07820   0.07903   0.42757   0.00000  Uiso   1.00
C7     C     0.23772   0.06905   0.47126   0.00000  Uiso   1.00
C8     C     0.19476   0.05107   0.51333   0.00000  Uiso   1.00
C9     C     0.20424   0.02141   0.59166   0.00000  Uiso   1.00
C10    C     0.98576   0.07953   0.32551   0.00000  Uiso   1.00
C11    C     0.06756   0.06994   0.28339   0.00000  Uiso   1.00
C12    C     0.94679   0.05238   0.23955   0.00000  Uiso   1.00
C13    C     0.81274   0.02348   0.15941   0.00000  Uiso   1.00
C14    C     0.73136   0.08472   0.37433   0.00000  Uiso   1.00
C15    C     0.76769   0.12070   0.37514   0.00000  Uiso   1.00
C16    C     0.62778   0.14424   0.37444   0.00000  Uiso   1.00
C17    C     0.69035   0.17579   0.37539   0.00000  Uiso   1.00
C18    C     0.88273   0.07134   0.42597   0.00000  Uiso   1.00
C19    C     0.83953   0.05337   0.46800   0.00000  Uiso   1.00
C20    C     0.99893   0.04337   0.51173   0.00000  Uiso   1.00
C21    C     0.79028   0.07183   0.32391   0.00000  Uiso   1.00
C22    C     0.66937   0.05427   0.28013   0.00000  Uiso   1.00
C23    C     0.75096   0.04467   0.23794   0.00000  Uiso   1.00
H24    H     0.24345   0.10488   0.37853   0.00000  Uiso   1.00
H25    H     0.17726   0.16586   0.37894   0.00000  Uiso   1.00
H26    H     0.38898   0.07500   0.47248   0.00000  Uiso   1.00
H27    H     0.21884   0.07590   0.28464   0.00000  Uiso   1.00
H28    H     0.01769   0.23008   0.37871   0.00000  Uiso   1.00
H29    H     0.46411   0.03849   0.57593   0.00000  Uiso   1.00
H30    H     0.10535   0.04039   0.17984   0.00000  Uiso   1.00
H31    H     0.57916   0.07873   0.37309   0.00000  Uiso   1.00
H32    H     0.47651   0.13828   0.37320   0.00000  Uiso   1.00
H33    H     0.68824   0.04742   0.46674   0.00000  Uiso   1.00
H34    H     0.51810   0.04832   0.27890   0.00000  Uiso   1.00
H35    H     0.44894   0.20769   0.37405   0.00000  Uiso   1.00
H36    H     0.89537   0.01611   0.57128   0.00000  Uiso   1.00
H37    H     0.53660   0.01801   0.17519   0.00000  Uiso   1.00
O38    O     0.67779   0.25853   0.37657   0.00000  Uiso   1.00
O39    O     0.26348   0.00717   0.63531   0.00000  Uiso   1.00
O40    O     0.79279   0.00966   0.11565   0.00000  Uiso   1.00
N41    N     0.89791   0.21664   0.37759   0.00000  Uiso   1.00
N42    N     0.31529   0.03752   0.56199   0.00000  Uiso   1.00
N43    N     0.97989   0.03929   0.19168   0.00000  Uiso   1.00
N44    N     0.59187   0.20459   0.37508   0.00000  Uiso   1.00
N45    N     0.00925   0.02548   0.55948   0.00000  Uiso   1.00
N46    N     0.67385   0.02724   0.18917   0.00000  Uiso   1.00
C47    C     0.90116   0.41314   0.37717   0.00000  Uiso   1.00
C48    C     0.00848   0.38157   0.37588   0.00000  Uiso   1.00
C49    C     0.92833   0.35129   0.37668   0.00000  Uiso   1.00
C50    C     0.05064   0.32541   0.37525   0.00000  Uiso   1.00
C51    C     0.18759   0.27574   0.37361   0.00000  Uiso   1.00
C52    C     0.02793   0.43157   0.42748   0.00000  Uiso   1.00
C53    C     0.96413   0.44333   0.47165   0.00000  Uiso   1.00
C54    C     0.10281   0.45955   0.51365   0.00000  Uiso   1.00
C55    C     0.26992   0.48752   0.59209   0.00000  Uiso   1.00
C56    C     0.91359   0.43168   0.32545   0.00000  Uiso   1.00
C57    C     0.75364   0.44354   0.28385   0.00000  Uiso   1.00
C58    C     0.79606   0.45986   0.23995   0.00000  Uiso   1.00
C59    C     0.78563   0.48800   0.15997   0.00000  Uiso   1.00
C60    C     0.26089   0.42101   0.37321   0.00000  Uiso   1.00
C61    C     0.20387   0.38585   0.37373   0.00000  Uiso   1.00
C62    C     0.32633   0.36001   0.37230   0.00000  Uiso   1.00
C63    C     0.24637   0.32970   0.37310   0.00000  Uiso   1.00
C64    C     0.22332   0.43584   0.42533   0.00000  Uiso   1.00
C65    C     0.36212   0.45205   0.46727   0.00000  Uiso   1.00
C66    C     0.29855   0.46383   0.51150   0.00000  Uiso   1.00
C67    C     0.10898   0.43595   0.32330   0.00000  Uiso   1.00
C68    C     0.15164   0.45226   0.27946   0.00000  Uiso   1.00
C69    C     0.99180   0.46414   0.23780   0.00000  Uiso   1.00
H70    H     0.74904   0.40981   0.37885   0.00000  Uiso   1.00
H71    H     0.77712   0.34799   0.37835   0.00000  Uiso   1.00
H72    H     0.81291   0.44002   0.47330   0.00000  Uiso   1.00
H73    H     0.60246   0.44023   0.28553   0.00000  Uiso   1.00
H74    H     0.89444   0.28135   0.37687   0.00000  Uiso   1.00
H75    H     0.96988   0.47540   0.57707   0.00000  Uiso   1.00
H76    H     0.52611   0.47584   0.18111   0.00000  Uiso   1.00
H77    H     0.41301   0.42435   0.37154   0.00000  Uiso   1.00
H78    H     0.47753   0.36333   0.37064   0.00000  Uiso   1.00
H79    H     0.51331   0.45536   0.46559   0.00000  Uiso   1.00
H80    H     0.30286   0.45556   0.27781   0.00000  Uiso   1.00
H81    H     0.46292   0.29379   0.37061   0.00000  Uiso   1.00
H82    H     0.53835   0.48785   0.57081   0.00000  Uiso   1.00
H83    H     0.09459   0.48829   0.17485   0.00000  Uiso   1.00
O84    O     0.20916   0.24717   0.37330   0.00000  Uiso   1.00
O85    O     0.30812   0.50177   0.63595   0.00000  Uiso   1.00
O86    O     0.72590   0.50234   0.11645   0.00000  Uiso   1.00
N87    N     0.01937   0.29265   0.37551   0.00000  Uiso   1.00
N88    N     0.08991   0.47408   0.56269   0.00000  Uiso   1.00
N89    N     0.67502   0.47449   0.19250   0.00000  Uiso   1.00
N90    N     0.32526   0.29934   0.37214   0.00000  Uiso   1.00
N91    N     0.39580   0.48077   0.55932   0.00000  Uiso   1.00
N92    N     0.98091   0.48119   0.18913   0.00000  Uiso   1.00
C93    C     0.90874   0.59889   0.12272   0.00000  Uiso   1.00
C94    C     0.03683   0.62840   0.12326   0.00000  Uiso   1.00
C95    C     0.97404   0.65991   0.12230   0.00000  Uiso   1.00
C96    C     0.11382   0.68350   0.12301   0.00000  Uiso   1.00
C97    C     0.28293   0.73049   0.12357   0.00000  Uiso   1.00
C98    C     0.92180   0.57903   0.07243   0.00000  Uiso   1.00
C99    C     0.76228   0.56905   0.02874   0.00000  Uiso   1.00
C100   C     0.80524   0.55107   0.98667   0.00000  Uiso   1.00
C101   C     0.79576   0.52141   0.90834   0.00000  Uiso   1.00
C102   C     0.01424   0.57953   0.17449   0.00000  Uiso   1.00
C103   C     0.93244   0.56994   0.21661   0.00000  Uiso   1.00
C104   C     0.05321   0.55238   0.26045   0.00000  Uiso   1.00
C105   C     0.18726   0.52348   0.34059   0.00000  Uiso   1.00
C106   C     0.26864   0.58472   0.12567   0.00000  Uiso   1.00
C107   C     0.23231   0.62070   0.12486   0.00000  Uiso   1.00
C108   C     0.37222   0.64424   0.12556   0.00000  Uiso   1.00
C109   C     0.30965   0.67579   0.12461   0.00000  Uiso   1.00
C110   C     0.11727   0.57134   0.07403   0.00000  Uiso   1.00
C111   C     0.16047   0.55337   0.03200   0.00000  Uiso   1.00
C112   C     0.00107   0.54337   0.98827   0.00000  Uiso   1.00
C113   C     0.20972   0.57183   0.17609   0.00000  Uiso   1.00
C114   C     0.33063   0.55427   0.21987   0.00000  Uiso   1.00
C115   C     0.24904   0.54467   0.26206   0.00000  Uiso   1.00
H116   H     0.75655   0.60488   0.12147   0.00000  Uiso   1.00
H117   H     0.82274   0.66586   0.12106   0.00000  Uiso   1.00
H118   H     0.61102   0.57500   0.02752   0.00000  Uiso   1.00
H119   H     0.78116   0.57590   0.21536   0.00000  Uiso   1.00
H120   H     0.98231   0.73008   0.12129   0.00000  Uiso   1.00
H121   H     0.53589   0.53849   0.92407   0.00000  Uiso   1.00
H122   H     0.89465   0.54039   0.32016   0.00000  Uiso   1.00
H123   H     0.42084   0.57873   0.12691   0.00000  Uiso   1.00
H124   H     0.52349   0.63828   0.12680   0.00000  Uiso   1.00
H125   H     0.31176   0.54742   0.03326   0.00000  Uiso   1.00
H126   H     0.48190   0.54832   0.22110   0.00000  Uiso   1.00
H127   H     0.55106   0.70769   0.12595   0.00000  Uiso   1.00
H128   H     0.10463   0.51611   0.92872   0.00000  Uiso   1.00
H129   H     0.46340   0.51801   0.32481   0.00000  Uiso   1.00
O130   O     0.32221   0.75853   0.12343   0.00000  Uiso   1.00
O131   O     0.73652   0.50717   0.86469   0.00000  Uiso   1.00
O132   O     0.20721   0.50966   0.38435   0.00000  Uiso   1.00
N133   N     0.10209   0.71664   0.12241   0.00000  Uiso   1.00
N134   N     0.68471   0.53752   0.93801   0.00000  Uiso   1.00
N135   N     0.02011   0.53929   0.30832   0.00000  Uiso   1.00
N136   N     0.40813   0.70459   0.12492   0.00000  Uiso   1.00
N137   N     0.99075   0.52548   0.94052   0.00000  Uiso   1.00
N138   N     0.32615   0.52724   0.31083   0.00000  Uiso   1.00
C139   C     0.09884   0.91314   0.12283   0.00000  Uiso   1.00
C140   C     0.99152   0.88157   0.12412   0.00000  Uiso   1.00
C141   C     0.07167   0.85129   0.12332   0.00000  Uiso   1.00
C142   C     0.94936   0.82541   0.12475   0.00000  Uiso   1.00
C143   C     0.81241   0.77574   0.12639   0.00000  Uiso   1.00
C144   C     0.97207   0.93157   0.07252   0.00000  Uiso   1.00
C145   C     0.03587   0.94333   0.02835   0.00000  Uiso   1.00
C146   C     0.89719   0.95955   0.98635   0.00000  Uiso   1.00
C147   C     0.73008   0.98752   0.90791   0.00000  Uiso   1.00
C148   C     0.08641   0.93168   0.17455   0.00000  Uiso   1.00
C149   C     0.24636   0.94354   0.21615   0.00000  Uiso   1.00
C150   C     0.20394   0.95986   0.26005   0.00000  Uiso   1.00
C151   C     0.21437   0.98800   0.34003   0.00000  Uiso   1.00
C152   C     0.73911   0.92101   0.12679   0.00000  Uiso   1.00
C153   C     0.79613   0.88585   0.12627   0.00000  Uiso   1.00
C154   C     0.67367   0.86001   0.12770   0.00000  Uiso   1.00
C155   C     0.75363   0.82970   0.12690   0.00000  Uiso   1.00
C156   C     0.77668   0.93584   0.07467   0.00000  Uiso   1.00
C157   C     0.63788   0.95205   0.03273   0.00000  Uiso   1.00
C158   C     0.70145   0.96383   0.98850   0.00000  Uiso   1.00
C159   C     0.89102   0.93595   0.17670   0.00000  Uiso   1.00
C160   C     0.84836   0.95226   0.22054   0.00000  Uiso   1.00
C161   C     0.00820   0.96414   0.26220   0.00000  Uiso   1.00
H162   H     0.25096   0.90981   0.12115   0.00000  Uiso   1.00
H163   H     0.22288   0.84799   0.12165   0.00000  Uiso   1.00
H164   H     0.18709   0.94002   0.02670   0.00000  Uiso   1.00
H165   H     0.39754   0.94023   0.21447   0.00000  Uiso   1.00
H166   H     0.10556   0.78135   0.12313   0.00000  Uiso   1.00
H167   H     0.03012   0.97540   0.92293   0.00000  Uiso   1.00
H168   H     0.47389   0.97584   0.31889   0.00000  Uiso   1.00
H169   H     0.58699   0.92435   0.12846   0.00000  Uiso   1.00
H170   H     0.52247   0.86333   0.12936   0.00000  Uiso   1.00
H171   H     0.48669   0.95536   0.03441   0.00000  Uiso   1.00
H172   H     0.69714   0.95556   0.22219   0.00000  Uiso   1.00
H173   H     0.53708   0.79379   0.12939   0.00000  Uiso   1.00
H174   H     0.46165   0.98785   0.92919   0.00000  Uiso   1.00
H175   H     0.90541   0.98829   0.32515   0.00000  Uiso   1.00
O176   O     0.79084   0.74717   0.12670   0.00000  Uiso   1.00
O177   O     0.69188   0.00177   0.86405   0.00000  Uiso   1.00
O178   O     0.27410   0.00234   0.38355   0.00000  Uiso   1.00
N179   N     0.98063   0.79265   0.12449   0.00000  Uiso   1.00
N180   N     0.91009   0.97408   0.93731   0.00000  Uiso   1.00
N181   N     0.32498   0.97449   0.30750   0.00000  Uiso   1.00
N182   N     0.67474   0.79934   0.12786   0.00000  Uiso   1.00
N183   N     0.60420   0.98077   0.94068   0.00000  Uiso   1.00
N184   N     0.01909   0.98119   0.31087   0.00000  Uiso   1.00
C185   C     0.90874   0.90111   0.62272   0.00000  Uiso   1.00
C186   C     0.03683   0.87160   0.62326   0.00000  Uiso   1.00
C187   C     0.97404   0.84009   0.62230   0.00000  Uiso   1.00
C188   C     0.11382   0.81650   0.62301   0.00000  Uiso   1.00
C189   C     0.28293   0.76951   0.62357   0.00000  Uiso   1.00
C190   C     0.92180   0.92097   0.57243   0.00000  Uiso   1.00
C191   C     0.76228   0.93095   0.52874   0.00000  Uiso   1.00
C192   C     0.80524   0.94893   0.48667   0.00000  Uiso   1.00
C193   C     0.79576   0.97859   0.40834   0.00000  Uiso   1.00
C194   C     0.01424   0.92047   0.67449   0.00000  Uiso   1.00
C195   C     0.93244   0.93006   0.71661   0.00000  Uiso   1.00
C196   C     0.05321   0.94762   0.76045   0.00000  Uiso   1.00
C197   C     0.18726   0.97652   0.84059   0.00000  Uiso   1.00
C198   C     0.26864   0.91528   0.62567   0.00000  Uiso   1.00
C199   C     0.23231   0.87930   0.62486   0.00000  Uiso   1.00
C200   C     0.37222   0.85576   0.62556   0.00000  Uiso   1.00
C201   C     0.30965   0.82421   0.62461   0.00000  Uiso   1.00
C202   C     0.11727   0.92866   0.57403   0.00000  Uiso   1.00
C203   C     0.16047   0.94663   0.53200   0.00000  Uiso   1.00
C204   C     0.00107   0.95663   0.48827   0.00000  Uiso   1.00
C205   C     0.20972   0.92817   0.67609   0.00000  Uiso   1.00
C206   C     0.33063   0.94573   0.71987   0.00000  Uiso   1.00
C207   C     0.24904   0.95533   0.76206   0.00000  Uiso   1.00
H208   H     0.75655   0.89512   0.62147   0.00000  Uiso   1.00
H209   H     0.82274   0.83414   0.62106   0.00000  Uiso   1.00
H210   H     0.61102   0.92500   0.52752   0.00000  Uiso   1.00
H211   H     0.78116   0.92410   0.71536   0.00000  Uiso   1.00
H212   H     0.98231   0.76992   0.62129   0.00000  Uiso   1.00
H213   H     0.53589   0.96151   0.42407   0.00000  Uiso   1.00
H214   H     0.89465   0.95961   0.82016   0.00000  Uiso   1.00
H215   H     0.42084   0.92127   0.62691   0.00000  Uiso   1.00
H216   H     0.52349   0.86172   0.62680   0.00000  Uiso   1.00
H217   H     0.31176   0.95258   0.53326   0.00000  Uiso   1.00
H218   H     0.48190   0.95168   0.72110   0.00000  Uiso   1.00
H219   H     0.55106   0.79231   0.62595   0.00000  Uiso   1.00
H220   H     0.10463   0.98389   0.42872   0.00000  Uiso   1.00
H221   H     0.46340   0.98199   0.82481   0.00000  Uiso   1.00
O222   O     0.32221   0.74147   0.62343   0.00000  Uiso   1.00
O223   O     0.73652   0.99283   0.36469   0.00000  Uiso   1.00
O224   O     0.20721   0.99034   0.88435   0.00000  Uiso   1.00
N225   N     0.10209   0.78336   0.62241   0.00000  Uiso   1.00
N226   N     0.68471   0.96248   0.43801   0.00000  Uiso   1.00
N227   N     0.02011   0.96071   0.80832   0.00000  Uiso   1.00
N228   N     0.40813   0.79541   0.62492   0.00000  Uiso   1.00
N229   N     0.99075   0.97452   0.44052   0.00000  Uiso   1.00
N230   N     0.32615   0.97276   0.81083   0.00000  Uiso   1.00
C231   C     0.09884   0.58686   0.62283   0.00000  Uiso   1.00
C232   C     0.99152   0.61843   0.62412   0.00000  Uiso   1.00
C233   C     0.07167   0.64871   0.62332   0.00000  Uiso   1.00
C234   C     0.94936   0.67459   0.62475   0.00000  Uiso   1.00
C235   C     0.81241   0.72426   0.62639   0.00000  Uiso   1.00
C236   C     0.97207   0.56843   0.57252   0.00000  Uiso   1.00
C237   C     0.03587   0.55667   0.52835   0.00000  Uiso   1.00
C238   C     0.89719   0.54045   0.48635   0.00000  Uiso   1.00
C239   C     0.73008   0.51248   0.40791   0.00000  Uiso   1.00
C240   C     0.08641   0.56832   0.67455   0.00000  Uiso   1.00
C241   C     0.24636   0.55646   0.71615   0.00000  Uiso   1.00
C242   C     0.20394   0.54014   0.76005   0.00000  Uiso   1.00
C243   C     0.21437   0.51200   0.84003   0.00000  Uiso   1.00
C244   C     0.73911   0.57899   0.62679   0.00000  Uiso   1.00
C245   C     0.79613   0.61415   0.62627   0.00000  Uiso   1.00
C246   C     0.67367   0.63999   0.62770   0.00000  Uiso   1.00
C247   C     0.75363   0.67030   0.62690   0.00000  Uiso   1.00
C248   C     0.77668   0.56416   0.57467   0.00000  Uiso   1.00
C249   C     0.63788   0.54795   0.53273   0.00000  Uiso   1.00
C250   C     0.70145   0.53617   0.48850   0.00000  Uiso   1.00
C251   C     0.89102   0.56405   0.67670   0.00000  Uiso   1.00
C252   C     0.84836   0.54774   0.72054   0.00000  Uiso   1.00
C253   C     0.00820   0.53586   0.76220   0.00000  Uiso   1.00
H254   H     0.25096   0.59019   0.62115   0.00000  Uiso   1.00
H255   H     0.22288   0.65201   0.62165   0.00000  Uiso   1.00
H256   H     0.18709   0.55998   0.52670   0.00000  Uiso   1.00
H257   H     0.39754   0.55977   0.71447   0.00000  Uiso   1.00
H258   H     0.10556   0.71865   0.62313   0.00000  Uiso   1.00
H259   H     0.03012   0.52460   0.42293   0.00000  Uiso   1.00
H260   H     0.47389   0.52416   0.81889   0.00000  Uiso   1.00
H261   H     0.58699   0.57565   0.62846   0.00000  Uiso   1.00
H262   H     0.52247   0.63667   0.62936   0.00000  Uiso   1.00
H263   H     0.48669   0.54464   0.53441   0.00000  Uiso   1.00
H264   H     0.69714   0.54444   0.72219   0.00000  Uiso   1.00
H265   H     0.53708   0.70621   0.62939   0.00000  Uiso   1.00
H266   H     0.46165   0.51215   0.42919   0.00000  Uiso   1.00
H267   H     0.90541   0.51171   0.82515   0.00000  Uiso   1.00
O268   O     0.79084   0.75283   0.62670   0.00000  Uiso   1.00
O269   O     0.69188   0.49823   0.36405   0.00000  Uiso   1.00
O270   O     0.27410   0.49766   0.88355   0.00000  Uiso   1.00
N271   N     0.98063   0.70735   0.62449   0.00000  Uiso   1.00
N272   N     0.91009   0.52592   0.43731   0.00000  Uiso   1.00
N273   N     0.32498   0.52551   0.80750   0.00000  Uiso   1.00
N274   N     0.67474   0.70066   0.62786   0.00000  Uiso   1.00
N275   N     0.60420   0.51923   0.44068   0.00000  Uiso   1.00
N276   N     0.01909   0.51881   0.81087   0.00000  Uiso   1.00
C277   C     0.09126   0.40111   0.87728   0.00000  Uiso   1.00
C278   C     0.96317   0.37160   0.87674   0.00000  Uiso   1.00
C279   C     0.02596   0.34009   0.87770   0.00000  Uiso   1.00
C280   C     0.88618   0.31650   0.87699   0.00000  Uiso   1.00
C281   C     0.71707   0.26951   0.87643   0.00000  Uiso   1.00
C282   C     0.07820   0.42097   0.92757   0.00000  Uiso   1.00
C283   C     0.23772   0.43095   0.97126   0.00000  Uiso   1.00
C284   C     0.19476   0.44893   0.01333   0.00000  Uiso   1.00
C285   C     0.20424   0.47859   0.09166   0.00000  Uiso   1.00
C286   C     0.98576   0.42047   0.82551   0.00000  Uiso   1.00
C287   C     0.06756   0.43006   0.78339   0.00000  Uiso   1.00
C288   C     0.94679   0.44762   0.73955   0.00000  Uiso   1.00
C289   C     0.81274   0.47652   0.65941   0.00000  Uiso   1.00
C290   C     0.73136   0.41528   0.87433   0.00000  Uiso   1.00
C291   C     0.76769   0.37930   0.87514   0.00000  Uiso   1.00
C292   C     0.62778   0.35576   0.87444   0.00000  Uiso   1.00
C293   C     0.69035   0.32421   0.87539   0.00000  Uiso   1.00
C294   C     0.88273   0.42866   0.92597   0.00000  Uiso   1.00
C295   C     0.83953   0.44663   0.96800   0.00000  Uiso   1.00
C296   C     0.99893   0.45663   0.01173   0.00000  Uiso   1.00
C297   C     0.79028   0.42817   0.82391   0.00000  Uiso   1.00
C298   C     0.66937   0.44573   0.78013   0.00000  Uiso   1.00
C299   C     0.75096   0.45533   0.73794   0.00000  Uiso   1.00
H300   H     0.24345   0.39512   0.87853   0.00000  Uiso   1.00
H301   H     0.17726   0.33414   0.87894   0.00000  Uiso   1.00
H302   H     0.38898   0.42500   0.97248   0.00000  Uiso   1.00
H303   H     0.21884   0.42410   0.78464   0.00000  Uiso   1.00
H304   H     0.01769   0.26992   0.87871   0.00000  Uiso   1.00
H305   H     0.46411   0.46151   0.07593   0.00000  Uiso   1.00
H306   H     0.10535   0.45961   0.67984   0.00000  Uiso   1.00
H307   H     0.57916   0.42127   0.87309   0.00000  Uiso   1.00
H308   H     0.47651   0.36172   0.87320   0.00000  Uiso   1.00
H309   H     0.68824   0.45258   0.96674   0.00000  Uiso   1.00
H310   H     0.51810   0.45168   0.77890   0.00000  Uiso   1.00
H311   H     0.44894   0.29231   0.87405   0.00000  Uiso   1.00
H312   H     0.89537   0.48389   0.07128   0.00000  Uiso   1.00
H313   H     0.53660   0.48199   0.67519   0.00000  Uiso   1.00
O314   O     0.67779   0.24147   0.87657   0.00000  Uiso   1.00
O315   O     0.26348   0.49283   0.13531   0.00000  Uiso   1.00
O316   O     0.79279   0.49034   0.61565   0.00000  Uiso   1.00
N317   N     0.89791   0.28336   0.87759   0.00000  Uiso   1.00
N318   N     0.31529   0.46248   0.06199   0.00000  Uiso   1.00
N319   N     0.97989   0.46071   0.69168   0.00000  Uiso   1.00
N320   N     0.59187   0.29541   0.87508   0.00000  Uiso   1.00
N321   N     0.00925   0.47452   0.05948   0.00000  Uiso   1.00
N322   N     0.67385   0.47276   0.68917   0.00000  Uiso   1.00
C323   C     0.90116   0.08686   0.87717   0.00000  Uiso   1.00
C324   C     0.00848   0.11843   0.87588   0.00000  Uiso   1.00
C325   C     0.92833   0.14871   0.87668   0.00000  Uiso   1.00
C326   C     0.05064   0.17459   0.87525   0.00000  Uiso   1.00
C327   C     0.18759   0.22426   0.87361   0.00000  Uiso   1.00
C328   C     0.02793   0.06843   0.92748   0.00000  Uiso   1.00
C329   C     0.96413   0.05667   0.97165   0.00000  Uiso   1.00
C330   C     0.10281   0.04045   0.01365   0.00000  Uiso   1.00
C331   C     0.26992   0.01248   0.09209   0.00000  Uiso   1.00
C332   C     0.91359   0.06832   0.82545   0.00000  Uiso   1.00
C333   C     0.75364   0.05646   0.78385   0.00000  Uiso   1.00
C334   C     0.79606   0.04014   0.73995   0.00000  Uiso   1.00
C335   C     0.78563   0.01200   0.65997   0.00000  Uiso   1.00
C336   C     0.26089   0.07899   0.87321   0.00000  Uiso   1.00
C337   C     0.20387   0.11415   0.87373   0.00000  Uiso   1.00
C338   C     0.32633   0.13999   0.87230   0.00000  Uiso   1.00
C339   C     0.24637   0.17030   0.87310   0.00000  Uiso   1.00
C340   C     0.22332   0.06416   0.92533   0.00000  Uiso   1.00
C341   C     0.36212   0.04795   0.96727   0.00000  Uiso   1.00
C342   C     0.29855   0.03617   0.01150   0.00000  Uiso   1.00
C343   C     0.10898   0.06405   0.82330   0.00000  Uiso   1.00
C344   C     0.15164   0.04774   0.77946   0.00000  Uiso   1.00
C345   C     0.99180   0.03586   0.73780   0.00000  Uiso   1.00
H346   H     0.74904   0.09019   0.87885   0.00000  Uiso   1.00
H347   H     0.77712   0.15201   0.87835   0.00000  Uiso   1.00
H348   H     0.81291   0.05998   0.97330   0.00000  Uiso   1.00
H349   H     0.60246   0.05977   0.78553   0.00000  Uiso   1.00
H350   H     0.89444   0.21865   0.87687   0.00000  Uiso   1.00
H351   H     0.96988   0.02460   0.07707   0.00000  Uiso   1.00
H352   H     0.52611   0.02416   0.68111   0.00000  Uiso   1.00
H353   H     0.41301   0.07565   0.87154   0.00000  Uiso   1.00
H354   H     0.47753   0.13667   0.87064   0.00000  Uiso   1.00
H355   H     0.51331   0.04464   0.96559   0.00000  Uiso   1.00
H356   H     0.30286   0.04444   0.77781   0.00000  Uiso   1.00
H357   H     0.46292   0.20621   0.87061   0.00000  Uiso   1.00
H358   H     0.53835   0.01215   0.07081   0.00000  Uiso   1.00
H359   H     0.09459   0.01171   0.67485   0.00000  Uiso   1.00
O360   O     0.20916   0.25283   0.87330   0.00000  Uiso   1.00
O361   O     0.30812   0.99823   0.13595   0.00000  Uiso   1.00
O362   O     0.72590   0.99766   0.61645   0.00000  Uiso   1.00
N363   N     0.01937   0.20735   0.87551   0.00000  Uiso   1.00
N364   N     0.08991   0.02592   0.06269   0.00000  Uiso   1.00
N365   N     0.67502   0.02551   0.69250   0.00000  Uiso   1.00
N366   N     0.32526   0.20066   0.87214   0.00000  Uiso   1.00
N367   N     0.39580   0.01923   0.05932   0.00000  Uiso   1.00
N368   N     0.98091   0.01881   0.68913   0.00000  Uiso   1.00
