data_job_03980
_audit_creation_date              2018-12-19
_audit_creation_method            'Materials Studio'
_symmetry_space_group_name_H-M    'P1'
_symmetry_Int_Tables_number       1
_symmetry_cell_setting            triclinic
loop_
_symmetry_equiv_pos_as_xyz
  x,y,z
_cell_length_a                    26.7595
_cell_length_b                    10.4862
_cell_length_c                    22.7870
_cell_angle_alpha                 90.0000
_cell_angle_beta                  152.3181
_cell_angle_gamma                 90.0000
loop_
_atom_site_label
_atom_site_type_symbol
_atom_site_fract_x
_atom_site_fract_y
_atom_site_fract_z
_atom_site_U_iso_or_equiv
_atom_site_adp_type
_atom_site_occupancy
C1     C     0.69037   0.87603   0.52074   0.00000  Uiso   1.00
C2     C     0.79854   0.94196   0.62454   0.00000  Uiso   1.00
C3     C     0.85698   0.94541   0.63345   0.00000  Uiso   1.00
C4     C     0.95415   0.01063   0.73554   0.00000  Uiso   1.00
C5     C     0.11647   0.10388   0.88308   0.00000  Uiso   1.00
C6     C     0.70601   0.78291   0.58769   0.00000  Uiso   1.00
C7     C     0.68663   0.65263   0.56559   0.00000  Uiso   1.00
C8     C     0.70590   0.58398   0.63666   0.00000  Uiso   1.00
C9     C     0.72448   0.43031   0.72692   0.00000  Uiso   1.00
C10    C     0.61360   0.97840   0.46338   0.00000  Uiso   1.00
C11    C     0.51652   0.01248   0.33677   0.00000  Uiso   1.00
C12    C     0.45797   0.10839   0.30317   0.00000  Uiso   1.00
C13    C     0.33308   0.25825   0.20043   0.00000  Uiso   1.00
C14    C     0.75901   0.98574   0.68620   0.00000  Uiso   1.00
C15    C     0.83582   0.00154   0.71441   0.00000  Uiso   1.00
C16    C     0.93293   0.06679   0.81652   0.00000  Uiso   1.00
C17    C     0.99150   0.07033   0.82558   0.00000  Uiso   1.00
C18    C     0.74329   0.84249   0.67756   0.00000  Uiso   1.00
C19    C     0.76258   0.77401   0.74866   0.00000  Uiso   1.00
C20    C     0.74325   0.64367   0.72669   0.00000  Uiso   1.00
C21    C     0.65089   0.03799   0.55326   0.00000  Uiso   1.00
C22    C     0.59247   0.13386   0.51984   0.00000  Uiso   1.00
C23    C     0.49532   0.16808   0.39320   0.00000  Uiso   1.00
H24    H     0.66134   0.82963   0.45077   0.00000  Uiso   1.00
H25    H     0.82810   0.89927   0.56388   0.00000  Uiso   1.00
H26    H     0.65777   0.60655   0.49603   0.00000  Uiso   1.00
H27    H     0.48769   0.96634   0.26725   0.00000  Uiso   1.00
H28    H     0.02945   0.00272   0.72895   0.00000  Uiso   1.00
H29    H     0.67026   0.38550   0.58585   0.00000  Uiso   1.00
H30    H     0.31161   0.14419   0.10341   0.00000  Uiso   1.00
H31    H     0.78804   0.03213   0.75617   0.00000  Uiso   1.00
H32    H     0.96176   0.11289   0.88605   0.00000  Uiso   1.00
H33    H     0.79143   0.82016   0.81820   0.00000  Uiso   1.00
H34    H     0.62135   0.17995   0.58942   0.00000  Uiso   1.00
H35    H     0.13794   0.17609   0.99044   0.00000  Uiso   1.00
H36    H     0.77874   0.55887   0.84733   0.00000  Uiso   1.00
H37    H     0.42010   0.31757   0.36490   0.00000  Uiso   1.00
O38    O     0.19571   0.13884   0.93965   0.00000  Uiso   1.00
O39    O     0.72444   0.32908   0.75188   0.00000  Uiso   1.00
O40    O     0.25390   0.32447   0.11894   0.00000  Uiso   1.00
N41    N     0.03114   0.03246   0.77266   0.00000  Uiso   1.00
N42    N     0.69533   0.45540   0.63888   0.00000  Uiso   1.00
N43    N     0.36000   0.16469   0.18783   0.00000  Uiso   1.00
N44    N     0.08951   0.12575   0.91336   0.00000  Uiso   1.00
N45    N     0.75370   0.54869   0.77958   0.00000  Uiso   1.00
N46    N     0.41838   0.25798   0.32853   0.00000  Uiso   1.00
C47    C     0.30963   0.37603   0.97926   0.00000  Uiso   1.00
C48    C     0.20146   0.44196   0.87546   0.00000  Uiso   1.00
C49    C     0.14302   0.44541   0.86655   0.00000  Uiso   1.00
C50    C     0.04585   0.51063   0.76446   0.00000  Uiso   1.00
C51    C     0.88353   0.60388   0.61692   0.00000  Uiso   1.00
C52    C     0.29399   0.28291   0.91231   0.00000  Uiso   1.00
C53    C     0.31337   0.15263   0.93441   0.00000  Uiso   1.00
C54    C     0.29410   0.08398   0.86334   0.00000  Uiso   1.00
C55    C     0.27552   0.93031   0.77308   0.00000  Uiso   1.00
C56    C     0.38640   0.47840   0.03662   0.00000  Uiso   1.00
C57    C     0.48348   0.51248   0.16323   0.00000  Uiso   1.00
C58    C     0.54203   0.60839   0.19683   0.00000  Uiso   1.00
C59    C     0.66692   0.75825   0.29957   0.00000  Uiso   1.00
C60    C     0.24099   0.48574   0.81380   0.00000  Uiso   1.00
C61    C     0.16418   0.50154   0.78559   0.00000  Uiso   1.00
C62    C     0.06707   0.56679   0.68348   0.00000  Uiso   1.00
C63    C     0.00850   0.57033   0.67442   0.00000  Uiso   1.00
C64    C     0.25671   0.34249   0.82244   0.00000  Uiso   1.00
C65    C     0.23742   0.27401   0.75134   0.00000  Uiso   1.00
C66    C     0.25675   0.14367   0.77331   0.00000  Uiso   1.00
C67    C     0.34911   0.53799   0.94674   0.00000  Uiso   1.00
C68    C     0.40753   0.63386   0.98016   0.00000  Uiso   1.00
C69    C     0.50468   0.66808   0.10680   0.00000  Uiso   1.00
H70    H     0.33866   0.32963   0.04923   0.00000  Uiso   1.00
H71    H     0.17190   0.39927   0.93612   0.00000  Uiso   1.00
H72    H     0.34223   0.10655   0.00397   0.00000  Uiso   1.00
H73    H     0.51231   0.46634   0.23275   0.00000  Uiso   1.00
H74    H     0.97055   0.50272   0.77105   0.00000  Uiso   1.00
H75    H     0.32974   0.88550   0.91415   0.00000  Uiso   1.00
H76    H     0.68839   0.64419   0.39659   0.00000  Uiso   1.00
H77    H     0.21196   0.53213   0.74383   0.00000  Uiso   1.00
H78    H     0.03824   0.61289   0.61395   0.00000  Uiso   1.00
H79    H     0.20857   0.32016   0.68180   0.00000  Uiso   1.00
H80    H     0.37865   0.67995   0.91058   0.00000  Uiso   1.00
H81    H     0.86206   0.67609   0.50956   0.00000  Uiso   1.00
H82    H     0.22126   0.05887   0.65267   0.00000  Uiso   1.00
H83    H     0.57990   0.81757   0.13510   0.00000  Uiso   1.00
O84    O     0.80429   0.63884   0.56035   0.00000  Uiso   1.00
O85    O     0.27556   0.82908   0.74812   0.00000  Uiso   1.00
O86    O     0.74610   0.82447   0.38106   0.00000  Uiso   1.00
N87    N     0.96886   0.53246   0.72734   0.00000  Uiso   1.00
N88    N     0.30467   0.95540   0.86112   0.00000  Uiso   1.00
N89    N     0.64000   0.66469   0.31217   0.00000  Uiso   1.00
N90    N     0.91049   0.62575   0.58664   0.00000  Uiso   1.00
N91    N     0.24630   0.04869   0.72042   0.00000  Uiso   1.00
N92    N     0.58162   0.75798   0.17147   0.00000  Uiso   1.00
C93    C     0.30963   0.12397   0.47926   0.00000  Uiso   1.00
C94    C     0.20146   0.05804   0.37546   0.00000  Uiso   1.00
C95    C     0.14302   0.05459   0.36655   0.00000  Uiso   1.00
C96    C     0.04585   0.98937   0.26446   0.00000  Uiso   1.00
C97    C     0.88353   0.89612   0.11692   0.00000  Uiso   1.00
C98    C     0.29399   0.21709   0.41231   0.00000  Uiso   1.00
C99    C     0.31337   0.34737   0.43441   0.00000  Uiso   1.00
C100   C     0.29410   0.41602   0.36334   0.00000  Uiso   1.00
C101   C     0.27552   0.56969   0.27308   0.00000  Uiso   1.00
C102   C     0.38640   0.02160   0.53662   0.00000  Uiso   1.00
C103   C     0.48348   0.98752   0.66323   0.00000  Uiso   1.00
C104   C     0.54203   0.89161   0.69683   0.00000  Uiso   1.00
C105   C     0.66692   0.74175   0.79957   0.00000  Uiso   1.00
C106   C     0.24099   0.01426   0.31380   0.00000  Uiso   1.00
C107   C     0.16418   0.99846   0.28559   0.00000  Uiso   1.00
C108   C     0.06707   0.93321   0.18348   0.00000  Uiso   1.00
C109   C     0.00850   0.92967   0.17442   0.00000  Uiso   1.00
C110   C     0.25671   0.15751   0.32244   0.00000  Uiso   1.00
C111   C     0.23742   0.22599   0.25134   0.00000  Uiso   1.00
C112   C     0.25675   0.35633   0.27331   0.00000  Uiso   1.00
C113   C     0.34911   0.96201   0.44674   0.00000  Uiso   1.00
C114   C     0.40753   0.86614   0.48016   0.00000  Uiso   1.00
C115   C     0.50468   0.83192   0.60680   0.00000  Uiso   1.00
H116   H     0.33866   0.17037   0.54923   0.00000  Uiso   1.00
H117   H     0.17190   0.10073   0.43612   0.00000  Uiso   1.00
H118   H     0.34223   0.39345   0.50397   0.00000  Uiso   1.00
H119   H     0.51231   0.03366   0.73275   0.00000  Uiso   1.00
H120   H     0.97055   0.99728   0.27105   0.00000  Uiso   1.00
H121   H     0.32974   0.61450   0.41415   0.00000  Uiso   1.00
H122   H     0.68839   0.85581   0.89659   0.00000  Uiso   1.00
H123   H     0.21196   0.96787   0.24383   0.00000  Uiso   1.00
H124   H     0.03824   0.88711   0.11395   0.00000  Uiso   1.00
H125   H     0.20857   0.17984   0.18180   0.00000  Uiso   1.00
H126   H     0.37865   0.82005   0.41058   0.00000  Uiso   1.00
H127   H     0.86206   0.82391   0.00956   0.00000  Uiso   1.00
H128   H     0.22126   0.44113   0.15267   0.00000  Uiso   1.00
H129   H     0.57990   0.68243   0.63510   0.00000  Uiso   1.00
O130   O     0.80429   0.86116   0.06035   0.00000  Uiso   1.00
O131   O     0.27556   0.67092   0.24812   0.00000  Uiso   1.00
O132   O     0.74610   0.67553   0.88106   0.00000  Uiso   1.00
N133   N     0.96886   0.96754   0.22734   0.00000  Uiso   1.00
N134   N     0.30467   0.54460   0.36112   0.00000  Uiso   1.00
N135   N     0.64000   0.83531   0.81217   0.00000  Uiso   1.00
N136   N     0.91049   0.87425   0.08664   0.00000  Uiso   1.00
N137   N     0.24630   0.45131   0.22042   0.00000  Uiso   1.00
N138   N     0.58162   0.74202   0.67147   0.00000  Uiso   1.00
C139   C     0.69037   0.62397   0.02074   0.00000  Uiso   1.00
C140   C     0.79854   0.55804   0.12454   0.00000  Uiso   1.00
C141   C     0.85698   0.55459   0.13345   0.00000  Uiso   1.00
C142   C     0.95415   0.48937   0.23554   0.00000  Uiso   1.00
C143   C     0.11647   0.39612   0.38308   0.00000  Uiso   1.00
C144   C     0.70601   0.71709   0.08769   0.00000  Uiso   1.00
C145   C     0.68663   0.84737   0.06559   0.00000  Uiso   1.00
C146   C     0.70590   0.91602   0.13666   0.00000  Uiso   1.00
C147   C     0.72448   0.06969   0.22692   0.00000  Uiso   1.00
C148   C     0.61360   0.52160   0.96338   0.00000  Uiso   1.00
C149   C     0.51652   0.48752   0.83677   0.00000  Uiso   1.00
C150   C     0.45797   0.39161   0.80317   0.00000  Uiso   1.00
C151   C     0.33308   0.24175   0.70043   0.00000  Uiso   1.00
C152   C     0.75901   0.51426   0.18620   0.00000  Uiso   1.00
C153   C     0.83582   0.49846   0.21441   0.00000  Uiso   1.00
C154   C     0.93293   0.43321   0.31652   0.00000  Uiso   1.00
C155   C     0.99150   0.42967   0.32558   0.00000  Uiso   1.00
C156   C     0.74329   0.65751   0.17756   0.00000  Uiso   1.00
C157   C     0.76258   0.72599   0.24866   0.00000  Uiso   1.00
C158   C     0.74325   0.85633   0.22669   0.00000  Uiso   1.00
C159   C     0.65089   0.46201   0.05326   0.00000  Uiso   1.00
C160   C     0.59247   0.36614   0.01984   0.00000  Uiso   1.00
C161   C     0.49532   0.33192   0.89320   0.00000  Uiso   1.00
H162   H     0.66134   0.67037   0.95077   0.00000  Uiso   1.00
H163   H     0.82810   0.60073   0.06388   0.00000  Uiso   1.00
H164   H     0.65777   0.89345   0.99603   0.00000  Uiso   1.00
H165   H     0.48769   0.53366   0.76725   0.00000  Uiso   1.00
H166   H     0.02945   0.49728   0.22895   0.00000  Uiso   1.00
H167   H     0.67026   0.11450   0.08585   0.00000  Uiso   1.00
H168   H     0.31161   0.35581   0.60341   0.00000  Uiso   1.00
H169   H     0.78804   0.46787   0.25617   0.00000  Uiso   1.00
H170   H     0.96176   0.38711   0.38605   0.00000  Uiso   1.00
H171   H     0.79143   0.67984   0.31820   0.00000  Uiso   1.00
H172   H     0.62135   0.32005   0.08942   0.00000  Uiso   1.00
H173   H     0.13794   0.32391   0.49044   0.00000  Uiso   1.00
H174   H     0.77874   0.94113   0.34733   0.00000  Uiso   1.00
H175   H     0.42010   0.18243   0.86490   0.00000  Uiso   1.00
O176   O     0.19571   0.36116   0.43965   0.00000  Uiso   1.00
O177   O     0.72444   0.17092   0.25188   0.00000  Uiso   1.00
O178   O     0.25390   0.17553   0.61894   0.00000  Uiso   1.00
N179   N     0.03114   0.46754   0.27266   0.00000  Uiso   1.00
N180   N     0.69533   0.04460   0.13888   0.00000  Uiso   1.00
N181   N     0.36000   0.33531   0.68783   0.00000  Uiso   1.00
N182   N     0.08951   0.37425   0.41336   0.00000  Uiso   1.00
N183   N     0.75370   0.95131   0.27958   0.00000  Uiso   1.00
N184   N     0.41838   0.24202   0.82853   0.00000  Uiso   1.00
