data_job_03069
_audit_creation_date              2018-12-19
_audit_creation_method            'Materials Studio'
_symmetry_space_group_name_H-M    'P1'
_symmetry_Int_Tables_number       1
_symmetry_cell_setting            triclinic
loop_
_symmetry_equiv_pos_as_xyz
  x,y,z
_cell_length_a                    17.5132
_cell_length_b                    17.5132
_cell_length_c                    15.3580
_cell_angle_alpha                 90.0000
_cell_angle_beta                  90.0000
_cell_angle_gamma                 120.0000
loop_
_atom_site_label
_atom_site_type_symbol
_atom_site_fract_x
_atom_site_fract_y
_atom_site_fract_z
_atom_site_U_iso_or_equiv
_atom_site_adp_type
_atom_site_occupancy
C1     C     0.10561   0.56720   0.94716   0.00000  Uiso   1.00
C2     C     0.00749   0.51390   0.92607   0.00000  Uiso   1.00
C3     C     0.97077   0.49871   0.84339   0.00000  Uiso   1.00
C4     C     0.87957   0.44830   0.83781   0.00000  Uiso   1.00
C5     C     0.73519   0.37073   0.79374   0.00000  Uiso   1.00
C6     C     0.11630   0.63903   0.01041   0.00000  Uiso   1.00
C7     C     0.17109   0.72905   0.99863   0.00000  Uiso   1.00
C8     C     0.17150   0.78397   0.06405   0.00000  Uiso   1.00
C9     C     0.19610   0.90067   0.15094   0.00000  Uiso   1.00
C10    C     0.12681   0.50584   0.99899   0.00000  Uiso   1.00
C11    C     0.19044   0.48388   0.97762   0.00000  Uiso   1.00
C12    C     0.19971   0.42667   0.03344   0.00000  Uiso   1.00
C13    C     0.24063   0.33657   0.10260   0.00000  Uiso   1.00
C14    C     0.00894   0.50467   0.08430   0.00000  Uiso   1.00
C15    C     0.95498   0.47994   0.00057   0.00000  Uiso   1.00
C16    C     0.86381   0.42953   0.99511   0.00000  Uiso   1.00
C17    C     0.82697   0.41427   0.91243   0.00000  Uiso   1.00
C18    C     0.06380   0.60507   0.08489   0.00000  Uiso   1.00
C19    C     0.06413   0.65987   0.15036   0.00000  Uiso   1.00
C20    C     0.11890   0.74994   0.13868   0.00000  Uiso   1.00
C21    C     0.07430   0.47187   0.07348   0.00000  Uiso   1.00
C22    C     0.08348   0.41469   0.12935   0.00000  Uiso   1.00
C23    C     0.14711   0.39265   0.10807   0.00000  Uiso   1.00
H24    H     0.14650   0.59365   0.88917   0.00000  Uiso   1.00
H25    H     0.01143   0.52502   0.78576   0.00000  Uiso   1.00
H26    H     0.21172   0.75531   0.94098   0.00000  Uiso   1.00
H27    H     0.23106   0.51018   0.91997   0.00000  Uiso   1.00
H28    H     0.83852   0.43397   0.70395   0.00000  Uiso   1.00
H29    H     0.26087   0.91956   0.03126   0.00000  Uiso   1.00
H30    H     0.30166   0.40265   0.98697   0.00000  Uiso   1.00
H31    H     0.96806   0.47823   0.14230   0.00000  Uiso   1.00
H32    H     0.82320   0.40325   0.05277   0.00000  Uiso   1.00
H33    H     0.02349   0.63356   0.20799   0.00000  Uiso   1.00
H34    H     0.04284   0.38842   0.18699   0.00000  Uiso   1.00
H35    H     0.68575   0.33515   0.92067   0.00000  Uiso   1.00
H36    H     0.10810   0.82075   0.24798   0.00000  Uiso   1.00
H37    H     0.14889   0.30382   0.20369   0.00000  Uiso   1.00
O38    O     0.67006   0.33735   0.74885   0.00000  Uiso   1.00
O39    O     0.22418   0.97443   0.17828   0.00000  Uiso   1.00
O40    O     0.27769   0.29624   0.12016   0.00000  Uiso   1.00
N41    N     0.82245   0.42099   0.76724   0.00000  Uiso   1.00
N42    N     0.21731   0.87499   0.07325   0.00000  Uiso   1.00
N43    N     0.25546   0.39173   0.03185   0.00000  Uiso   1.00
N44    N     0.74024   0.36781   0.88386   0.00000  Uiso   1.00
N45    N     0.13510   0.82181   0.18987   0.00000  Uiso   1.00
N46    N     0.17326   0.33856   0.14847   0.00000  Uiso   1.00
C47    C     0.43280   0.53841   0.28049   0.00000  Uiso   1.00
C48    C     0.48610   0.49359   0.25941   0.00000  Uiso   1.00
C49    C     0.50129   0.47206   0.17672   0.00000  Uiso   1.00
C50    C     0.55170   0.43128   0.17114   0.00000  Uiso   1.00
C51    C     0.62927   0.36446   0.12707   0.00000  Uiso   1.00
C52    C     0.36097   0.47727   0.34374   0.00000  Uiso   1.00
C53    C     0.27095   0.44204   0.33196   0.00000  Uiso   1.00
C54    C     0.21603   0.38753   0.39739   0.00000  Uiso   1.00
C55    C     0.09933   0.29544   0.48427   0.00000  Uiso   1.00
C56    C     0.49416   0.62097   0.33232   0.00000  Uiso   1.00
C57    C     0.51612   0.70656   0.31095   0.00000  Uiso   1.00
C58    C     0.57333   0.77304   0.36678   0.00000  Uiso   1.00
C59    C     0.66343   0.90406   0.43593   0.00000  Uiso   1.00
C60    C     0.49533   0.50427   0.41764   0.00000  Uiso   1.00
C61    C     0.52006   0.47504   0.33390   0.00000  Uiso   1.00
C62    C     0.57047   0.43429   0.32845   0.00000  Uiso   1.00
C63    C     0.58573   0.41270   0.24577   0.00000  Uiso   1.00
C64    C     0.39493   0.45873   0.41823   0.00000  Uiso   1.00
C65    C     0.34013   0.40427   0.48369   0.00000  Uiso   1.00
C66    C     0.25006   0.36895   0.47201   0.00000  Uiso   1.00
C67    C     0.52813   0.60243   0.40681   0.00000  Uiso   1.00
C68    C     0.58531   0.66879   0.46268   0.00000  Uiso   1.00
C69    C     0.60735   0.75446   0.44140   0.00000  Uiso   1.00
H70    H     0.40635   0.55284   0.22251   0.00000  Uiso   1.00
H71    H     0.47498   0.48641   0.11909   0.00000  Uiso   1.00
H72    H     0.24469   0.45641   0.27431   0.00000  Uiso   1.00
H73    H     0.48982   0.72089   0.25331   0.00000  Uiso   1.00
H74    H     0.56603   0.40455   0.03729   0.00000  Uiso   1.00
H75    H     0.08044   0.34131   0.36460   0.00000  Uiso   1.00
H76    H     0.59735   0.89902   0.32030   0.00000  Uiso   1.00
H77    H     0.52177   0.48984   0.47563   0.00000  Uiso   1.00
H78    H     0.59675   0.41995   0.38610   0.00000  Uiso   1.00
H79    H     0.36644   0.38994   0.54133   0.00000  Uiso   1.00
H80    H     0.61158   0.65442   0.52032   0.00000  Uiso   1.00
H81    H     0.66485   0.35060   0.25400   0.00000  Uiso   1.00
H82    H     0.17925   0.28736   0.58132   0.00000  Uiso   1.00
H83    H     0.69618   0.84507   0.53702   0.00000  Uiso   1.00
O84    O     0.66265   0.33271   0.08219   0.00000  Uiso   1.00
O85    O     0.02557   0.24975   0.51161   0.00000  Uiso   1.00
O86    O     0.70376   0.98145   0.45349   0.00000  Uiso   1.00
N87    N     0.57901   0.40146   0.10058   0.00000  Uiso   1.00
N88    N     0.12501   0.34232   0.40658   0.00000  Uiso   1.00
N89    N     0.60827   0.86373   0.36518   0.00000  Uiso   1.00
N90    N     0.63219   0.37243   0.21719   0.00000  Uiso   1.00
N91    N     0.17819   0.31329   0.52320   0.00000  Uiso   1.00
N92    N     0.66144   0.83470   0.48180   0.00000  Uiso   1.00
C93    C     0.46159   0.89439   0.61383   0.00000  Uiso   1.00
C94    C     0.50641   0.99251   0.59274   0.00000  Uiso   1.00
C95    C     0.52794   0.02923   0.51005   0.00000  Uiso   1.00
C96    C     0.56872   0.12043   0.50448   0.00000  Uiso   1.00
C97    C     0.63554   0.26481   0.46040   0.00000  Uiso   1.00
C98    C     0.52273   0.88370   0.67707   0.00000  Uiso   1.00
C99    C     0.55796   0.82891   0.66529   0.00000  Uiso   1.00
C100   C     0.61247   0.82850   0.73072   0.00000  Uiso   1.00
C101   C     0.70456   0.80390   0.81760   0.00000  Uiso   1.00
C102   C     0.37903   0.87319   0.66565   0.00000  Uiso   1.00
C103   C     0.29344   0.80956   0.64429   0.00000  Uiso   1.00
C104   C     0.22696   0.80029   0.70011   0.00000  Uiso   1.00
C105   C     0.09594   0.75937   0.76926   0.00000  Uiso   1.00
C106   C     0.49573   0.99106   0.75097   0.00000  Uiso   1.00
C107   C     0.52496   0.04502   0.66723   0.00000  Uiso   1.00
C108   C     0.56571   0.13619   0.66178   0.00000  Uiso   1.00
C109   C     0.58730   0.17303   0.57910   0.00000  Uiso   1.00
C110   C     0.54127   0.93620   0.75156   0.00000  Uiso   1.00
C111   C     0.59573   0.93587   0.81702   0.00000  Uiso   1.00
C112   C     0.63105   0.88110   0.80534   0.00000  Uiso   1.00
C113   C     0.39757   0.92570   0.74014   0.00000  Uiso   1.00
C114   C     0.33121   0.91652   0.79601   0.00000  Uiso   1.00
C115   C     0.24554   0.85289   0.77474   0.00000  Uiso   1.00
H116   H     0.44716   0.85350   0.55584   0.00000  Uiso   1.00
H117   H     0.51359   0.98857   0.45242   0.00000  Uiso   1.00
H118   H     0.54359   0.78828   0.60765   0.00000  Uiso   1.00
H119   H     0.27911   0.76894   0.58664   0.00000  Uiso   1.00
H120   H     0.59545   0.16148   0.37062   0.00000  Uiso   1.00
H121   H     0.65869   0.73913   0.69793   0.00000  Uiso   1.00
H122   H     0.10098   0.69834   0.65363   0.00000  Uiso   1.00
H123   H     0.51016   0.03194   0.80897   0.00000  Uiso   1.00
H124   H     0.58005   0.17680   0.71944   0.00000  Uiso   1.00
H125   H     0.61006   0.97651   0.87466   0.00000  Uiso   1.00
H126   H     0.34558   0.95716   0.85365   0.00000  Uiso   1.00
H127   H     0.64940   0.31425   0.58734   0.00000  Uiso   1.00
H128   H     0.71264   0.89190   0.91465   0.00000  Uiso   1.00
H129   H     0.15493   0.85111   0.87035   0.00000  Uiso   1.00
O130   O     0.66729   0.32994   0.41552   0.00000  Uiso   1.00
O131   O     0.75025   0.77582   0.84494   0.00000  Uiso   1.00
O132   O     0.01855   0.72231   0.78682   0.00000  Uiso   1.00
N133   N     0.59854   0.17755   0.43391   0.00000  Uiso   1.00
N134   N     0.65768   0.78269   0.73992   0.00000  Uiso   1.00
N135   N     0.13627   0.74454   0.69852   0.00000  Uiso   1.00
N136   N     0.62757   0.25976   0.55052   0.00000  Uiso   1.00
N137   N     0.68671   0.86490   0.85653   0.00000  Uiso   1.00
N138   N     0.16530   0.82674   0.81513   0.00000  Uiso   1.00
C139   C     0.89439   0.43280   0.44716   0.00000  Uiso   1.00
C140   C     0.99251   0.48610   0.42607   0.00000  Uiso   1.00
C141   C     0.02923   0.50129   0.34339   0.00000  Uiso   1.00
C142   C     0.12043   0.55170   0.33781   0.00000  Uiso   1.00
C143   C     0.26481   0.62927   0.29374   0.00000  Uiso   1.00
C144   C     0.88370   0.36097   0.51041   0.00000  Uiso   1.00
C145   C     0.82891   0.27095   0.49863   0.00000  Uiso   1.00
C146   C     0.82850   0.21603   0.56405   0.00000  Uiso   1.00
C147   C     0.80390   0.09933   0.65094   0.00000  Uiso   1.00
C148   C     0.87319   0.49416   0.49899   0.00000  Uiso   1.00
C149   C     0.80956   0.51612   0.47762   0.00000  Uiso   1.00
C150   C     0.80029   0.57333   0.53344   0.00000  Uiso   1.00
C151   C     0.75937   0.66343   0.60260   0.00000  Uiso   1.00
C152   C     0.99106   0.49533   0.58430   0.00000  Uiso   1.00
C153   C     0.04502   0.52006   0.50057   0.00000  Uiso   1.00
C154   C     0.13619   0.57047   0.49511   0.00000  Uiso   1.00
C155   C     0.17303   0.58573   0.41243   0.00000  Uiso   1.00
C156   C     0.93620   0.39493   0.58489   0.00000  Uiso   1.00
C157   C     0.93587   0.34013   0.65036   0.00000  Uiso   1.00
C158   C     0.88110   0.25006   0.63868   0.00000  Uiso   1.00
C159   C     0.92570   0.52813   0.57348   0.00000  Uiso   1.00
C160   C     0.91652   0.58531   0.62935   0.00000  Uiso   1.00
C161   C     0.85289   0.60735   0.60807   0.00000  Uiso   1.00
H162   H     0.85350   0.40635   0.38917   0.00000  Uiso   1.00
H163   H     0.98857   0.47498   0.28576   0.00000  Uiso   1.00
H164   H     0.78828   0.24469   0.44098   0.00000  Uiso   1.00
H165   H     0.76894   0.48982   0.41997   0.00000  Uiso   1.00
H166   H     0.16148   0.56603   0.20395   0.00000  Uiso   1.00
H167   H     0.73913   0.08044   0.53126   0.00000  Uiso   1.00
H168   H     0.69834   0.59735   0.48697   0.00000  Uiso   1.00
H169   H     0.03194   0.52177   0.64230   0.00000  Uiso   1.00
H170   H     0.17680   0.59675   0.55277   0.00000  Uiso   1.00
H171   H     0.97651   0.36644   0.70799   0.00000  Uiso   1.00
H172   H     0.95716   0.61158   0.68699   0.00000  Uiso   1.00
H173   H     0.31425   0.66485   0.42067   0.00000  Uiso   1.00
H174   H     0.89190   0.17925   0.74798   0.00000  Uiso   1.00
H175   H     0.85111   0.69618   0.70369   0.00000  Uiso   1.00
O176   O     0.32994   0.66265   0.24885   0.00000  Uiso   1.00
O177   O     0.77582   0.02557   0.67828   0.00000  Uiso   1.00
O178   O     0.72231   0.70376   0.62016   0.00000  Uiso   1.00
N179   N     0.17755   0.57901   0.26724   0.00000  Uiso   1.00
N180   N     0.78269   0.12501   0.57325   0.00000  Uiso   1.00
N181   N     0.74454   0.60827   0.53185   0.00000  Uiso   1.00
N182   N     0.25976   0.63219   0.38386   0.00000  Uiso   1.00
N183   N     0.86490   0.17819   0.68987   0.00000  Uiso   1.00
N184   N     0.82674   0.66144   0.64847   0.00000  Uiso   1.00
C185   C     0.56720   0.46159   0.78049   0.00000  Uiso   1.00
C186   C     0.51390   0.50641   0.75941   0.00000  Uiso   1.00
C187   C     0.49871   0.52794   0.67672   0.00000  Uiso   1.00
C188   C     0.44830   0.56872   0.67114   0.00000  Uiso   1.00
C189   C     0.37073   0.63554   0.62707   0.00000  Uiso   1.00
C190   C     0.63903   0.52273   0.84374   0.00000  Uiso   1.00
C191   C     0.72905   0.55796   0.83196   0.00000  Uiso   1.00
C192   C     0.78397   0.61247   0.89739   0.00000  Uiso   1.00
C193   C     0.90067   0.70456   0.98427   0.00000  Uiso   1.00
C194   C     0.50584   0.37903   0.83232   0.00000  Uiso   1.00
C195   C     0.48388   0.29344   0.81095   0.00000  Uiso   1.00
C196   C     0.42667   0.22696   0.86678   0.00000  Uiso   1.00
C197   C     0.33657   0.09594   0.93593   0.00000  Uiso   1.00
C198   C     0.50467   0.49573   0.91764   0.00000  Uiso   1.00
C199   C     0.47994   0.52496   0.83390   0.00000  Uiso   1.00
C200   C     0.42953   0.56571   0.82845   0.00000  Uiso   1.00
C201   C     0.41427   0.58730   0.74577   0.00000  Uiso   1.00
C202   C     0.60507   0.54127   0.91823   0.00000  Uiso   1.00
C203   C     0.65987   0.59573   0.98369   0.00000  Uiso   1.00
C204   C     0.74994   0.63105   0.97201   0.00000  Uiso   1.00
C205   C     0.47187   0.39757   0.90681   0.00000  Uiso   1.00
C206   C     0.41469   0.33121   0.96268   0.00000  Uiso   1.00
C207   C     0.39265   0.24554   0.94140   0.00000  Uiso   1.00
H208   H     0.59365   0.44716   0.72251   0.00000  Uiso   1.00
H209   H     0.52502   0.51359   0.61909   0.00000  Uiso   1.00
H210   H     0.75531   0.54359   0.77431   0.00000  Uiso   1.00
H211   H     0.51018   0.27911   0.75331   0.00000  Uiso   1.00
H212   H     0.43397   0.59545   0.53729   0.00000  Uiso   1.00
H213   H     0.91956   0.65869   0.86460   0.00000  Uiso   1.00
H214   H     0.40265   0.10098   0.82030   0.00000  Uiso   1.00
H215   H     0.47823   0.51016   0.97563   0.00000  Uiso   1.00
H216   H     0.40325   0.58005   0.88610   0.00000  Uiso   1.00
H217   H     0.63356   0.61006   0.04133   0.00000  Uiso   1.00
H218   H     0.38842   0.34558   0.02032   0.00000  Uiso   1.00
H219   H     0.33515   0.64940   0.75400   0.00000  Uiso   1.00
H220   H     0.82075   0.71264   0.08132   0.00000  Uiso   1.00
H221   H     0.30382   0.15493   0.03702   0.00000  Uiso   1.00
O222   O     0.33735   0.66729   0.58219   0.00000  Uiso   1.00
O223   O     0.97443   0.75025   0.01161   0.00000  Uiso   1.00
O224   O     0.29624   0.01855   0.95349   0.00000  Uiso   1.00
N225   N     0.42099   0.59854   0.60058   0.00000  Uiso   1.00
N226   N     0.87499   0.65768   0.90658   0.00000  Uiso   1.00
N227   N     0.39173   0.13627   0.86518   0.00000  Uiso   1.00
N228   N     0.36781   0.62757   0.71719   0.00000  Uiso   1.00
N229   N     0.82181   0.68671   0.02320   0.00000  Uiso   1.00
N230   N     0.33856   0.16530   0.98180   0.00000  Uiso   1.00
C231   C     0.53841   0.10561   0.11383   0.00000  Uiso   1.00
C232   C     0.49359   0.00749   0.09274   0.00000  Uiso   1.00
C233   C     0.47206   0.97077   0.01005   0.00000  Uiso   1.00
C234   C     0.43128   0.87957   0.00448   0.00000  Uiso   1.00
C235   C     0.36446   0.73519   0.96040   0.00000  Uiso   1.00
C236   C     0.47727   0.11630   0.17707   0.00000  Uiso   1.00
C237   C     0.44204   0.17109   0.16529   0.00000  Uiso   1.00
C238   C     0.38753   0.17150   0.23072   0.00000  Uiso   1.00
C239   C     0.29544   0.19610   0.31760   0.00000  Uiso   1.00
C240   C     0.62097   0.12681   0.16565   0.00000  Uiso   1.00
C241   C     0.70656   0.19044   0.14429   0.00000  Uiso   1.00
C242   C     0.77304   0.19971   0.20011   0.00000  Uiso   1.00
C243   C     0.90406   0.24063   0.26926   0.00000  Uiso   1.00
C244   C     0.50427   0.00894   0.25097   0.00000  Uiso   1.00
C245   C     0.47504   0.95498   0.16723   0.00000  Uiso   1.00
C246   C     0.43429   0.86381   0.16178   0.00000  Uiso   1.00
C247   C     0.41270   0.82697   0.07910   0.00000  Uiso   1.00
C248   C     0.45873   0.06380   0.25156   0.00000  Uiso   1.00
C249   C     0.40427   0.06413   0.31702   0.00000  Uiso   1.00
C250   C     0.36895   0.11890   0.30534   0.00000  Uiso   1.00
C251   C     0.60243   0.07430   0.24014   0.00000  Uiso   1.00
C252   C     0.66879   0.08348   0.29601   0.00000  Uiso   1.00
C253   C     0.75446   0.14711   0.27474   0.00000  Uiso   1.00
H254   H     0.55284   0.14650   0.05584   0.00000  Uiso   1.00
H255   H     0.48641   0.01143   0.95242   0.00000  Uiso   1.00
H256   H     0.45641   0.21172   0.10765   0.00000  Uiso   1.00
H257   H     0.72089   0.23106   0.08664   0.00000  Uiso   1.00
H258   H     0.40455   0.83852   0.87062   0.00000  Uiso   1.00
H259   H     0.34131   0.26087   0.19793   0.00000  Uiso   1.00
H260   H     0.89902   0.30166   0.15363   0.00000  Uiso   1.00
H261   H     0.48984   0.96806   0.30897   0.00000  Uiso   1.00
H262   H     0.41995   0.82320   0.21944   0.00000  Uiso   1.00
H263   H     0.38994   0.02349   0.37466   0.00000  Uiso   1.00
H264   H     0.65442   0.04284   0.35365   0.00000  Uiso   1.00
H265   H     0.35060   0.68575   0.08734   0.00000  Uiso   1.00
H266   H     0.28736   0.10810   0.41465   0.00000  Uiso   1.00
H267   H     0.84507   0.14889   0.37035   0.00000  Uiso   1.00
O268   O     0.33271   0.67006   0.91552   0.00000  Uiso   1.00
O269   O     0.24975   0.22418   0.34494   0.00000  Uiso   1.00
O270   O     0.98145   0.27769   0.28682   0.00000  Uiso   1.00
N271   N     0.40146   0.82245   0.93391   0.00000  Uiso   1.00
N272   N     0.34232   0.21731   0.23992   0.00000  Uiso   1.00
N273   N     0.86373   0.25546   0.19852   0.00000  Uiso   1.00
N274   N     0.37243   0.74024   0.05052   0.00000  Uiso   1.00
N275   N     0.31329   0.13510   0.35653   0.00000  Uiso   1.00
N276   N     0.83470   0.17326   0.31513   0.00000  Uiso   1.00
