data_job_00653
_audit_creation_date              2018-12-19
_audit_creation_method            'Materials Studio'
_symmetry_space_group_name_H-M    'P1'
_symmetry_Int_Tables_number       1
_symmetry_cell_setting            triclinic
loop_
_symmetry_equiv_pos_as_xyz
  x,y,z
_cell_length_a                    12.9205
_cell_length_b                    13.2106
_cell_length_c                    14.8524
_cell_angle_alpha                 90.0000
_cell_angle_beta                  117.3212
_cell_angle_gamma                 90.0000
loop_
_atom_site_label
_atom_site_type_symbol
_atom_site_fract_x
_atom_site_fract_y
_atom_site_fract_z
_atom_site_U_iso_or_equiv
_atom_site_adp_type
_atom_site_occupancy
C1     C     0.17698   0.45542   0.36181   0.00000  Uiso   1.00
C2     C     0.20646   0.45050   0.27356   0.00000  Uiso   1.00
C3     C     0.25723   0.36895   0.24992   0.00000  Uiso   1.00
C4     C     0.27720   0.37933   0.16616   0.00000  Uiso   1.00
C5     C     0.32755   0.35821   0.03798   0.00000  Uiso   1.00
C6     C     0.23972   0.54850   0.42340   0.00000  Uiso   1.00
C7     C     0.31845   0.54934   0.52574   0.00000  Uiso   1.00
C8     C     0.36640   0.64223   0.56811   0.00000  Uiso   1.00
C9     C     0.46833   0.77327   0.67258   0.00000  Uiso   1.00
C10    C     0.04720   0.47928   0.31534   0.00000  Uiso   1.00
C11    C     0.96405   0.42193   0.32685   0.00000  Uiso   1.00
C12    C     0.84991   0.45655   0.27826   0.00000  Uiso   1.00
C13    C     0.65292   0.48010   0.21494   0.00000  Uiso   1.00
C14    C     0.12215   0.61889   0.25508   0.00000  Uiso   1.00
C15    C     0.17668   0.53930   0.21559   0.00000  Uiso   1.00
C16    C     0.19656   0.54981   0.13184   0.00000  Uiso   1.00
C17    C     0.24735   0.46828   0.10808   0.00000  Uiso   1.00
C18    C     0.20994   0.63730   0.36543   0.00000  Uiso   1.00
C19    C     0.25778   0.73021   0.40766   0.00000  Uiso   1.00
C20    C     0.33656   0.73118   0.51004   0.00000  Uiso   1.00
C21    C     0.01741   0.56807   0.25736   0.00000  Uiso   1.00
C22    C     0.90338   0.60279   0.20876   0.00000  Uiso   1.00
C23    C     0.82007   0.54550   0.22018   0.00000  Uiso   1.00
H24    H     0.20018   0.38629   0.40694   0.00000  Uiso   1.00
H25    H     0.28028   0.30025   0.29481   0.00000  Uiso   1.00
H26    H     0.34148   0.48062   0.57059   0.00000  Uiso   1.00
H27    H     0.98713   0.35322   0.37171   0.00000  Uiso   1.00
H28    H     0.35599   0.24402   0.14494   0.00000  Uiso   1.00
H29    H     0.48500   0.62434   0.72644   0.00000  Uiso   1.00
H30    H     0.73780   0.35570   0.30708   0.00000  Uiso   1.00
H31    H     0.09896   0.68803   0.20995   0.00000  Uiso   1.00
H32    H     0.17350   0.61853   0.08699   0.00000  Uiso   1.00
H33    H     0.23470   0.79890   0.36278   0.00000  Uiso   1.00
H34    H     0.88036   0.67151   0.16390   0.00000  Uiso   1.00
H35    H     0.26934   0.50236   0.97628   0.00000  Uiso   1.00
H36    H     0.39834   0.88268   0.55778   0.00000  Uiso   1.00
H37    H     0.65114   0.61404   0.13842   0.00000  Uiso   1.00
O38    O     0.36357   0.32204   0.98330   0.00000  Uiso   1.00
O39    O     0.53280   0.82101   0.74621   0.00000  Uiso   1.00
O40    O     0.55249   0.46856   0.19602   0.00000  Uiso   1.00
N41    N     0.32535   0.31435   0.12211   0.00000  Uiso   1.00
N42    N     0.44597   0.66993   0.66577   0.00000  Uiso   1.00
N43    N     0.74741   0.41878   0.27373   0.00000  Uiso   1.00
N44    N     0.27871   0.45336   0.03135   0.00000  Uiso   1.00
N45    N     0.39934   0.80893   0.57502   0.00000  Uiso   1.00
N46    N     0.70077   0.55779   0.18297   0.00000  Uiso   1.00
C47    C     0.82302   0.95542   0.13819   0.00000  Uiso   1.00
C48    C     0.79354   0.95050   0.22644   0.00000  Uiso   1.00
C49    C     0.74277   0.86895   0.25008   0.00000  Uiso   1.00
C50    C     0.72280   0.87933   0.33384   0.00000  Uiso   1.00
C51    C     0.67245   0.85821   0.46202   0.00000  Uiso   1.00
C52    C     0.76028   0.04850   0.07660   0.00000  Uiso   1.00
C53    C     0.68155   0.04934   0.97426   0.00000  Uiso   1.00
C54    C     0.63360   0.14223   0.93189   0.00000  Uiso   1.00
C55    C     0.53167   0.27327   0.82742   0.00000  Uiso   1.00
C56    C     0.95280   0.97928   0.18466   0.00000  Uiso   1.00
C57    C     0.03595   0.92193   0.17315   0.00000  Uiso   1.00
C58    C     0.15009   0.95655   0.22174   0.00000  Uiso   1.00
C59    C     0.34708   0.98010   0.28506   0.00000  Uiso   1.00
C60    C     0.87785   0.11889   0.24492   0.00000  Uiso   1.00
C61    C     0.82332   0.03930   0.28441   0.00000  Uiso   1.00
C62    C     0.80344   0.04981   0.36816   0.00000  Uiso   1.00
C63    C     0.75265   0.96828   0.39192   0.00000  Uiso   1.00
C64    C     0.79006   0.13730   0.13457   0.00000  Uiso   1.00
C65    C     0.74222   0.23021   0.09234   0.00000  Uiso   1.00
C66    C     0.66344   0.23118   0.98996   0.00000  Uiso   1.00
C67    C     0.98259   0.06807   0.24264   0.00000  Uiso   1.00
C68    C     0.09662   0.10279   0.29124   0.00000  Uiso   1.00
C69    C     0.17993   0.04550   0.27982   0.00000  Uiso   1.00
H70    H     0.79982   0.88629   0.09306   0.00000  Uiso   1.00
H71    H     0.71972   0.80025   0.20519   0.00000  Uiso   1.00
H72    H     0.65852   0.98062   0.92941   0.00000  Uiso   1.00
H73    H     0.01287   0.85322   0.12829   0.00000  Uiso   1.00
H74    H     0.64401   0.74402   0.35506   0.00000  Uiso   1.00
H75    H     0.51500   0.12434   0.77356   0.00000  Uiso   1.00
H76    H     0.26220   0.85570   0.19292   0.00000  Uiso   1.00
H77    H     0.90104   0.18803   0.29005   0.00000  Uiso   1.00
H78    H     0.82650   0.11853   0.41301   0.00000  Uiso   1.00
H79    H     0.76530   0.29890   0.13722   0.00000  Uiso   1.00
H80    H     0.11964   0.17151   0.33610   0.00000  Uiso   1.00
H81    H     0.73066   0.00236   0.52372   0.00000  Uiso   1.00
H82    H     0.60166   0.38268   0.94222   0.00000  Uiso   1.00
H83    H     0.34886   0.11404   0.36158   0.00000  Uiso   1.00
O84    O     0.63643   0.82204   0.51670   0.00000  Uiso   1.00
O85    O     0.46720   0.32101   0.75379   0.00000  Uiso   1.00
O86    O     0.44751   0.96856   0.30398   0.00000  Uiso   1.00
N87    N     0.67465   0.81435   0.37789   0.00000  Uiso   1.00
N88    N     0.55403   0.16993   0.83423   0.00000  Uiso   1.00
N89    N     0.25259   0.91878   0.22627   0.00000  Uiso   1.00
N90    N     0.72129   0.95336   0.46865   0.00000  Uiso   1.00
N91    N     0.60066   0.30893   0.92498   0.00000  Uiso   1.00
N92    N     0.29923   0.05779   0.31703   0.00000  Uiso   1.00
C93    C     0.82302   0.54458   0.63819   0.00000  Uiso   1.00
C94    C     0.79354   0.54950   0.72644   0.00000  Uiso   1.00
C95    C     0.74277   0.63105   0.75008   0.00000  Uiso   1.00
C96    C     0.72280   0.62067   0.83384   0.00000  Uiso   1.00
C97    C     0.67245   0.64179   0.96202   0.00000  Uiso   1.00
C98    C     0.76028   0.45150   0.57660   0.00000  Uiso   1.00
C99    C     0.68155   0.45066   0.47426   0.00000  Uiso   1.00
C100   C     0.63360   0.35777   0.43189   0.00000  Uiso   1.00
C101   C     0.53167   0.22673   0.32742   0.00000  Uiso   1.00
C102   C     0.95280   0.52072   0.68466   0.00000  Uiso   1.00
C103   C     0.03595   0.57807   0.67315   0.00000  Uiso   1.00
C104   C     0.15009   0.54345   0.72174   0.00000  Uiso   1.00
C105   C     0.34708   0.51990   0.78506   0.00000  Uiso   1.00
C106   C     0.87785   0.38111   0.74492   0.00000  Uiso   1.00
C107   C     0.82332   0.46070   0.78441   0.00000  Uiso   1.00
C108   C     0.80344   0.45019   0.86816   0.00000  Uiso   1.00
C109   C     0.75265   0.53172   0.89192   0.00000  Uiso   1.00
C110   C     0.79006   0.36270   0.63457   0.00000  Uiso   1.00
C111   C     0.74222   0.26979   0.59234   0.00000  Uiso   1.00
C112   C     0.66344   0.26882   0.48996   0.00000  Uiso   1.00
C113   C     0.98259   0.43193   0.74264   0.00000  Uiso   1.00
C114   C     0.09662   0.39721   0.79124   0.00000  Uiso   1.00
C115   C     0.17993   0.45450   0.77982   0.00000  Uiso   1.00
H116   H     0.79982   0.61371   0.59306   0.00000  Uiso   1.00
H117   H     0.71972   0.69975   0.70519   0.00000  Uiso   1.00
H118   H     0.65852   0.51938   0.42941   0.00000  Uiso   1.00
H119   H     0.01287   0.64678   0.62829   0.00000  Uiso   1.00
H120   H     0.64401   0.75598   0.85506   0.00000  Uiso   1.00
H121   H     0.51500   0.37566   0.27356   0.00000  Uiso   1.00
H122   H     0.26220   0.64430   0.69292   0.00000  Uiso   1.00
H123   H     0.90104   0.31197   0.79005   0.00000  Uiso   1.00
H124   H     0.82650   0.38147   0.91301   0.00000  Uiso   1.00
H125   H     0.76530   0.20110   0.63722   0.00000  Uiso   1.00
H126   H     0.11964   0.32849   0.83610   0.00000  Uiso   1.00
H127   H     0.73066   0.49764   0.02372   0.00000  Uiso   1.00
H128   H     0.60166   0.11732   0.44222   0.00000  Uiso   1.00
H129   H     0.34886   0.38596   0.86158   0.00000  Uiso   1.00
O130   O     0.63643   0.67796   0.01670   0.00000  Uiso   1.00
O131   O     0.46720   0.17899   0.25379   0.00000  Uiso   1.00
O132   O     0.44751   0.53144   0.80398   0.00000  Uiso   1.00
N133   N     0.67465   0.68565   0.87789   0.00000  Uiso   1.00
N134   N     0.55403   0.33007   0.33423   0.00000  Uiso   1.00
N135   N     0.25259   0.58122   0.72627   0.00000  Uiso   1.00
N136   N     0.72129   0.54664   0.96865   0.00000  Uiso   1.00
N137   N     0.60066   0.19107   0.42498   0.00000  Uiso   1.00
N138   N     0.29923   0.44221   0.81703   0.00000  Uiso   1.00
C139   C     0.17698   0.04458   0.86181   0.00000  Uiso   1.00
C140   C     0.20646   0.04950   0.77356   0.00000  Uiso   1.00
C141   C     0.25723   0.13105   0.74992   0.00000  Uiso   1.00
C142   C     0.27720   0.12067   0.66616   0.00000  Uiso   1.00
C143   C     0.32755   0.14179   0.53798   0.00000  Uiso   1.00
C144   C     0.23972   0.95150   0.92340   0.00000  Uiso   1.00
C145   C     0.31845   0.95066   0.02574   0.00000  Uiso   1.00
C146   C     0.36640   0.85777   0.06811   0.00000  Uiso   1.00
C147   C     0.46833   0.72673   0.17258   0.00000  Uiso   1.00
C148   C     0.04720   0.02072   0.81534   0.00000  Uiso   1.00
C149   C     0.96405   0.07807   0.82685   0.00000  Uiso   1.00
C150   C     0.84991   0.04345   0.77826   0.00000  Uiso   1.00
C151   C     0.65292   0.01990   0.71494   0.00000  Uiso   1.00
C152   C     0.12215   0.88111   0.75508   0.00000  Uiso   1.00
C153   C     0.17668   0.96070   0.71559   0.00000  Uiso   1.00
C154   C     0.19656   0.95019   0.63184   0.00000  Uiso   1.00
C155   C     0.24735   0.03172   0.60808   0.00000  Uiso   1.00
C156   C     0.20994   0.86270   0.86543   0.00000  Uiso   1.00
C157   C     0.25778   0.76979   0.90766   0.00000  Uiso   1.00
C158   C     0.33656   0.76882   0.01004   0.00000  Uiso   1.00
C159   C     0.01741   0.93193   0.75736   0.00000  Uiso   1.00
C160   C     0.90338   0.89721   0.70876   0.00000  Uiso   1.00
C161   C     0.82007   0.95450   0.72018   0.00000  Uiso   1.00
H162   H     0.20018   0.11371   0.90694   0.00000  Uiso   1.00
H163   H     0.28028   0.19975   0.79481   0.00000  Uiso   1.00
H164   H     0.34148   0.01938   0.07059   0.00000  Uiso   1.00
H165   H     0.98713   0.14678   0.87171   0.00000  Uiso   1.00
H166   H     0.35599   0.25598   0.64494   0.00000  Uiso   1.00
H167   H     0.48500   0.87566   0.22644   0.00000  Uiso   1.00
H168   H     0.73780   0.14430   0.80708   0.00000  Uiso   1.00
H169   H     0.09896   0.81197   0.70995   0.00000  Uiso   1.00
H170   H     0.17350   0.88147   0.58699   0.00000  Uiso   1.00
H171   H     0.23470   0.70110   0.86278   0.00000  Uiso   1.00
H172   H     0.88036   0.82849   0.66390   0.00000  Uiso   1.00
H173   H     0.26934   0.99764   0.47628   0.00000  Uiso   1.00
H174   H     0.39834   0.61732   0.05778   0.00000  Uiso   1.00
H175   H     0.65114   0.88596   0.63842   0.00000  Uiso   1.00
O176   O     0.36357   0.17796   0.48330   0.00000  Uiso   1.00
O177   O     0.53280   0.67899   0.24621   0.00000  Uiso   1.00
O178   O     0.55249   0.03144   0.69602   0.00000  Uiso   1.00
N179   N     0.32535   0.18565   0.62211   0.00000  Uiso   1.00
N180   N     0.44597   0.83007   0.16577   0.00000  Uiso   1.00
N181   N     0.74741   0.08122   0.77373   0.00000  Uiso   1.00
N182   N     0.27871   0.04664   0.53135   0.00000  Uiso   1.00
N183   N     0.39934   0.69107   0.07502   0.00000  Uiso   1.00
N184   N     0.70077   0.94221   0.68297   0.00000  Uiso   1.00
