data_job_06536
_audit_creation_date              2018-12-19
_audit_creation_method            'Materials Studio'
_symmetry_space_group_name_H-M    'P1'
_symmetry_Int_Tables_number       1
_symmetry_cell_setting            triclinic
loop_
_symmetry_equiv_pos_as_xyz
  x,y,z
_cell_length_a                    18.2521
_cell_length_b                    20.9518
_cell_length_c                    24.1958
_cell_angle_alpha                 71.4549
_cell_angle_beta                  68.5758
_cell_angle_gamma                 81.0665
loop_
_atom_site_label
_atom_site_type_symbol
_atom_site_fract_x
_atom_site_fract_y
_atom_site_fract_z
_atom_site_U_iso_or_equiv
_atom_site_adp_type
_atom_site_occupancy
C1     C     0.81844   0.47348   0.43382   0.00000  Uiso   1.00
C2     C     0.73118   0.46819   0.44612   0.00000  Uiso   1.00
C3     C     0.67409   0.52013   0.45150   0.00000  Uiso   1.00
C4     C     0.59756   0.50509   0.46280   0.00000  Uiso   1.00
C5     C     0.46489   0.50670   0.48107   0.00000  Uiso   1.00
C6     C     0.83778   0.41972   0.48680   0.00000  Uiso   1.00
C7     C     0.87033   0.43091   0.52637   0.00000  Uiso   1.00
C8     C     0.88356   0.37507   0.57191   0.00000  Uiso   1.00
C9     C     0.91645   0.30142   0.65330   0.00000  Uiso   1.00
C10    C     0.86281   0.45095   0.37574   0.00000  Uiso   1.00
C11    C     0.91643   0.48840   0.32193   0.00000  Uiso   1.00
C12    C     0.95075   0.45884   0.27397   0.00000  Uiso   1.00
C13    C     0.02250   0.43369   0.18293   0.00000  Uiso   1.00
C14    C     0.78407   0.35442   0.44433   0.00000  Uiso   1.00
C15    C     0.71251   0.40351   0.45183   0.00000  Uiso   1.00
C16    C     0.63605   0.38840   0.46313   0.00000  Uiso   1.00
C17    C     0.57886   0.44031   0.46852   0.00000  Uiso   1.00
C18    C     0.81911   0.35505   0.49251   0.00000  Uiso   1.00
C19    C     0.83230   0.29918   0.53800   0.00000  Uiso   1.00
C20    C     0.86485   0.31028   0.57763   0.00000  Uiso   1.00
C21    C     0.84414   0.38628   0.38145   0.00000  Uiso   1.00
C22    C     0.87839   0.35666   0.33356   0.00000  Uiso   1.00
C23    C     0.93204   0.39405   0.27969   0.00000  Uiso   1.00
H24    H     0.83298   0.52383   0.42937   0.00000  Uiso   1.00
H25    H     0.68856   0.57017   0.44708   0.00000  Uiso   1.00
H26    H     0.88478   0.48096   0.52193   0.00000  Uiso   1.00
H27    H     0.93087   0.53844   0.31753   0.00000  Uiso   1.00
H28    H     0.52020   0.59301   0.46925   0.00000  Uiso   1.00
H29    H     0.93397   0.40491   0.62707   0.00000  Uiso   1.00
H30    H     0.03115   0.52612   0.19605   0.00000  Uiso   1.00
H31    H     0.76953   0.30407   0.44877   0.00000  Uiso   1.00
H32    H     0.62162   0.33834   0.46754   0.00000  Uiso   1.00
H33    H     0.81784   0.24914   0.54240   0.00000  Uiso   1.00
H34    H     0.86393   0.30662   0.33800   0.00000  Uiso   1.00
H35    H     0.46587   0.40486   0.48587   0.00000  Uiso   1.00
H36    H     0.87964   0.21675   0.64368   0.00000  Uiso   1.00
H37    H     0.97682   0.33796   0.21266   0.00000  Uiso   1.00
O38    O     0.39687   0.52544   0.48958   0.00000  Uiso   1.00
O39    O     0.93974   0.27866   0.69662   0.00000  Uiso   1.00
O40    O     0.06723   0.43768   0.13113   0.00000  Uiso   1.00
N41    N     0.52771   0.54403   0.47057   0.00000  Uiso   1.00
N42    N     0.91455   0.36817   0.61813   0.00000  Uiso   1.00
N43    N     0.00542   0.48148   0.21517   0.00000  Uiso   1.00
N44    N     0.49848   0.44278   0.47951   0.00000  Uiso   1.00
N45    N     0.88532   0.26692   0.62707   0.00000  Uiso   1.00
N46    N     0.97619   0.38023   0.22411   0.00000  Uiso   1.00
C47    C     0.79449   0.86944   0.49716   0.00000  Uiso   1.00
C48    C     0.77094   0.94442   0.48373   0.00000  Uiso   1.00
C49    C     0.81373   0.99534   0.43495   0.00000  Uiso   1.00
C50    C     0.78218   0.06073   0.43067   0.00000  Uiso   1.00
C51    C     0.75655   0.17504   0.40329   0.00000  Uiso   1.00
C52    C     0.79591   0.84687   0.56323   0.00000  Uiso   1.00
C53    C     0.85970   0.81578   0.58130   0.00000  Uiso   1.00
C54    C     0.84916   0.79904   0.64395   0.00000  Uiso   1.00
C55    C     0.86228   0.76186   0.74000   0.00000  Uiso   1.00
C56    C     0.72606   0.83456   0.49876   0.00000  Uiso   1.00
C57    C     0.73113   0.79310   0.46264   0.00000  Uiso   1.00
C58    C     0.66179   0.76599   0.47103   0.00000  Uiso   1.00
C59    C     0.56647   0.70970   0.46699   0.00000  Uiso   1.00
C60    C     0.66235   0.89500   0.57630   0.00000  Uiso   1.00
C61    C     0.69916   0.95830   0.52672   0.00000  Uiso   1.00
C62    C     0.66754   0.02363   0.52251   0.00000  Uiso   1.00
C63    C     0.71028   0.07464   0.47373   0.00000  Uiso   1.00
C64    C     0.72414   0.86075   0.60622   0.00000  Uiso   1.00
C65    C     0.71350   0.84406   0.66886   0.00000  Uiso   1.00
C66    C     0.77726   0.81295   0.68701   0.00000  Uiso   1.00
C67    C     0.65429   0.84845   0.54175   0.00000  Uiso   1.00
C68    C     0.58493   0.82139   0.55020   0.00000  Uiso   1.00
C69    C     0.58989   0.77990   0.51409   0.00000  Uiso   1.00
H70    H     0.85036   0.85863   0.46370   0.00000  Uiso   1.00
H71    H     0.86928   0.98458   0.40170   0.00000  Uiso   1.00
H72    H     0.91523   0.80503   0.54802   0.00000  Uiso   1.00
H73    H     0.78668   0.78237   0.42938   0.00000  Uiso   1.00
H74    H     0.85861   0.13034   0.35193   0.00000  Uiso   1.00
H75    H     0.95549   0.75174   0.66046   0.00000  Uiso   1.00
H76    H     0.68442   0.70394   0.41029   0.00000  Uiso   1.00
H77    H     0.60647   0.90581   0.60977   0.00000  Uiso   1.00
H78    H     0.61199   0.03435   0.55578   0.00000  Uiso   1.00
H79    H     0.65795   0.85481   0.70211   0.00000  Uiso   1.00
H80    H     0.52940   0.83214   0.58347   0.00000  Uiso   1.00
H81    H     0.64979   0.17074   0.47699   0.00000  Uiso   1.00
H82    H     0.74668   0.79213   0.78553   0.00000  Uiso   1.00
H83    H     0.47560   0.74434   0.53535   0.00000  Uiso   1.00
O84    O     0.76225   0.23425   0.37632   0.00000  Uiso   1.00
O85    O     0.88935   0.73752   0.78111   0.00000  Uiso   1.00
O86    O     0.53371   0.67482   0.45288   0.00000  Uiso   1.00
N87    N     0.80869   0.12221   0.38876   0.00000  Uiso   1.00
N88    N     0.89928   0.76824   0.67722   0.00000  Uiso   1.00
N89    N     0.64586   0.72354   0.44334   0.00000  Uiso   1.00
N90    N     0.69633   0.14395   0.45606   0.00000  Uiso   1.00
N91    N     0.78692   0.78998   0.74452   0.00000  Uiso   1.00
N92    N     0.53349   0.74528   0.51064   0.00000  Uiso   1.00
C93    C     0.33756   0.95125   0.31789   0.00000  Uiso   1.00
C94    C     0.42140   0.93696   0.31944   0.00000  Uiso   1.00
C95    C     0.48325   0.90844   0.27951   0.00000  Uiso   1.00
C96    C     0.55546   0.89950   0.28856   0.00000  Uiso   1.00
C97    C     0.68412   0.87440   0.28380   0.00000  Uiso   1.00
C98    C     0.28415   0.91441   0.38212   0.00000  Uiso   1.00
C99    C     0.23059   0.86694   0.39489   0.00000  Uiso   1.00
C100   C     0.18725   0.83902   0.45671   0.00000  Uiso   1.00
C101   C     0.10278   0.77896   0.54926   0.00000  Uiso   1.00
C102   C     0.31963   0.02624   0.31177   0.00000  Uiso   1.00
C103   C     0.29588   0.07279   0.26540   0.00000  Uiso   1.00
C104   C     0.28238   0.13902   0.26799   0.00000  Uiso   1.00
C105   C     0.25300   0.25257   0.25130   0.00000  Uiso   1.00
C106   C     0.35580   0.98608   0.40496   0.00000  Uiso   1.00
C107   C     0.43131   0.95588   0.36674   0.00000  Uiso   1.00
C108   C     0.50343   0.94698   0.37585   0.00000  Uiso   1.00
C109   C     0.56538   0.91845   0.33593   0.00000  Uiso   1.00
C110   C     0.29405   0.93333   0.42942   0.00000  Uiso   1.00
C111   C     0.25077   0.90548   0.49123   0.00000  Uiso   1.00
C112   C     0.19717   0.85798   0.50409   0.00000  Uiso   1.00
C113   C     0.32953   0.04516   0.35906   0.00000  Uiso   1.00
C114   C     0.31606   0.11133   0.36173   0.00000  Uiso   1.00
C115   C     0.29231   0.15797   0.31537   0.00000  Uiso   1.00
H116   H     0.32984   0.93652   0.28107   0.00000  Uiso   1.00
H117   H     0.47556   0.89380   0.24292   0.00000  Uiso   1.00
H118   H     0.22293   0.85232   0.35828   0.00000  Uiso   1.00
H119   H     0.28822   0.05813   0.22881   0.00000  Uiso   1.00
H120   H     0.64148   0.85476   0.22150   0.00000  Uiso   1.00
H121   H     0.10878   0.76731   0.46474   0.00000  Uiso   1.00
H122   H     0.24644   0.20130   0.19172   0.00000  Uiso   1.00
H123   H     0.36351   0.00081   0.44178   0.00000  Uiso   1.00
H124   H     0.51108   0.96163   0.41245   0.00000  Uiso   1.00
H125   H     0.25845   0.92014   0.52781   0.00000  Uiso   1.00
H126   H     0.32374   0.12595   0.39833   0.00000  Uiso   1.00
H127   H     0.67031   0.90981   0.35909   0.00000  Uiso   1.00
H128   H     0.13760   0.82235   0.60234   0.00000  Uiso   1.00
H129   H     0.27527   0.25635   0.32931   0.00000  Uiso   1.00
O130   O     0.75236   0.85533   0.26811   0.00000  Uiso   1.00
O131   O     0.05347   0.74059   0.58724   0.00000  Uiso   1.00
O132   O     0.23407   0.30999   0.22903   0.00000  Uiso   1.00
N133   N     0.62802   0.87311   0.25790   0.00000  Uiso   1.00
N134   N     0.12998   0.79133   0.48532   0.00000  Uiso   1.00
N135   N     0.25866   0.19708   0.23007   0.00000  Uiso   1.00
N136   N     0.64353   0.90273   0.33194   0.00000  Uiso   1.00
N137   N     0.14550   0.82095   0.55936   0.00000  Uiso   1.00
N138   N     0.27417   0.22670   0.30411   0.00000  Uiso   1.00
C139   C     0.86280   0.12327   0.97381   0.00000  Uiso   1.00
C140   C     0.93405   0.09248   0.93196   0.00000  Uiso   1.00
C141   C     0.99758   0.12733   0.88568   0.00000  Uiso   1.00
C142   C     0.05689   0.09002   0.85254   0.00000  Uiso   1.00
C143   C     0.16817   0.05280   0.78565   0.00000  Uiso   1.00
C144   C     0.85834   0.08490   0.04002   0.00000  Uiso   1.00
C145   C     0.85821   0.11337   0.08460   0.00000  Uiso   1.00
C146   C     0.85378   0.06968   0.14243   0.00000  Uiso   1.00
C147   C     0.84746   0.02070   0.24331   0.00000  Uiso   1.00
C148   C     0.79078   0.10456   0.96551   0.00000  Uiso   1.00
C149   C     0.73382   0.14956   0.94745   0.00000  Uiso   1.00
C150   C     0.67249   0.12242   0.94256   0.00000  Uiso   1.00
C151   C     0.56127   0.10396   0.92775   0.00000  Uiso   1.00
C152   C     0.85515   0.99505   0.99725   0.00000  Uiso   1.00
C153   C     0.92989   0.02284   0.94470   0.00000  Uiso   1.00
C154   C     0.98912   0.98547   0.91162   0.00000  Uiso   1.00
C155   C     0.05273   0.02025   0.86529   0.00000  Uiso   1.00
C156   C     0.85419   0.01526   0.05276   0.00000  Uiso   1.00
C157   C     0.84975   0.97151   0.11053   0.00000  Uiso   1.00
C158   C     0.84962   0.99991   0.15518   0.00000  Uiso   1.00
C159   C     0.78662   0.03492   0.97824   0.00000  Uiso   1.00
C160   C     0.72536   0.00770   0.97338   0.00000  Uiso   1.00
C161   C     0.66833   0.05265   0.95531   0.00000  Uiso   1.00
H162   H     0.86604   0.17749   0.96390   0.00000  Uiso   1.00
H163   H     0.00078   0.18122   0.87585   0.00000  Uiso   1.00
H164   H     0.86142   0.16727   0.07474   0.00000  Uiso   1.00
H165   H     0.73705   0.20345   0.93760   0.00000  Uiso   1.00
H166   H     0.14835   0.15465   0.78385   0.00000  Uiso   1.00
H167   H     0.85447   0.12523   0.20323   0.00000  Uiso   1.00
H168   H     0.59222   0.20152   0.91406   0.00000  Uiso   1.00
H169   H     0.85192   0.94083   0.00716   0.00000  Uiso   1.00
H170   H     0.98589   0.93157   0.92148   0.00000  Uiso   1.00
H171   H     0.84653   0.91762   0.12037   0.00000  Uiso   1.00
H172   H     0.72217   0.95380   0.98324   0.00000  Uiso   1.00
H173   H     0.13627   0.95202   0.82089   0.00000  Uiso   1.00
H174   H     0.84239   0.92260   0.24027   0.00000  Uiso   1.00
H175   H     0.58014   0.99890   0.95109   0.00000  Uiso   1.00
O176   O     0.23070   0.05151   0.74524   0.00000  Uiso   1.00
O177   O     0.84514   0.01292   0.29544   0.00000  Uiso   1.00
O178   O     0.50107   0.11302   0.91606   0.00000  Uiso   1.00
N179   N     0.12711   0.10823   0.80432   0.00000  Uiso   1.00
N180   N     0.85237   0.08073   0.19641   0.00000  Uiso   1.00
N181   N     0.60717   0.15206   0.92607   0.00000  Uiso   1.00
N182   N     0.12061   0.99920   0.82425   0.00000  Uiso   1.00
N183   N     0.84587   0.97170   0.21634   0.00000  Uiso   1.00
N184   N     0.60067   0.04302   0.94600   0.00000  Uiso   1.00
C185   C     0.97882   0.56382   0.87505   0.00000  Uiso   1.00
C186   C     0.03344   0.62020   0.85866   0.00000  Uiso   1.00
C187   C     0.00978   0.68515   0.86307   0.00000  Uiso   1.00
C188   C     0.06880   0.72932   0.84587   0.00000  Uiso   1.00
C189   C     0.14147   0.81992   0.82362   0.00000  Uiso   1.00
C190   C     0.00212   0.50537   0.92309   0.00000  Uiso   1.00
C191   C     0.95212   0.47377   0.98168   0.00000  Uiso   1.00
C192   C     0.98478   0.42128   0.01872   0.00000  Uiso   1.00
C193   C     0.00881   0.33358   0.09649   0.00000  Uiso   1.00
C194   C     0.00158   0.54049   0.81709   0.00000  Uiso   1.00
C195   C     0.95112   0.53839   0.78656   0.00000  Uiso   1.00
C196   C     0.98332   0.51545   0.73436   0.00000  Uiso   1.00
C197   C     0.00652   0.48227   0.64755   0.00000  Uiso   1.00
C198   C     0.12573   0.52677   0.83665   0.00000  Uiso   1.00
C199   C     0.11323   0.60007   0.83780   0.00000  Uiso   1.00
C200   C     0.17231   0.64416   0.82059   0.00000  Uiso   1.00
C201   C     0.14874   0.70917   0.82497   0.00000  Uiso   1.00
C202   C     0.08191   0.48525   0.90224   0.00000  Uiso   1.00
C203   C     0.11465   0.43279   0.93920   0.00000  Uiso   1.00
C204   C     0.06472   0.40112   0.99783   0.00000  Uiso   1.00
C205   C     0.08137   0.52037   0.79624   0.00000  Uiso   1.00
C206   C     0.11366   0.49741   0.74408   0.00000  Uiso   1.00
C207   C     0.06326   0.49529   0.71347   0.00000  Uiso   1.00
H208   H     0.91670   0.57948   0.89129   0.00000  Uiso   1.00
H209   H     0.94802   0.70070   0.87922   0.00000  Uiso   1.00
H210   H     0.89037   0.48935   0.99780   0.00000  Uiso   1.00
H211   H     0.88938   0.55397   0.80271   0.00000  Uiso   1.00
H212   H     0.01793   0.82621   0.85665   0.00000  Uiso   1.00
H213   H     0.89637   0.38057   0.10669   0.00000  Uiso   1.00
H214   H     0.89427   0.51682   0.69531   0.00000  Uiso   1.00
H215   H     0.18785   0.51110   0.82042   0.00000  Uiso   1.00
H216   H     0.23405   0.62858   0.80445   0.00000  Uiso   1.00
H217   H     0.17640   0.41723   0.92304   0.00000  Uiso   1.00
H218   H     0.17541   0.48185   0.72796   0.00000  Uiso   1.00
H219   H     0.25009   0.76767   0.79598   0.00000  Uiso   1.00
H220   H     0.12852   0.32203   0.04602   0.00000  Uiso   1.00
H221   H     0.12643   0.45828   0.63464   0.00000  Uiso   1.00
O222   O     0.15951   0.87545   0.81711   0.00000  Uiso   1.00
O223   O     0.00002   0.29077   0.14515   0.00000  Uiso   1.00
O224   O     0.99727   0.46953   0.60543   0.00000  Uiso   1.00
N225   N     0.06623   0.79632   0.84455   0.00000  Uiso   1.00
N226   N     0.95258   0.37967   0.07833   0.00000  Uiso   1.00
N227   N     0.95061   0.50704   0.69373   0.00000  Uiso   1.00
N228   N     0.19115   0.76482   0.81190   0.00000  Uiso   1.00
N229   N     0.07750   0.34818   0.04568   0.00000  Uiso   1.00
N230   N     0.07553   0.47554   0.66108   0.00000  Uiso   1.00
C231   C     0.52937   0.46286   0.20234   0.00000  Uiso   1.00
C232   C     0.45357   0.43695   0.25457   0.00000  Uiso   1.00
C233   C     0.38563   0.42460   0.24723   0.00000  Uiso   1.00
C234   C     0.32260   0.40101   0.30080   0.00000  Uiso   1.00
C235   C     0.20418   0.36240   0.37296   0.00000  Uiso   1.00
C236   C     0.59459   0.41121   0.21438   0.00000  Uiso   1.00
C237   C     0.64522   0.37722   0.17325   0.00000  Uiso   1.00
C238   C     0.70091   0.33197   0.19299   0.00000  Uiso   1.00
C239   C     0.80146   0.25343   0.20274   0.00000  Uiso   1.00
C240   C     0.54606   0.52675   0.21222   0.00000  Uiso   1.00
C241   C     0.55591   0.58991   0.16927   0.00000  Uiso   1.00
C242   C     0.57076   0.64193   0.18719   0.00000  Uiso   1.00
C243   C     0.59595   0.74279   0.19358   0.00000  Uiso   1.00
C244   C     0.53826   0.44293   0.31054   0.00000  Uiso   1.00
C245   C     0.45840   0.42613   0.31333   0.00000  Uiso   1.00
C246   C     0.39546   0.40256   0.36693   0.00000  Uiso   1.00
C247   C     0.32744   0.39017   0.35968   0.00000  Uiso   1.00
C248   C     0.59942   0.40038   0.27314   0.00000  Uiso   1.00
C249   C     0.65505   0.35518   0.29295   0.00000  Uiso   1.00
C250   C     0.70575   0.32112   0.25187   0.00000  Uiso   1.00
C251   C     0.55088   0.51593   0.27099   0.00000  Uiso   1.00
C252   C     0.56573   0.56786   0.28898   0.00000  Uiso   1.00
C253   C     0.57559   0.63109   0.24606   0.00000  Uiso   1.00
H254   H     0.52562   0.47128   0.15659   0.00000  Uiso   1.00
H255   H     0.38192   0.43298   0.20174   0.00000  Uiso   1.00
H256   H     0.64148   0.38561   0.12777   0.00000  Uiso   1.00
H257   H     0.55217   0.59827   0.12380   0.00000  Uiso   1.00
H258   H     0.22474   0.38571   0.27772   0.00000  Uiso   1.00
H259   H     0.77204   0.28585   0.12174   0.00000  Uiso   1.00
H260   H     0.58372   0.73428   0.11336   0.00000  Uiso   1.00
H261   H     0.54202   0.43451   0.35629   0.00000  Uiso   1.00
H262   H     0.39921   0.39419   0.41241   0.00000  Uiso   1.00
H263   H     0.65877   0.34682   0.33843   0.00000  Uiso   1.00
H264   H     0.56946   0.55947   0.33446   0.00000  Uiso   1.00
H265   H     0.23877   0.35423   0.44870   0.00000  Uiso   1.00
H266   H     0.78608   0.25437   0.29272   0.00000  Uiso   1.00
H267   H     0.59776   0.70279   0.28434   0.00000  Uiso   1.00
O268   O     0.13753   0.34409   0.39652   0.00000  Uiso   1.00
O269   O     0.85558   0.21309   0.19188   0.00000  Uiso   1.00
O270   O     0.60850   0.80141   0.18088   0.00000  Uiso   1.00
N271   N     0.24764   0.38385   0.31026   0.00000  Uiso   1.00
N272   N     0.75932   0.29048   0.16443   0.00000  Uiso   1.00
N273   N     0.58328   0.70972   0.15659   0.00000  Uiso   1.00
N274   N     0.25519   0.36691   0.40227   0.00000  Uiso   1.00
N275   N     0.76688   0.27354   0.25644   0.00000  Uiso   1.00
N276   N     0.59083   0.69277   0.24859   0.00000  Uiso   1.00
C277   C     0.16560   0.08793   0.53803   0.00000  Uiso   1.00
C278   C     0.20312   0.14787   0.53840   0.00000  Uiso   1.00
C279   C     0.28325   0.15500   0.52213   0.00000  Uiso   1.00
C280   C     0.30573   0.21359   0.52554   0.00000  Uiso   1.00
C281   C     0.37246   0.29913   0.52320   0.00000  Uiso   1.00
C282   C     0.11573   0.11682   0.49631   0.00000  Uiso   1.00
C283   C     0.12238   0.09782   0.44465   0.00000  Uiso   1.00
C284   C     0.07129   0.13026   0.41263   0.00000  Uiso   1.00
C285   C     0.00231   0.16756   0.34496   0.00000  Uiso   1.00
C286   C     0.10767   0.06172   0.60335   0.00000  Uiso   1.00
C287   C     0.10752   0.99638   0.64170   0.00000  Uiso   1.00
C288   C     0.04962   0.98242   0.69980   0.00000  Uiso   1.00
C289   C     0.96812   0.93416   0.79834   0.00000  Uiso   1.00
C290   C     0.06304   0.17931   0.57303   0.00000  Uiso   1.00
C291   C     0.14741   0.19751   0.55741   0.00000  Uiso   1.00
C292   C     0.16977   0.25610   0.56085   0.00000  Uiso   1.00
C293   C     0.24992   0.26331   0.54459   0.00000  Uiso   1.00
C294   C     0.06003   0.16645   0.51531   0.00000  Uiso   1.00
C295   C     0.00891   0.19893   0.48337   0.00000  Uiso   1.00
C296   C     0.01548   0.17999   0.43167   0.00000  Uiso   1.00
C297   C     0.05196   0.11135   0.62236   0.00000  Uiso   1.00
C298   C     0.99404   0.09749   0.68042   0.00000  Uiso   1.00
C299   C     0.99381   0.03215   0.71884   0.00000  Uiso   1.00
H300   H     0.20897   0.04928   0.52323   0.00000  Uiso   1.00
H301   H     0.32634   0.11658   0.50742   0.00000  Uiso   1.00
H302   H     0.16550   0.05940   0.42995   0.00000  Uiso   1.00
H303   H     0.15064   0.95798   0.62697   0.00000  Uiso   1.00
H304   H     0.43190   0.21308   0.49825   0.00000  Uiso   1.00
H305   H     0.09273   0.09252   0.33492   0.00000  Uiso   1.00
H306   H     0.06140   0.87865   0.75038   0.00000  Uiso   1.00
H307   H     0.01966   0.21796   0.58783   0.00000  Uiso   1.00
H308   H     0.12665   0.29451   0.57556   0.00000  Uiso   1.00
H309   H     0.96580   0.23733   0.49810   0.00000  Uiso   1.00
H310   H     0.95094   0.13591   0.69511   0.00000  Uiso   1.00
H311   H     0.26982   0.35750   0.55355   0.00000  Uiso   1.00
H312   H     0.93065   0.23693   0.39023   0.00000  Uiso   1.00
H313   H     0.89932   0.02306   0.80568   0.00000  Uiso   1.00
O314   O     0.42466   0.33261   0.51665   0.00000  Uiso   1.00
O315   O     0.97966   0.17442   0.30238   0.00000  Uiso   1.00
O316   O     0.93856   0.89384   0.84744   0.00000  Uiso   1.00
N317   N     0.37907   0.23656   0.51296   0.00000  Uiso   1.00
N318   N     0.06198   0.12384   0.36026   0.00000  Uiso   1.00
N319   N     0.03267   0.92389   0.74866   0.00000  Uiso   1.00
N320   N     0.29186   0.31427   0.54272   0.00000  Uiso   1.00
N321   N     0.97476   0.20155   0.39002   0.00000  Uiso   1.00
N322   N     0.94546   0.00160   0.77842   0.00000  Uiso   1.00
C323   C     0.16576   0.63382   0.26467   0.00000  Uiso   1.00
C324   C     0.20760   0.59736   0.21531   0.00000  Uiso   1.00
C325   C     0.17126   0.57023   0.18706   0.00000  Uiso   1.00
C326   C     0.21988   0.53889   0.14302   0.00000  Uiso   1.00
C327   C     0.27236   0.48293   0.06867   0.00000  Uiso   1.00
C328   C     0.20120   0.70288   0.23947   0.00000  Uiso   1.00
C329   C     0.15948   0.76448   0.23154   0.00000  Uiso   1.00
C330   C     0.20272   0.82196   0.20785   0.00000  Uiso   1.00
C331   C     0.24527   0.92982   0.17105   0.00000  Uiso   1.00
C332   C     0.19196   0.59613   0.32004   0.00000  Uiso   1.00
C333   C     0.14247   0.56797   0.37986   0.00000  Uiso   1.00
C334   C     0.17794   0.53559   0.42401   0.00000  Uiso   1.00
C335   C     0.20614   0.47769   0.51231   0.00000  Uiso   1.00
C336   C     0.31675   0.62639   0.23670   0.00000  Uiso   1.00
C337   C     0.28960   0.59333   0.20012   0.00000  Uiso   1.00
C338   C     0.33830   0.56202   0.15611   0.00000  Uiso   1.00
C339   C     0.30203   0.53485   0.12780   0.00000  Uiso   1.00
C340   C     0.28321   0.69885   0.22428   0.00000  Uiso   1.00
C341   C     0.32652   0.75626   0.20060   0.00000  Uiso   1.00
C342   C     0.28488   0.81792   0.19263   0.00000  Uiso   1.00
C343   C     0.27397   0.59209   0.30485   0.00000  Uiso   1.00
C344   C     0.30952   0.55975   0.34892   0.00000  Uiso   1.00
C345   C     0.26009   0.53155   0.40879   0.00000  Uiso   1.00
H346   H     0.10192   0.63696   0.27649   0.00000  Uiso   1.00
H347   H     0.10779   0.57337   0.19882   0.00000  Uiso   1.00
H348   H     0.09602   0.76758   0.24331   0.00000  Uiso   1.00
H349   H     0.07901   0.57110   0.39160   0.00000  Uiso   1.00
H350   H     0.15046   0.50111   0.10600   0.00000  Uiso   1.00
H351   H     0.12564   0.91061   0.19981   0.00000  Uiso   1.00
H352   H     0.08978   0.49631   0.51252   0.00000  Uiso   1.00
H353   H     0.38059   0.62325   0.22487   0.00000  Uiso   1.00
H354   H     0.40176   0.55890   0.14437   0.00000  Uiso   1.00
H355   H     0.38998   0.75312   0.18885   0.00000  Uiso   1.00
H356   H     0.37298   0.55664   0.33714   0.00000  Uiso   1.00
H357   H     0.38906   0.48938   0.06179   0.00000  Uiso   1.00
H358   H     0.36423   0.89888   0.15561   0.00000  Uiso   1.00
H359   H     0.32838   0.48457   0.46832   0.00000  Uiso   1.00
O360   O     0.27866   0.45318   0.03185   0.00000  Uiso   1.00
O361   O     0.24608   0.99043   0.15495   0.00000  Uiso   1.00
O362   O     0.19904   0.44687   0.56521   0.00000  Uiso   1.00
N363   N     0.20371   0.50717   0.10665   0.00000  Uiso   1.00
N364   N     0.18050   0.89003   0.19435   0.00000  Uiso   1.00
N365   N     0.14698   0.50270   0.48671   0.00000  Uiso   1.00
N366   N     0.33210   0.50085   0.08287   0.00000  Uiso   1.00
N367   N     0.30889   0.88371   0.17057   0.00000  Uiso   1.00
N368   N     0.27536   0.49638   0.46293   0.00000  Uiso   1.00
C369   C     0.73924   0.57114   0.70602   0.00000  Uiso   1.00
C370   C     0.65910   0.60515   0.70589   0.00000  Uiso   1.00
C371   C     0.61139   0.64091   0.74650   0.00000  Uiso   1.00
C372   C     0.54024   0.66821   0.73876   0.00000  Uiso   1.00
C373   C     0.41925   0.72229   0.74565   0.00000  Uiso   1.00
C374   C     0.79703   0.60058   0.64132   0.00000  Uiso   1.00
C375   C     0.86530   0.63249   0.62764   0.00000  Uiso   1.00
C376   C     0.91027   0.65593   0.56553   0.00000  Uiso   1.00
C377   C     0.00346   0.70287   0.47216   0.00000  Uiso   1.00
C378   C     0.73313   0.49734   0.71193   0.00000  Uiso   1.00
C379   C     0.74769   0.44244   0.75760   0.00000  Uiso   1.00
C380   C     0.73887   0.37896   0.75493   0.00000  Uiso   1.00
C381   C     0.73284   0.26561   0.77120   0.00000  Uiso   1.00
C382   C     0.69771   0.55602   0.62005   0.00000  Uiso   1.00
C383   C     0.63654   0.59693   0.65919   0.00000  Uiso   1.00
C384   C     0.56544   0.62418   0.65139   0.00000  Uiso   1.00
C385   C     0.51764   0.65998   0.69198   0.00000  Uiso   1.00
C386   C     0.77448   0.59236   0.59462   0.00000  Uiso   1.00
C387   C     0.81936   0.61576   0.53252   0.00000  Uiso   1.00
C388   C     0.88768   0.64770   0.51875   0.00000  Uiso   1.00
C389   C     0.71057   0.48912   0.66523   0.00000  Uiso   1.00
C390   C     0.70174   0.42571   0.66249   0.00000  Uiso   1.00
C391   C     0.71628   0.37073   0.70815   0.00000  Uiso   1.00
H392   H     0.75680   0.57754   0.74237   0.00000  Uiso   1.00
H393   H     0.62887   0.64726   0.78263   0.00000  Uiso   1.00
H394   H     0.88275   0.63883   0.66378   0.00000  Uiso   1.00
H395   H     0.76514   0.44882   0.79373   0.00000  Uiso   1.00
H396   H     0.47710   0.72097   0.80666   0.00000  Uiso   1.00
H397   H     0.01243   0.70317   0.55606   0.00000  Uiso   1.00
H398   H     0.76444   0.30249   0.83008   0.00000  Uiso   1.00
H399   H     0.68015   0.54962   0.58369   0.00000  Uiso   1.00
H400   H     0.54800   0.61782   0.61525   0.00000  Uiso   1.00
H401   H     0.80188   0.60939   0.49640   0.00000  Uiso   1.00
H402   H     0.68428   0.41937   0.62634   0.00000  Uiso   1.00
H403   H     0.41147   0.69707   0.67080   0.00000  Uiso   1.00
H404   H     0.94680   0.67927   0.42020   0.00000  Uiso   1.00
H405   H     0.69881   0.27859   0.69422   0.00000  Uiso   1.00
O406   O     0.35875   0.75440   0.76234   0.00000  Uiso   1.00
O407   O     0.06109   0.73104   0.43357   0.00000  Uiso   1.00
O408   O     0.73573   0.20536   0.79308   0.00000  Uiso   1.00
N409   N     0.47978   0.70597   0.77037   0.00000  Uiso   1.00
N410   N     0.98028   0.68935   0.53607   0.00000  Uiso   1.00
N411   N     0.74845   0.31474   0.79225   0.00000  Uiso   1.00
N412   N     0.44447   0.69311   0.69726   0.00000  Uiso   1.00
N413   N     0.94496   0.67649   0.46297   0.00000  Uiso   1.00
N414   N     0.71313   0.30188   0.71914   0.00000  Uiso   1.00
C415   C     0.91458   0.61725   0.06330   0.00000  Uiso   1.00
C416   C     0.88628   0.64274   0.12044   0.00000  Uiso   1.00
C417   C     0.85261   0.60418   0.18111   0.00000  Uiso   1.00
C418   C     0.83062   0.63688   0.22684   0.00000  Uiso   1.00
C419   C     0.78492   0.66599   0.31776   0.00000  Uiso   1.00
C420   C     0.87080   0.66128   0.02059   0.00000  Uiso   1.00
C421   C     0.82413   0.63830   0.99729   0.00000  Uiso   1.00
C422   C     0.78912   0.68661   0.95897   0.00000  Uiso   1.00
C423   C     0.71943   0.74450   0.89483   0.00000  Uiso   1.00
C424   C     0.00093   0.63454   0.03061   0.00000  Uiso   1.00
C425   C     0.06367   0.58909   0.01573   0.00000  Uiso   1.00
C426   C     0.13823   0.61489   0.98583   0.00000  Uiso   1.00
C427   C     0.27059   0.63127   0.93725   0.00000  Uiso   1.00
C428   C     0.93542   0.74390   0.03665   0.00000  Uiso   1.00
C429   C     0.89760   0.71153   0.10596   0.00000  Uiso   1.00
C430   C     0.87566   0.74430   0.15162   0.00000  Uiso   1.00
C431   C     0.84196   0.70579   0.21234   0.00000  Uiso   1.00
C432   C     0.88212   0.73007   0.00611   0.00000  Uiso   1.00
C433   C     0.84718   0.77842   0.96780   0.00000  Uiso   1.00
C434   C     0.80046   0.75553   0.94446   0.00000  Uiso   1.00
C435   C     0.01226   0.70333   0.01614   0.00000  Uiso   1.00
C436   C     0.08673   0.72921   0.98624   0.00000  Uiso   1.00
C437   C     0.14956   0.68381   0.97132   0.00000  Uiso   1.00
H438   H     0.90577   0.56370   0.07457   0.00000  Uiso   1.00
H439   H     0.84385   0.55094   0.19229   0.00000  Uiso   1.00
H440   H     0.81538   0.58506   0.00850   0.00000  Uiso   1.00
H441   H     0.05489   0.53586   0.02694   0.00000  Uiso   1.00
H442   H     0.78017   0.56714   0.31642   0.00000  Uiso   1.00
H443   H     0.72016   0.63908   0.92887   0.00000  Uiso   1.00
H444   H     0.22521   0.53532   0.96775   0.00000  Uiso   1.00
H445   H     0.94424   0.79746   0.02537   0.00000  Uiso   1.00
H446   H     0.88443   0.79754   0.14040   0.00000  Uiso   1.00
H447   H     0.85596   0.83165   0.95661   0.00000  Uiso   1.00
H448   H     0.09546   0.78245   0.97505   0.00000  Uiso   1.00
H449   H     0.81310   0.76729   0.27430   0.00000  Uiso   1.00
H450   H     0.75310   0.83923   0.88675   0.00000  Uiso   1.00
H451   H     0.25814   0.73547   0.92563   0.00000  Uiso   1.00
O452   O     0.75658   0.66305   0.37191   0.00000  Uiso   1.00
O453   O     0.67786   0.75743   0.86345   0.00000  Uiso   1.00
O454   O     0.34047   0.62130   0.91446   0.00000  Uiso   1.00
N455   N     0.79614   0.61423   0.29072   0.00000  Uiso   1.00
N456   N     0.74003   0.68150   0.92840   0.00000  Uiso   1.00
N457   N     0.21220   0.58449   0.96473   0.00000  Uiso   1.00
N458   N     0.81386   0.72193   0.26806   0.00000  Uiso   1.00
N459   N     0.75775   0.78919   0.90573   0.00000  Uiso   1.00
N460   N     0.22993   0.69218   0.94206   0.00000  Uiso   1.00
C461   C     0.64293   0.17313   0.13875   0.00000  Uiso   1.00
C462   C     0.58857   0.12990   0.13194   0.00000  Uiso   1.00
C463   C     0.60915   0.06786   0.11987   0.00000  Uiso   1.00
C464   C     0.55097   0.03628   0.11530   0.00000  Uiso   1.00
C465   C     0.47814   0.96469   0.10359   0.00000  Uiso   1.00
C466   C     0.64226   0.24145   0.09134   0.00000  Uiso   1.00
C467   C     0.70799   0.27320   0.04514   0.00000  Uiso   1.00
C468   C     0.69500   0.33554   0.00641   0.00000  Uiso   1.00
C469   C     0.70554   0.43715   0.93169   0.00000  Uiso   1.00
C470   C     0.60207   0.18523   0.20213   0.00000  Uiso   1.00
C471   C     0.63400   0.16972   0.24909   0.00000  Uiso   1.00
C472   C     0.58717   0.18474   0.30363   0.00000  Uiso   1.00
C473   C     0.53529   0.19905   0.40094   0.00000  Uiso   1.00
C474   C     0.50301   0.22739   0.15212   0.00000  Uiso   1.00
C475   C     0.51258   0.15938   0.13919   0.00000  Uiso   1.00
C476   C     0.45435   0.12789   0.13465   0.00000  Uiso   1.00
C477   C     0.47483   0.06581   0.12258   0.00000  Uiso   1.00
C478   C     0.56627   0.27092   0.09860   0.00000  Uiso   1.00
C479   C     0.55319   0.33323   0.05993   0.00000  Uiso   1.00
C480   C     0.61887   0.36506   0.01368   0.00000  Uiso   1.00
C481   C     0.52607   0.21470   0.20939   0.00000  Uiso   1.00
C482   C     0.47919   0.22975   0.26387   0.00000  Uiso   1.00
C483   C     0.51104   0.21426   0.31091   0.00000  Uiso   1.00
H484   H     0.70210   0.15019   0.13310   0.00000  Uiso   1.00
H485   H     0.66797   0.04507   0.11424   0.00000  Uiso   1.00
H486   H     0.76679   0.25038   0.03954   0.00000  Uiso   1.00
H487   H     0.69281   0.14691   0.24345   0.00000  Uiso   1.00
H488   H     0.59663   0.94153   0.09652   0.00000  Uiso   1.00
H489   H     0.80500   0.37445   0.93901   0.00000  Uiso   1.00
H490   H     0.64899   0.15628   0.36901   0.00000  Uiso   1.00
H491   H     0.44384   0.25034   0.15777   0.00000  Uiso   1.00
H492   H     0.39554   0.15071   0.14027   0.00000  Uiso   1.00
H493   H     0.49437   0.35602   0.06556   0.00000  Uiso   1.00
H494   H     0.42038   0.25256   0.26948   0.00000  Uiso   1.00
H495   H     0.37552   0.02727   0.11764   0.00000  Uiso   1.00
H496   H     0.58389   0.46020   0.96013   0.00000  Uiso   1.00
H497   H     0.42788   0.24202   0.39013   0.00000  Uiso   1.00
O498   O     0.45897   0.91707   0.09511   0.00000  Uiso   1.00
O499   O     0.73234   0.48505   0.88847   0.00000  Uiso   1.00
O500   O     0.52767   0.19880   0.45261   0.00000  Uiso   1.00
N501   N     0.55121   0.97538   0.10391   0.00000  Uiso   1.00
N502   N     0.74603   0.38013   0.95664   0.00000  Uiso   1.00
N503   N     0.60018   0.17617   0.35864   0.00000  Uiso   1.00
N504   N     0.43223   0.02151   0.11527   0.00000  Uiso   1.00
N505   N     0.62705   0.42627   0.96800   0.00000  Uiso   1.00
N506   N     0.48121   0.22231   0.37001   0.00000  Uiso   1.00
C507   C     0.25736   0.33508   0.80600   0.00000  Uiso   1.00
C508   C     0.28859   0.39775   0.75285   0.00000  Uiso   1.00
C509   C     0.31309   0.45451   0.75788   0.00000  Uiso   1.00
C510   C     0.33970   0.50651   0.70382   0.00000  Uiso   1.00
C511   C     0.38785   0.60454   0.62998   0.00000  Uiso   1.00
C512   C     0.17627   0.32570   0.80581   0.00000  Uiso   1.00
C513   C     0.10633   0.32187   0.85536   0.00000  Uiso   1.00
C514   C     0.03839   0.31321   0.84588   0.00000  Uiso   1.00
C515   C     0.91217   0.29933   0.85426   0.00000  Uiso   1.00
C516   C     0.30975   0.27592   0.78742   0.00000  Uiso   1.00
C517   C     0.35202   0.23022   0.82152   0.00000  Uiso   1.00
C518   C     0.39644   0.17964   0.79656   0.00000  Uiso   1.00
C519   C     0.47746   0.08847   0.77639   0.00000  Uiso   1.00
C520   C     0.26106   0.32650   0.70104   0.00000  Uiso   1.00
C521   C     0.29060   0.39309   0.69585   0.00000  Uiso   1.00
C522   C     0.31718   0.44501   0.64176   0.00000  Uiso   1.00
C523   C     0.34172   0.50184   0.64671   0.00000  Uiso   1.00
C524   C     0.17828   0.32104   0.74880   0.00000  Uiso   1.00
C525   C     0.11042   0.31237   0.73924   0.00000  Uiso   1.00
C526   C     0.04040   0.30854   0.78877   0.00000  Uiso   1.00
C527   C     0.31176   0.27126   0.73041   0.00000  Uiso   1.00
C528   C     0.35611   0.22073   0.70539   0.00000  Uiso   1.00
C529   C     0.39845   0.17497   0.73945   0.00000  Uiso   1.00
H530   H     0.25579   0.33871   0.85039   0.00000  Uiso   1.00
H531   H     0.31152   0.45810   0.80201   0.00000  Uiso   1.00
H532   H     0.10480   0.32547   0.89948   0.00000  Uiso   1.00
H533   H     0.35045   0.23385   0.86563   0.00000  Uiso   1.00
H534   H     0.37417   0.58841   0.72324   0.00000  Uiso   1.00
H535   H     0.93828   0.30875   0.92876   0.00000  Uiso   1.00
H536   H     0.45629   0.11553   0.85740   0.00000  Uiso   1.00
H537   H     0.26262   0.32287   0.65666   0.00000  Uiso   1.00
H538   H     0.31873   0.44139   0.59765   0.00000  Uiso   1.00
H539   H     0.11200   0.30877   0.69512   0.00000  Uiso   1.00
H540   H     0.35765   0.21714   0.66128   0.00000  Uiso   1.00
H541   H     0.38001   0.57486   0.55738   0.00000  Uiso   1.00
H542   H     0.94412   0.29518   0.76290   0.00000  Uiso   1.00
H543   H     0.46213   0.10197   0.69153   0.00000  Uiso   1.00
O544   O     0.41385   0.65990   0.60499   0.00000  Uiso   1.00
O545   O     0.84199   0.29297   0.87463   0.00000  Uiso   1.00
O546   O     0.52161   0.03948   0.78100   0.00000  Uiso   1.00
N547   N     0.36786   0.56895   0.69230   0.00000  Uiso   1.00
N548   N     0.96033   0.30749   0.88445   0.00000  Uiso   1.00
N549   N     0.44461   0.12684   0.81774   0.00000  Uiso   1.00
N550   N     0.37100   0.56166   0.60305   0.00000  Uiso   1.00
N551   N     0.96347   0.30019   0.79519   0.00000  Uiso   1.00
N552   N     0.44775   0.11954   0.72849   0.00000  Uiso   1.00
