data_job_06650
_audit_creation_date              2018-12-19
_audit_creation_method            'Materials Studio'
_symmetry_space_group_name_H-M    'P1'
_symmetry_Int_Tables_number       1
_symmetry_cell_setting            triclinic
loop_
_symmetry_equiv_pos_as_xyz
  x,y,z
_cell_length_a                    19.7717
_cell_length_b                    21.5295
_cell_length_c                    24.3225
_cell_angle_alpha                 85.1398
_cell_angle_beta                  108.8150
_cell_angle_gamma                 64.4149
loop_
_atom_site_label
_atom_site_type_symbol
_atom_site_fract_x
_atom_site_fract_y
_atom_site_fract_z
_atom_site_U_iso_or_equiv
_atom_site_adp_type
_atom_site_occupancy
C1     C     0.93177   0.27532   0.62222   0.00000  Uiso   1.00
C2     C     0.86850   0.34037   0.56930   0.00000  Uiso   1.00
C3     C     0.80617   0.40191   0.57167   0.00000  Uiso   1.00
C4     C     0.75461   0.45538   0.51834   0.00000  Uiso   1.00
C5     C     0.65475   0.55756   0.44435   0.00000  Uiso   1.00
C6     C     0.92489   0.21185   0.60326   0.00000  Uiso   1.00
C7     C     0.90998   0.16533   0.63418   0.00000  Uiso   1.00
C8     C     0.90590   0.11061   0.60943   0.00000  Uiso   1.00
C9     C     0.89364   0.01323   0.58818   0.00000  Uiso   1.00
C10    C     0.01512   0.26383   0.62629   0.00000  Uiso   1.00
C11    C     0.07610   0.26099   0.67659   0.00000  Uiso   1.00
C12    C     0.14799   0.25002   0.67123   0.00000  Uiso   1.00
C13    C     0.27584   0.23335   0.68574   0.00000  Uiso   1.00
C14    C     0.95104   0.26086   0.52329   0.00000  Uiso   1.00
C15    C     0.87897   0.33251   0.51557   0.00000  Uiso   1.00
C16    C     0.82748   0.38591   0.46222   0.00000  Uiso   1.00
C17    C     0.76509   0.44751   0.46451   0.00000  Uiso   1.00
C18    C     0.93535   0.20399   0.54952   0.00000  Uiso   1.00
C19    C     0.93129   0.14933   0.52472   0.00000  Uiso   1.00
C20    C     0.91638   0.10274   0.55560   0.00000  Uiso   1.00
C21    C     0.02559   0.25598   0.57256   0.00000  Uiso   1.00
C22    C     0.09741   0.24500   0.56713   0.00000  Uiso   1.00
C23    C     0.15848   0.24215   0.61740   0.00000  Uiso   1.00
H24    H     0.92363   0.28143   0.66405   0.00000  Uiso   1.00
H25    H     0.79809   0.40796   0.61327   0.00000  Uiso   1.00
H26    H     0.90190   0.17142   0.67576   0.00000  Uiso   1.00
H27    H     0.06798   0.26707   0.71816   0.00000  Uiso   1.00
H28    H     0.66351   0.54477   0.53326   0.00000  Uiso   1.00
H29    H     0.88241   0.04599   0.66505   0.00000  Uiso   1.00
H30    H     0.23264   0.24769   0.75446   0.00000  Uiso   1.00
H31    H     0.95918   0.25474   0.48145   0.00000  Uiso   1.00
H32    H     0.83560   0.37981   0.42064   0.00000  Uiso   1.00
H33    H     0.93940   0.14326   0.48314   0.00000  Uiso   1.00
H34    H     0.10548   0.23892   0.52554   0.00000  Uiso   1.00
H35    H     0.69394   0.52192   0.37692   0.00000  Uiso   1.00
H36    H     0.91285   0.02313   0.50871   0.00000  Uiso   1.00
H37    H     0.26307   0.22484   0.59811   0.00000  Uiso   1.00
O38    O     0.59677   0.61609   0.41838   0.00000  Uiso   1.00
O39    O     0.88398   0.96170   0.59129   0.00000  Uiso   1.00
O40    O     0.34346   0.22633   0.70859   0.00000  Uiso   1.00
N41    N     0.68764   0.52223   0.50481   0.00000  Uiso   1.00
N42    N     0.89229   0.05591   0.62803   0.00000  Uiso   1.00
N43    N     0.21973   0.24446   0.71162   0.00000  Uiso   1.00
N44    N     0.70402   0.50994   0.42069   0.00000  Uiso   1.00
N45    N     0.90867   0.04361   0.54390   0.00000  Uiso   1.00
N46    N     0.23611   0.23217   0.62749   0.00000  Uiso   1.00
C47    C     0.38306   0.52774   0.24260   0.00000  Uiso   1.00
C48    C     0.38758   0.53160   0.18108   0.00000  Uiso   1.00
C49    C     0.32956   0.53443   0.12872   0.00000  Uiso   1.00
C50    C     0.34495   0.53774   0.07705   0.00000  Uiso   1.00
C51    C     0.34120   0.54362   0.98141   0.00000  Uiso   1.00
C52    C     0.46117   0.46117   0.28561   0.00000  Uiso   1.00
C53    C     0.46501   0.40480   0.32114   0.00000  Uiso   1.00
C54    C     0.54235   0.34883   0.35747   0.00000  Uiso   1.00
C55    C     0.65284   0.24540   0.42416   0.00000  Uiso   1.00
C56    C     0.38990   0.59103   0.26204   0.00000  Uiso   1.00
C57    C     0.33384   0.64383   0.27776   0.00000  Uiso   1.00
C58    C     0.35119   0.69718   0.29426   0.00000  Uiso   1.00
C59    C     0.35103   0.79537   0.32434   0.00000  Uiso   1.00
C60    C     0.51359   0.52859   0.24395   0.00000  Uiso   1.00
C61    C     0.45848   0.53206   0.18181   0.00000  Uiso   1.00
C62    C     0.47397   0.53537   0.13021   0.00000  Uiso   1.00
C63    C     0.41597   0.53820   0.07778   0.00000  Uiso   1.00
C64    C     0.53206   0.46163   0.28634   0.00000  Uiso   1.00
C65    C     0.60942   0.40574   0.32263   0.00000  Uiso   1.00
C66    C     0.61338   0.34929   0.35821   0.00000  Uiso   1.00
C67    C     0.46080   0.59149   0.26277   0.00000  Uiso   1.00
C68    C     0.47825   0.64477   0.27925   0.00000  Uiso   1.00
C69    C     0.42222   0.69764   0.29499   0.00000  Uiso   1.00
H70    H     0.32787   0.52738   0.24203   0.00000  Uiso   1.00
H71    H     0.27470   0.53406   0.12817   0.00000  Uiso   1.00
H72    H     0.41013   0.40446   0.32057   0.00000  Uiso   1.00
H73    H     0.27898   0.64345   0.27719   0.00000  Uiso   1.00
H74    H     0.24703   0.54165   0.00226   0.00000  Uiso   1.00
H75    H     0.53260   0.26838   0.40796   0.00000  Uiso   1.00
H76    H     0.25604   0.77235   0.31649   0.00000  Uiso   1.00
H77    H     0.56879   0.52895   0.24452   0.00000  Uiso   1.00
H78    H     0.52883   0.53572   0.13079   0.00000  Uiso   1.00
H79    H     0.66427   0.40612   0.32319   0.00000  Uiso   1.00
H80    H     0.53311   0.64511   0.27981   0.00000  Uiso   1.00
H81    H     0.45330   0.54299   0.00438   0.00000  Uiso   1.00
H82    H     0.73886   0.26973   0.41009   0.00000  Uiso   1.00
H83    H     0.46230   0.77370   0.31861   0.00000  Uiso   1.00
O84    O     0.31955   0.54672   0.92847   0.00000  Uiso   1.00
O85    O     0.69420   0.18822   0.46074   0.00000  Uiso   1.00
O86    O     0.33136   0.84941   0.34072   0.00000  Uiso   1.00
N87    N     0.30105   0.54105   0.01836   0.00000  Uiso   1.00
N88    N     0.56804   0.28556   0.39767   0.00000  Uiso   1.00
N89    N     0.30949   0.75672   0.31216   0.00000  Uiso   1.00
N90    N     0.41204   0.54178   0.01951   0.00000  Uiso   1.00
N91    N     0.67903   0.28628   0.39881   0.00000  Uiso   1.00
N92    N     0.42048   0.75744   0.31330   0.00000  Uiso   1.00
C93    C     0.56637   0.33974   0.03549   0.00000  Uiso   1.00
C94    C     0.63620   0.26295   0.05890   0.00000  Uiso   1.00
C95    C     0.65986   0.21708   0.02378   0.00000  Uiso   1.00
C96    C     0.72521   0.14892   0.05376   0.00000  Uiso   1.00
C97    C     0.82749   0.03294   0.08055   0.00000  Uiso   1.00
C98    C     0.50959   0.34378   0.06678   0.00000  Uiso   1.00
C99    C     0.42679   0.36588   0.03829   0.00000  Uiso   1.00
C100   C     0.38555   0.36577   0.07491   0.00000  Uiso   1.00
C101   C     0.29126   0.37533   0.11393   0.00000  Uiso   1.00
C102   C     0.60402   0.38544   0.06009   0.00000  Uiso   1.00
C103   C     0.60061   0.44258   0.02596   0.00000  Uiso   1.00
C104   C     0.63886   0.47757   0.05694   0.00000  Uiso   1.00
C105   C     0.69119   0.55181   0.08557   0.00000  Uiso   1.00
C106   C     0.64035   0.30028   0.15120   0.00000  Uiso   1.00
C107   C     0.67638   0.24152   0.12175   0.00000  Uiso   1.00
C108   C     0.74171   0.17342   0.15179   0.00000  Uiso   1.00
C109   C     0.76546   0.12745   0.11672   0.00000  Uiso   1.00
C110   C     0.54976   0.32235   0.12963   0.00000  Uiso   1.00
C111   C     0.50864   0.32222   0.16630   0.00000  Uiso   1.00
C112   C     0.42580   0.34430   0.13787   0.00000  Uiso   1.00
C113   C     0.64420   0.36401   0.12293   0.00000  Uiso   1.00
C114   C     0.68246   0.39892   0.15397   0.00000  Uiso   1.00
C115   C     0.67911   0.45610   0.11990   0.00000  Uiso   1.00
H116   H     0.53508   0.35643   0.98656   0.00000  Uiso   1.00
H117   H     0.62874   0.23368   0.97514   0.00000  Uiso   1.00
H118   H     0.39571   0.38246   0.98965   0.00000  Uiso   1.00
H119   H     0.56951   0.45915   0.97733   0.00000  Uiso   1.00
H120   H     0.75029   0.08814   0.99019   0.00000  Uiso   1.00
H121   H     0.25892   0.40187   0.02079   0.00000  Uiso   1.00
H122   H     0.62540   0.56359   0.99480   0.00000  Uiso   1.00
H123   H     0.67163   0.28360   0.20013   0.00000  Uiso   1.00
H124   H     0.77279   0.15685   0.20043   0.00000  Uiso   1.00
H125   H     0.53975   0.30564   0.21493   0.00000  Uiso   1.00
H126   H     0.71355   0.38232   0.20261   0.00000  Uiso   1.00
H127   H     0.86719   0.02578   0.17304   0.00000  Uiso   1.00
H128   H     0.37582   0.33952   0.20363   0.00000  Uiso   1.00
H129   H     0.74231   0.50123   0.17765   0.00000  Uiso   1.00
O130   O     0.87280   0.97489   0.07796   0.00000  Uiso   1.00
O131   O     0.22814   0.38651   0.11809   0.00000  Uiso   1.00
O132   O     0.70896   0.59867   0.08400   0.00000  Uiso   1.00
N133   N     0.76393   0.09086   0.03319   0.00000  Uiso   1.00
N134   N     0.30453   0.38418   0.06179   0.00000  Uiso   1.00
N135   N     0.64714   0.53538   0.03749   0.00000  Uiso   1.00
N136   N     0.82684   0.05730   0.13158   0.00000  Uiso   1.00
N137   N     0.36744   0.35062   0.16018   0.00000  Uiso   1.00
N138   N     0.71005   0.50182   0.13588   0.00000  Uiso   1.00
C139   C     0.67401   0.90546   0.88241   0.00000  Uiso   1.00
C140   C     0.68307   0.83114   0.88484   0.00000  Uiso   1.00
C141   C     0.65657   0.79849   0.91828   0.00000  Uiso   1.00
C142   C     0.67058   0.73033   0.91444   0.00000  Uiso   1.00
C143   C     0.67866   0.62015   0.92367   0.00000  Uiso   1.00
C144   C     0.62816   0.94646   0.81612   0.00000  Uiso   1.00
C145   C     0.55550   0.01078   0.79177   0.00000  Uiso   1.00
C146   C     0.52330   0.03970   0.73008   0.00000  Uiso   1.00
C147   C     0.44617   0.10859   0.63263   0.00000  Uiso   1.00
C148   C     0.76013   0.89562   0.90084   0.00000  Uiso   1.00
C149   C     0.79843   0.91720   0.94771   0.00000  Uiso   1.00
C150   C     0.87733   0.90333   0.95733   0.00000  Uiso   1.00
C151   C     0.00510   0.89327   0.99141   0.00000  Uiso   1.00
C152   C     0.74602   0.84247   0.81613   0.00000  Uiso   1.00
C153   C     0.72218   0.79693   0.84884   0.00000  Uiso   1.00
C154   C     0.73624   0.72880   0.84495   0.00000  Uiso   1.00
C155   C     0.70977   0.69605   0.87838   0.00000  Uiso   1.00
C156   C     0.66727   0.91225   0.78012   0.00000  Uiso   1.00
C157   C     0.63517   0.94109   0.71845   0.00000  Uiso   1.00
C158   C     0.56248   0.00543   0.69402   0.00000  Uiso   1.00
C159   C     0.79925   0.86140   0.86484   0.00000  Uiso   1.00
C160   C     0.87810   0.84750   0.87439   0.00000  Uiso   1.00
C161   C     0.91651   0.86906   0.92127   0.00000  Uiso   1.00
H162   H     0.64356   0.93210   0.91043   0.00000  Uiso   1.00
H163   H     0.62630   0.82499   0.94613   0.00000  Uiso   1.00
H164   H     0.52526   0.03725   0.81964   0.00000  Uiso   1.00
H165   H     0.76814   0.94368   0.97556   0.00000  Uiso   1.00
H166   H     0.62439   0.69116   0.96981   0.00000  Uiso   1.00
H167   H     0.41135   0.13873   0.70312   0.00000  Uiso   1.00
H168   H     0.92352   0.94142   0.03189   0.00000  Uiso   1.00
H169   H     0.77647   0.81583   0.78811   0.00000  Uiso   1.00
H170   H     0.76651   0.70233   0.81709   0.00000  Uiso   1.00
H171   H     0.66546   0.91460   0.69061   0.00000  Uiso   1.00
H172   H     0.90835   0.82102   0.84652   0.00000  Uiso   1.00
H173   H     0.73818   0.59161   0.86508   0.00000  Uiso   1.00
H174   H     0.52514   0.03918   0.59839   0.00000  Uiso   1.00
H175   H     0.03732   0.84187   0.92716   0.00000  Uiso   1.00
O176   O     0.67231   0.56883   0.93871   0.00000  Uiso   1.00
O177   O     0.39281   0.15603   0.58882   0.00000  Uiso   1.00
O178   O     0.06478   0.89716   0.02016   0.00000  Uiso   1.00
N179   N     0.65255   0.68330   0.94120   0.00000  Uiso   1.00
N180   N     0.45336   0.10175   0.69185   0.00000  Uiso   1.00
N181   N     0.93220   0.91730   0.99922   0.00000  Uiso   1.00
N182   N     0.71378   0.62973   0.88484   0.00000  Uiso   1.00
N183   N     0.51459   0.04818   0.63550   0.00000  Uiso   1.00
N184   N     0.99343   0.86373   0.94286   0.00000  Uiso   1.00
C185   C     0.92702   0.50591   0.67462   0.00000  Uiso   1.00
C186   C     0.96177   0.50766   0.62726   0.00000  Uiso   1.00
C187   C     0.99334   0.45226   0.60184   0.00000  Uiso   1.00
C188   C     0.02213   0.46440   0.55926   0.00000  Uiso   1.00
C189   C     0.07646   0.45721   0.48822   0.00000  Uiso   1.00
C190   C     0.84025   0.56884   0.64819   0.00000  Uiso   1.00
C191   C     0.76966   0.56486   0.64037   0.00000  Uiso   1.00
C192   C     0.69616   0.62850   0.61542   0.00000  Uiso   1.00
C193   C     0.56184   0.71628   0.57691   0.00000  Uiso   1.00
C194   C     0.97561   0.52354   0.72758   0.00000  Uiso   1.00
C195   C     0.01881   0.48149   0.78650   0.00000  Uiso   1.00
C196   C     0.05926   0.50700   0.82839   0.00000  Uiso   1.00
C197   C     0.13511   0.52445   0.91314   0.00000  Uiso   1.00
C198   C     0.92202   0.62599   0.64423   0.00000  Uiso   1.00
C199   C     0.95905   0.57289   0.61076   0.00000  Uiso   1.00
C200   C     0.98780   0.58512   0.56821   0.00000  Uiso   1.00
C201   C     0.01942   0.52974   0.54273   0.00000  Uiso   1.00
C202   C     0.83753   0.63406   0.63169   0.00000  Uiso   1.00
C203   C     0.76412   0.69771   0.60675   0.00000  Uiso   1.00
C204   C     0.69344   0.69384   0.59888   0.00000  Uiso   1.00
C205   C     0.97289   0.58876   0.71107   0.00000  Uiso   1.00
C206   C     0.01328   0.61434   0.75288   0.00000  Uiso   1.00
C207   C     0.05654   0.57234   0.81186   0.00000  Uiso   1.00
H208   H     0.92914   0.45514   0.68747   0.00000  Uiso   1.00
H209   H     0.99543   0.40180   0.61462   0.00000  Uiso   1.00
H210   H     0.77179   0.51438   0.65315   0.00000  Uiso   1.00
H211   H     0.02090   0.43102   0.79926   0.00000  Uiso   1.00
H212   H     0.06770   0.37143   0.52655   0.00000  Uiso   1.00
H213   H     0.59614   0.60882   0.60782   0.00000  Uiso   1.00
H214   H     0.12145   0.43304   0.91592   0.00000  Uiso   1.00
H215   H     0.91990   0.67678   0.63138   0.00000  Uiso   1.00
H216   H     0.98569   0.63559   0.55545   0.00000  Uiso   1.00
H217   H     0.76204   0.74818   0.59398   0.00000  Uiso   1.00
H218   H     0.01116   0.66481   0.74009   0.00000  Uiso   1.00
H219   H     0.05979   0.56119   0.47852   0.00000  Uiso   1.00
H220   H     0.58823   0.79858   0.55979   0.00000  Uiso   1.00
H221   H     0.11354   0.62280   0.86790   0.00000  Uiso   1.00
O222   O     0.10717   0.43523   0.45358   0.00000  Uiso   1.00
O223   O     0.48850   0.74668   0.56022   0.00000  Uiso   1.00
O224   O     0.17770   0.51605   0.96444   0.00000  Uiso   1.00
N225   N     0.05682   0.42174   0.52568   0.00000  Uiso   1.00
N226   N     0.61594   0.64368   0.60165   0.00000  Uiso   1.00
N227   N     0.10705   0.47935   0.88970   0.00000  Uiso   1.00
N228   N     0.05257   0.52384   0.49983   0.00000  Uiso   1.00
N229   N     0.61169   0.74579   0.57581   0.00000  Uiso   1.00
N230   N     0.10279   0.58145   0.86386   0.00000  Uiso   1.00
C231   C     0.65306   0.16357   0.70012   0.00000  Uiso   1.00
C232   C     0.63018   0.15507   0.75338   0.00000  Uiso   1.00
C233   C     0.55132   0.18517   0.75136   0.00000  Uiso   1.00
C234   C     0.54323   0.17103   0.80497   0.00000  Uiso   1.00
C235   C     0.49729   0.16431   0.87949   0.00000  Uiso   1.00
C236   C     0.70350   0.08815   0.69633   0.00000  Uiso   1.00
C237   C     0.68629   0.06200   0.64633   0.00000  Uiso   1.00
C238   C     0.73993   0.99152   0.65191   0.00000  Uiso   1.00
C239   C     0.80785   0.88093   0.63784   0.00000  Uiso   1.00
C240   C     0.71176   0.19357   0.71836   0.00000  Uiso   1.00
C241   C     0.70152   0.25604   0.68689   0.00000  Uiso   1.00
C242   C     0.76213   0.27431   0.71102   0.00000  Uiso   1.00
C243   C     0.84289   0.32739   0.73117   0.00000  Uiso   1.00
C244   C     0.77892   0.08492   0.79891   0.00000  Uiso   1.00
C245   C     0.69854   0.11236   0.80704   0.00000  Uiso   1.00
C246   C     0.69057   0.09817   0.86066   0.00000  Uiso   1.00
C247   C     0.61171   0.12824   0.85872   0.00000  Uiso   1.00
C248   C     0.77186   0.04544   0.74998   0.00000  Uiso   1.00
C249   C     0.82554   0.97499   0.75563   0.00000  Uiso   1.00
C250   C     0.80841   0.94873   0.70566   0.00000  Uiso   1.00
C251   C     0.78013   0.15086   0.77202   0.00000  Uiso   1.00
C252   C     0.84077   0.16903   0.79620   0.00000  Uiso   1.00
C253   C     0.83062   0.23152   0.76477   0.00000  Uiso   1.00
H254   H     0.59984   0.19682   0.65835   0.00000  Uiso   1.00
H255   H     0.49843   0.21822   0.70982   0.00000  Uiso   1.00
H256   H     0.63338   0.09507   0.60481   0.00000  Uiso   1.00
H257   H     0.64861   0.28908   0.64537   0.00000  Uiso   1.00
H258   H     0.41614   0.22310   0.79056   0.00000  Uiso   1.00
H259   H     0.70072   0.96342   0.56913   0.00000  Uiso   1.00
H260   H     0.73283   0.37254   0.65465   0.00000  Uiso   1.00
H261   H     0.83215   0.05167   0.84069   0.00000  Uiso   1.00
H262   H     0.74348   0.06511   0.90218   0.00000  Uiso   1.00
H263   H     0.87844   0.94195   0.79716   0.00000  Uiso   1.00
H264   H     0.89366   0.13597   0.83772   0.00000  Uiso   1.00
H265   H     0.61504   0.09882   0.94668   0.00000  Uiso   1.00
H266   H     0.89961   0.83915   0.72524   0.00000  Uiso   1.00
H267   H     0.93172   0.24826   0.81077   0.00000  Uiso   1.00
O268   O     0.45307   0.17240   0.90577   0.00000  Uiso   1.00
O269   O     0.82643   0.83172   0.61526   0.00000  Uiso   1.00
O270   O     0.86855   0.36848   0.72747   0.00000  Uiso   1.00
N271   N     0.47512   0.19201   0.81887   0.00000  Uiso   1.00
N272   N     0.74117   0.94923   0.61184   0.00000  Uiso   1.00
N273   N     0.77120   0.33171   0.69179   0.00000  Uiso   1.00
N274   N     0.58214   0.12514   0.90287   0.00000  Uiso   1.00
N275   N     0.84820   0.88236   0.69585   0.00000  Uiso   1.00
N276   N     0.87823   0.26484   0.77580   0.00000  Uiso   1.00
C277   C     0.94909   0.63146   0.20952   0.00000  Uiso   1.00
C278   C     0.03597   0.56871   0.23564   0.00000  Uiso   1.00
C279   C     0.07569   0.52858   0.20299   0.00000  Uiso   1.00
C280   C     0.15508   0.47340   0.23522   0.00000  Uiso   1.00
C281   C     0.28417   0.37820   0.26624   0.00000  Uiso   1.00
C282   C     0.95600   0.69444   0.22960   0.00000  Uiso   1.00
C283   C     0.92847   0.76003   0.19188   0.00000  Uiso   1.00
C284   C     0.94053   0.81069   0.21903   0.00000  Uiso   1.00
C285   C     0.94542   0.91071   0.24068   0.00000  Uiso   1.00
C286   C     0.90354   0.61297   0.24231   0.00000  Uiso   1.00
C287   C     0.83188   0.61006   0.21528   0.00000  Uiso   1.00
C288   C     0.79977   0.59214   0.25313   0.00000  Uiso   1.00
C289   C     0.72320   0.56565   0.29452   0.00000  Uiso   1.00
C290   C     0.01946   0.60482   0.32479   0.00000  Uiso   1.00
C291   C     0.07419   0.55425   0.29825   0.00000  Uiso   1.00
C292   C     0.15354   0.49911   0.33053   0.00000  Uiso   1.00
C293   C     0.19337   0.45890   0.29794   0.00000  Uiso   1.00
C294   C     0.99422   0.67998   0.29221   0.00000  Uiso   1.00
C295   C     0.00632   0.73056   0.31942   0.00000  Uiso   1.00
C296   C     0.97882   0.79620   0.28175   0.00000  Uiso   1.00
C297   C     0.94176   0.59850   0.30492   0.00000  Uiso   1.00
C298   C     0.90974   0.58059   0.34282   0.00000  Uiso   1.00
C299   C     0.83806   0.57765   0.31585   0.00000  Uiso   1.00
H300   H     0.91934   0.64272   0.16077   0.00000  Uiso   1.00
H301   H     0.04609   0.53979   0.15454   0.00000  Uiso   1.00
H302   H     0.89889   0.77121   0.14343   0.00000  Uiso   1.00
H303   H     0.80232   0.62126   0.16683   0.00000  Uiso   1.00
H304   H     0.20349   0.41932   0.17524   0.00000  Uiso   1.00
H305   H     0.89307   0.90727   0.15182   0.00000  Uiso   1.00
H306   H     0.68945   0.59108   0.20116   0.00000  Uiso   1.00
H307   H     0.04922   0.59356   0.37354   0.00000  Uiso   1.00
H308   H     0.18310   0.48793   0.37898   0.00000  Uiso   1.00
H309   H     0.03590   0.71935   0.36787   0.00000  Uiso   1.00
H310   H     0.93933   0.56940   0.39127   0.00000  Uiso   1.00
H311   H     0.31469   0.37723   0.35740   0.00000  Uiso   1.00
H312   H     0.00427   0.86519   0.33398   0.00000  Uiso   1.00
H313   H     0.80065   0.54899   0.38332   0.00000  Uiso   1.00
O314   O     0.34483   0.32969   0.26606   0.00000  Uiso   1.00
O315   O     0.93756   0.96987   0.23533   0.00000  Uiso   1.00
O316   O     0.67042   0.55502   0.30006   0.00000  Uiso   1.00
N317   N     0.21128   0.42390   0.21737   0.00000  Uiso   1.00
N318   N     0.92107   0.88011   0.19547   0.00000  Uiso   1.00
N319   N     0.73069   0.58451   0.24159   0.00000  Uiso   1.00
N320   N     0.27112   0.40125   0.31539   0.00000  Uiso   1.00
N321   N     0.98091   0.85746   0.29349   0.00000  Uiso   1.00
N322   N     0.79053   0.56186   0.33961   0.00000  Uiso   1.00
C323   C     0.49075   0.39738   0.56861   0.00000  Uiso   1.00
C324   C     0.47643   0.39271   0.62643   0.00000  Uiso   1.00
C325   C     0.52844   0.38890   0.68247   0.00000  Uiso   1.00
C326   C     0.50437   0.38497   0.72975   0.00000  Uiso   1.00
C327   C     0.49329   0.37778   0.82082   0.00000  Uiso   1.00
C328   C     0.41601   0.46453   0.52318   0.00000  Uiso   1.00
C329   C     0.41722   0.52109   0.49241   0.00000  Uiso   1.00
C330   C     0.34229   0.57760   0.45277   0.00000  Uiso   1.00
C331   C     0.23740   0.68187   0.38352   0.00000  Uiso   1.00
C332   C     0.48714   0.33476   0.54547   0.00000  Uiso   1.00
C333   C     0.54814   0.28222   0.53342   0.00000  Uiso   1.00
C334   C     0.53308   0.22949   0.51254   0.00000  Uiso   1.00
C335   C     0.53864   0.13228   0.47789   0.00000  Uiso   1.00
C336   C     0.35552   0.39716   0.55294   0.00000  Uiso   1.00
C337   C     0.40298   0.39260   0.61792   0.00000  Uiso   1.00
C338   C     0.37883   0.38866   0.66513   0.00000  Uiso   1.00
C339   C     0.43079   0.38485   0.72122   0.00000  Uiso   1.00
C340   C     0.34256   0.46441   0.51467   0.00000  Uiso   1.00
C341   C     0.26761   0.52085   0.47507   0.00000  Uiso   1.00
C342   C     0.26870   0.57748   0.44424   0.00000  Uiso   1.00
C343   C     0.41369   0.33464   0.53696   0.00000  Uiso   1.00
C344   C     0.39853   0.28198   0.51609   0.00000  Uiso   1.00
C345   C     0.45950   0.22937   0.50401   0.00000  Uiso   1.00
H346   H     0.54793   0.39748   0.57523   0.00000  Uiso   1.00
H347   H     0.58527   0.38900   0.68903   0.00000  Uiso   1.00
H348   H     0.47407   0.52116   0.49900   0.00000  Uiso   1.00
H349   H     0.60497   0.28233   0.54002   0.00000  Uiso   1.00
H350   H     0.59427   0.37958   0.81144   0.00000  Uiso   1.00
H351   H     0.35979   0.65824   0.41073   0.00000  Uiso   1.00
H352   H     0.63582   0.15462   0.49722   0.00000  Uiso   1.00
H353   H     0.29834   0.39707   0.54631   0.00000  Uiso   1.00
H354   H     0.32198   0.38857   0.65853   0.00000  Uiso   1.00
H355   H     0.21078   0.52073   0.46849   0.00000  Uiso   1.00
H356   H     0.34168   0.28190   0.50951   0.00000  Uiso   1.00
H357   H     0.38057   0.37924   0.78668   0.00000  Uiso   1.00
H358   H     0.14610   0.65789   0.38597   0.00000  Uiso   1.00
H359   H     0.42213   0.15427   0.47245   0.00000  Uiso   1.00
O360   O     0.50747   0.37385   0.87340   0.00000  Uiso   1.00
O361   O     0.19985   0.73943   0.34767   0.00000  Uiso   1.00
O362   O     0.56199   0.07869   0.46114   0.00000  Uiso   1.00
N363   N     0.54074   0.38065   0.79022   0.00000  Uiso   1.00
N364   N     0.32152   0.64118   0.41558   0.00000  Uiso   1.00
N365   N     0.57957   0.17035   0.49642   0.00000  Uiso   1.00
N366   N     0.42575   0.38047   0.77689   0.00000  Uiso   1.00
N367   N     0.20653   0.64100   0.40226   0.00000  Uiso   1.00
N368   N     0.46458   0.17016   0.48310   0.00000  Uiso   1.00
C369   C     0.29987   0.58210   0.78729   0.00000  Uiso   1.00
C370   C     0.22599   0.65677   0.76495   0.00000  Uiso   1.00
C371   C     0.20916   0.70602   0.79866   0.00000  Uiso   1.00
C372   C     0.13848   0.77143   0.77000   0.00000  Uiso   1.00
C373   C     0.03168   0.88503   0.74445   0.00000  Uiso   1.00
C374   C     0.34253   0.57825   0.74445   0.00000  Uiso   1.00
C375   C     0.42370   0.56146   0.76093   0.00000  Uiso   1.00
C376   C     0.45112   0.56076   0.71501   0.00000  Uiso   1.00
C377   C     0.52527   0.55240   0.65765   0.00000  Uiso   1.00
C378   C     0.26558   0.53087   0.77652   0.00000  Uiso   1.00
C379   C     0.28206   0.47423   0.81997   0.00000  Uiso   1.00
C380   C     0.24471   0.43362   0.80105   0.00000  Uiso   1.00
C381   C     0.19938   0.35170   0.79348   0.00000  Uiso   1.00
C382   C     0.20426   0.61068   0.67645   0.00000  Uiso   1.00
C383   C     0.17406   0.67230   0.70474   0.00000  Uiso   1.00
C384   C     0.10338   0.73765   0.67602   0.00000  Uiso   1.00
C385   C     0.08645   0.78699   0.70969   0.00000  Uiso   1.00
C386   C     0.29060   0.59377   0.68424   0.00000  Uiso   1.00
C387   C     0.31791   0.59309   0.63829   0.00000  Uiso   1.00
C388   C     0.39909   0.57632   0.65470   0.00000  Uiso   1.00
C389   C     0.21365   0.54639   0.71632   0.00000  Uiso   1.00
C390   C     0.17627   0.50586   0.69733   0.00000  Uiso   1.00
C391   C     0.19269   0.44918   0.74074   0.00000  Uiso   1.00
H392   H     0.34031   0.57001   0.83417   0.00000  Uiso   1.00
H393   H     0.24937   0.69399   0.84525   0.00000  Uiso   1.00
H394   H     0.46387   0.54945   0.80753   0.00000  Uiso   1.00
H395   H     0.32225   0.46223   0.86655   0.00000  Uiso   1.00
H396   H     0.12567   0.83830   0.83098   0.00000  Uiso   1.00
H397   H     0.57796   0.53350   0.75144   0.00000  Uiso   1.00
H398   H     0.27933   0.34958   0.87591   0.00000  Uiso   1.00
H399   H     0.16383   0.62277   0.62957   0.00000  Uiso   1.00
H400   H     0.06321   0.74965   0.62943   0.00000  Uiso   1.00
H401   H     0.27771   0.60511   0.59171   0.00000  Uiso   1.00
H402   H     0.13609   0.51789   0.65073   0.00000  Uiso   1.00
H403   H     0.97457   0.88348   0.65581   0.00000  Uiso   1.00
H404   H     0.42686   0.57867   0.57627   0.00000  Uiso   1.00
H405   H     0.12823   0.39476   0.70074   0.00000  Uiso   1.00
O406   O     0.98712   0.94341   0.74699   0.00000  Uiso   1.00
O407   O     0.58051   0.54351   0.64264   0.00000  Uiso   1.00
O408   O     0.18872   0.30222   0.80594   0.00000  Uiso   1.00
N409   N     0.10391   0.83151   0.78978   0.00000  Uiso   1.00
N410   N     0.52677   0.54656   0.71541   0.00000  Uiso   1.00
N411   N     0.24759   0.37460   0.83178   0.00000  Uiso   1.00
N412   N     0.02260   0.85582   0.69552   0.00000  Uiso   1.00
N413   N     0.44546   0.57087   0.62116   0.00000  Uiso   1.00
N414   N     0.16629   0.39891   0.73752   0.00000  Uiso   1.00
C415   C     0.14622   0.19712   0.88986   0.00000  Uiso   1.00
C416   C     0.07172   0.25925   0.89214   0.00000  Uiso   1.00
C417   C     0.01553   0.32112   0.84621   0.00000  Uiso   1.00
C418   C     0.95162   0.37163   0.85710   0.00000  Uiso   1.00
C419   C     0.83709   0.46980   0.85230   0.00000  Uiso   1.00
C420   C     0.21990   0.18719   0.94343   0.00000  Uiso   1.00
C421   C     0.28831   0.18847   0.94062   0.00000  Uiso   1.00
C422   C     0.34913   0.17832   0.99470   0.00000  Uiso   1.00
C423   C     0.46468   0.16457   0.06954   0.00000  Uiso   1.00
C424   C     0.13771   0.13098   0.90324   0.00000  Uiso   1.00
C425   C     0.13704   0.08498   0.86665   0.00000  Uiso   1.00
C426   C     0.12869   0.02748   0.88690   0.00000  Uiso   1.00
C427   C     0.11663   0.92645   0.89934   0.00000  Uiso   1.00
C428   C     0.13261   0.17679   0.99089   0.00000  Uiso   1.00
C429   C     0.06434   0.24820   0.94701   0.00000  Uiso   1.00
C430   C     0.00048   0.29863   0.95798   0.00000  Uiso   1.00
C431   C     0.94421   0.36057   0.91207   0.00000  Uiso   1.00
C432   C     0.21251   0.17615   0.99830   0.00000  Uiso   1.00
C433   C     0.27325   0.16598   0.05240   0.00000  Uiso   1.00
C434   C     0.34173   0.16725   0.04967   0.00000  Uiso   1.00
C435   C     0.13032   0.11994   0.95812   0.00000  Uiso   1.00
C436   C     0.12198   0.06249   0.97843   0.00000  Uiso   1.00
C437   C     0.12129   0.01642   0.94187   0.00000  Uiso   1.00
H438   H     0.15198   0.20571   0.84714   0.00000  Uiso   1.00
H439   H     0.02128   0.32965   0.80375   0.00000  Uiso   1.00
H440   H     0.29401   0.19701   0.89815   0.00000  Uiso   1.00
H441   H     0.14276   0.09354   0.82419   0.00000  Uiso   1.00
H442   H     0.87313   0.46220   0.77985   0.00000  Uiso   1.00
H443   H     0.44821   0.18251   0.97890   0.00000  Uiso   1.00
H444   H     0.12928   0.96431   0.82295   0.00000  Uiso   1.00
H445   H     0.12686   0.16819   0.03361   0.00000  Uiso   1.00
H446   H     0.99478   0.29007   0.00045   0.00000  Uiso   1.00
H447   H     0.26752   0.15743   0.09485   0.00000  Uiso   1.00
H448   H     0.11627   0.05396   0.02089   0.00000  Uiso   1.00
H449   H     0.85163   0.43008   0.93950   0.00000  Uiso   1.00
H450   H     0.42672   0.15038   0.13856   0.00000  Uiso   1.00
H451   H     0.10778   0.93219   0.98260   0.00000  Uiso   1.00
O452   O     0.77597   0.52700   0.83450   0.00000  Uiso   1.00
O453   O     0.53045   0.16004   0.09566   0.00000  Uiso   1.00
O454   O     0.11201   0.87378   0.89104   0.00000  Uiso   1.00
N455   N     0.88619   0.43791   0.82197   0.00000  Uiso   1.00
N456   N     0.42385   0.17642   0.00807   0.00000  Uiso   1.00
N457   N     0.12570   0.97242   0.86227   0.00000  Uiso   1.00
N458   N     0.87462   0.42062   0.90787   0.00000  Uiso   1.00
N459   N     0.41228   0.15914   0.09398   0.00000  Uiso   1.00
N460   N     0.11412   0.95513   0.94818   0.00000  Uiso   1.00
C461   C     0.93933   0.33928   0.15254   0.00000  Uiso   1.00
C462   C     0.91940   0.30718   0.19944   0.00000  Uiso   1.00
C463   C     0.89303   0.33979   0.24092   0.00000  Uiso   1.00
C464   C     0.87807   0.30159   0.28003   0.00000  Uiso   1.00
C465   C     0.84549   0.26213   0.35322   0.00000  Uiso   1.00
C466   C     0.02702   0.28607   0.16343   0.00000  Uiso   1.00
C467   C     0.09113   0.30094   0.17463   0.00000  Uiso   1.00
C468   C     0.16676   0.24497   0.18342   0.00000  Uiso   1.00
C469   C     0.30125   0.17276   0.20067   0.00000  Uiso   1.00
C470   C     0.88549   0.33834   0.09180   0.00000  Uiso   1.00
C471   C     0.83063   0.39716   0.04276   0.00000  Uiso   1.00
C472   C     0.78712   0.38520   0.99123   0.00000  Uiso   1.00
C473   C     0.70187   0.39414   0.89726   0.00000  Uiso   1.00
C474   C     0.95964   0.21344   0.14822   0.00000  Uiso   1.00
C475   C     0.93044   0.23883   0.19709   0.00000  Uiso   1.00
C476   C     0.91551   0.20057   0.23614   0.00000  Uiso   1.00
C477   C     0.88912   0.23312   0.27768   0.00000  Uiso   1.00
C478   C     0.03806   0.21772   0.16109   0.00000  Uiso   1.00
C479   C     0.11361   0.16172   0.16986   0.00000  Uiso   1.00
C480   C     0.17782   0.17650   0.18107   0.00000  Uiso   1.00
C481   C     0.89653   0.26999   0.08945   0.00000  Uiso   1.00
C482   C     0.85310   0.25793   0.03799   0.00000  Uiso   1.00
C483   C     0.79818   0.31672   0.98888   0.00000  Uiso   1.00
H484   H     0.93074   0.39249   0.15437   0.00000  Uiso   1.00
H485   H     0.88450   0.39268   0.24273   0.00000  Uiso   1.00
H486   H     0.08257   0.35384   0.17644   0.00000  Uiso   1.00
H487   H     0.82210   0.45004   0.04459   0.00000  Uiso   1.00
H488   H     0.83814   0.36275   0.33967   0.00000  Uiso   1.00
H489   H     0.25577   0.28085   0.19988   0.00000  Uiso   1.00
H490   H     0.70652   0.48372   0.92185   0.00000  Uiso   1.00
H491   H     0.96824   0.16022   0.14640   0.00000  Uiso   1.00
H492   H     0.92406   0.14767   0.23432   0.00000  Uiso   1.00
H493   H     0.12213   0.10883   0.16803   0.00000  Uiso   1.00
H494   H     0.86166   0.20503   0.03619   0.00000  Uiso   1.00
H495   H     0.87024   0.16389   0.33285   0.00000  Uiso   1.00
H496   H     0.28787   0.08200   0.19306   0.00000  Uiso   1.00
H497   H     0.73863   0.28486   0.91503   0.00000  Uiso   1.00
O498   O     0.82448   0.25924   0.39425   0.00000  Uiso   1.00
O499   O     0.37238   0.15181   0.21084   0.00000  Uiso   1.00
O500   O     0.65179   0.41796   0.84608   0.00000  Uiso   1.00
N501   N     0.85174   0.31767   0.32599   0.00000  Uiso   1.00
N502   N     0.24220   0.24111   0.19530   0.00000  Uiso   1.00
N503   N     0.72872   0.43076   0.93536   0.00000  Uiso   1.00
N504   N     0.86902   0.21067   0.32232   0.00000  Uiso   1.00
N505   N     0.25948   0.13410   0.19163   0.00000  Uiso   1.00
N506   N     0.74600   0.32376   0.93169   0.00000  Uiso   1.00
C507   C     0.54031   0.79220   0.19858   0.00000  Uiso   1.00
C508   C     0.54344   0.84659   0.15645   0.00000  Uiso   1.00
C509   C     0.60460   0.83263   0.13541   0.00000  Uiso   1.00
C510   C     0.59628   0.88961   0.09726   0.00000  Uiso   1.00
C511   C     0.61137   0.96366   0.03437   0.00000  Uiso   1.00
C512   C     0.53394   0.82193   0.25252   0.00000  Uiso   1.00
C513   C     0.58710   0.78722   0.31224   0.00000  Uiso   1.00
C514   C     0.57077   0.82344   0.35495   0.00000  Uiso   1.00
C515   C     0.57107   0.85918   0.44120   0.00000  Uiso   1.00
C516   C     0.45889   0.79445   0.16600   0.00000  Uiso   1.00
C517   C     0.44895   0.73664   0.15299   0.00000  Uiso   1.00
C518   C     0.36942   0.74972   0.12286   0.00000  Uiso   1.00
C519   C     0.25320   0.74280   0.07478   0.00000  Uiso   1.00
C520   C     0.41676   0.91823   0.16824   0.00000  Uiso   1.00
C521   C     0.47634   0.91505   0.13998   0.00000  Uiso   1.00
C522   C     0.46791   0.97207   0.10184   0.00000  Uiso   1.00
C523   C     0.52905   0.95819   0.08074   0.00000  Uiso   1.00
C524   C     0.46684   0.89038   0.23604   0.00000  Uiso   1.00
C525   C     0.45041   0.92666   0.27867   0.00000  Uiso   1.00
C526   C     0.50354   0.89202   0.33844   0.00000  Uiso   1.00
C527   C     0.39178   0.86291   0.14951   0.00000  Uiso   1.00
C528   C     0.31225   0.87608   0.11941   0.00000  Uiso   1.00
C529   C     0.30219   0.81830   0.10636   0.00000  Uiso   1.00
H530   H     0.59256   0.73890   0.21142   0.00000  Uiso   1.00
H531   H     0.65653   0.77964   0.14818   0.00000  Uiso   1.00
H532   H     0.63903   0.73424   0.32498   0.00000  Uiso   1.00
H533   H     0.50089   0.68367   0.16575   0.00000  Uiso   1.00
H534   H     0.69788   0.85501   0.07082   0.00000  Uiso   1.00
H535   H     0.66095   0.75926   0.44361   0.00000  Uiso   1.00
H536   H     0.36967   0.65262   0.10784   0.00000  Uiso   1.00
H537   H     0.36452   0.97153   0.15541   0.00000  Uiso   1.00
H538   H     0.41597   0.02504   0.08910   0.00000  Uiso   1.00
H539   H     0.39847   0.97963   0.26590   0.00000  Uiso   1.00
H540   H     0.26034   0.92906   0.10667   0.00000  Uiso   1.00
H541   H     0.50263   0.05418   0.02287   0.00000  Uiso   1.00
H542   H     0.46571   0.95843   0.39566   0.00000  Uiso   1.00
H543   H     0.17443   0.85180   0.05989   0.00000  Uiso   1.00
O544   O     0.63823   0.98560   0.00424   0.00000  Uiso   1.00
O545   O     0.58979   0.85998   0.49333   0.00000  Uiso   1.00
O546   O     0.20763   0.72007   0.05281   0.00000  Uiso   1.00
N547   N     0.64486   0.89454   0.06862   0.00000  Uiso   1.00
N548   N     0.61034   0.80502   0.41716   0.00000  Uiso   1.00
N549   N     0.33801   0.70532   0.10326   0.00000  Uiso   1.00
N550   N     0.53980   0.00171   0.04282   0.00000  Uiso   1.00
N551   N     0.50529   0.91220   0.39136   0.00000  Uiso   1.00
N552   N     0.23296   0.81249   0.07746   0.00000  Uiso   1.00
