data_job_05842
_audit_creation_date              2018-12-19
_audit_creation_method            'Materials Studio'
_symmetry_space_group_name_H-M    'P1'
_symmetry_Int_Tables_number       1
_symmetry_cell_setting            triclinic
loop_
_symmetry_equiv_pos_as_xyz
  x,y,z
_cell_length_a                    36.7504
_cell_length_b                    23.0075
_cell_length_c                    13.0392
_cell_angle_alpha                 90.0000
_cell_angle_beta                  90.0000
_cell_angle_gamma                 90.0000
loop_
_atom_site_label
_atom_site_type_symbol
_atom_site_fract_x
_atom_site_fract_y
_atom_site_fract_z
_atom_site_U_iso_or_equiv
_atom_site_adp_type
_atom_site_occupancy
C1     C     0.66943   0.65643   0.66244   0.00000  Uiso   1.00
C2     C     0.63456   0.62542   0.63041   0.00000  Uiso   1.00
C3     C     0.60472   0.61499   0.69297   0.00000  Uiso   1.00
C4     C     0.57547   0.58594   0.64923   0.00000  Uiso   1.00
C5     C     0.52124   0.54050   0.61512   0.00000  Uiso   1.00
C6     C     0.70041   0.61428   0.63957   0.00000  Uiso   1.00
C7     C     0.72593   0.59449   0.70984   0.00000  Uiso   1.00
C8     C     0.75210   0.55607   0.67381   0.00000  Uiso   1.00
C9     C     0.80012   0.49336   0.65390   0.00000  Uiso   1.00
C10    C     0.67409   0.70694   0.58788   0.00000  Uiso   1.00
C11    C     0.67749   0.76507   0.61467   0.00000  Uiso   1.00
C12    C     0.68152   0.80466   0.53512   0.00000  Uiso   1.00
C13    C     0.68868   0.88583   0.43495   0.00000  Uiso   1.00
C14    C     0.67055   0.62339   0.47352   0.00000  Uiso   1.00
C15    C     0.63517   0.60747   0.52780   0.00000  Uiso   1.00
C16    C     0.60596   0.57844   0.48395   0.00000  Uiso   1.00
C17    C     0.57607   0.56797   0.54643   0.00000  Uiso   1.00
C18    C     0.70102   0.59633   0.53697   0.00000  Uiso   1.00
C19    C     0.72717   0.55793   0.50082   0.00000  Uiso   1.00
C20    C     0.75271   0.53809   0.57101   0.00000  Uiso   1.00
C21    C     0.67470   0.68900   0.48527   0.00000  Uiso   1.00
C22    C     0.67873   0.72851   0.40566   0.00000  Uiso   1.00
C23    C     0.68213   0.78668   0.43232   0.00000  Uiso   1.00
H24    H     0.66896   0.67040   0.74233   0.00000  Uiso   1.00
H25    H     0.60426   0.62888   0.77238   0.00000  Uiso   1.00
H26    H     0.72545   0.60839   0.78924   0.00000  Uiso   1.00
H27    H     0.67702   0.77894   0.69409   0.00000  Uiso   1.00
H28    H     0.53280   0.57492   0.76045   0.00000  Uiso   1.00
H29    H     0.78835   0.53172   0.79599   0.00000  Uiso   1.00
H30    H     0.68623   0.89136   0.59535   0.00000  Uiso   1.00
H31    H     0.67103   0.60942   0.39363   0.00000  Uiso   1.00
H32    H     0.60644   0.56455   0.40454   0.00000  Uiso   1.00
H33    H     0.72763   0.54406   0.42141   0.00000  Uiso   1.00
H34    H     0.67920   0.71461   0.32626   0.00000  Uiso   1.00
H35    H     0.53457   0.52270   0.46190   0.00000  Uiso   1.00
H36    H     0.79012   0.47951   0.49745   0.00000  Uiso   1.00
H37    H     0.68799   0.83915   0.29680   0.00000  Uiso   1.00
O38    O     0.49117   0.52038   0.62466   0.00000  Uiso   1.00
O39    O     0.82643   0.46372   0.67128   0.00000  Uiso   1.00
O40    O     0.69245   0.93556   0.40805   0.00000  Uiso   1.00
N41    N     0.54208   0.56880   0.68868   0.00000  Uiso   1.00
N42    N     0.78099   0.52840   0.72192   0.00000  Uiso   1.00
N43    N     0.68553   0.86464   0.53434   0.00000  Uiso   1.00
N44    N     0.54303   0.54070   0.52804   0.00000  Uiso   1.00
N45    N     0.78195   0.50031   0.56127   0.00000  Uiso   1.00
N46    N     0.68648   0.83654   0.37369   0.00000  Uiso   1.00
C47    C     0.83057   0.84357   0.16244   0.00000  Uiso   1.00
C48    C     0.86544   0.87458   0.13041   0.00000  Uiso   1.00
C49    C     0.89528   0.88501   0.19297   0.00000  Uiso   1.00
C50    C     0.92453   0.91406   0.14923   0.00000  Uiso   1.00
C51    C     0.97876   0.95950   0.11512   0.00000  Uiso   1.00
C52    C     0.79959   0.88572   0.13957   0.00000  Uiso   1.00
C53    C     0.77407   0.90551   0.20984   0.00000  Uiso   1.00
C54    C     0.74790   0.94393   0.17381   0.00000  Uiso   1.00
C55    C     0.69988   0.00664   0.15390   0.00000  Uiso   1.00
C56    C     0.82591   0.79306   0.08788   0.00000  Uiso   1.00
C57    C     0.82251   0.73493   0.11467   0.00000  Uiso   1.00
C58    C     0.81848   0.69534   0.03512   0.00000  Uiso   1.00
C59    C     0.81132   0.61417   0.93495   0.00000  Uiso   1.00
C60    C     0.82945   0.87661   0.97352   0.00000  Uiso   1.00
C61    C     0.86483   0.89253   0.02780   0.00000  Uiso   1.00
C62    C     0.89404   0.92156   0.98395   0.00000  Uiso   1.00
C63    C     0.92393   0.93203   0.04643   0.00000  Uiso   1.00
C64    C     0.79898   0.90367   0.03697   0.00000  Uiso   1.00
C65    C     0.77283   0.94207   0.00082   0.00000  Uiso   1.00
C66    C     0.74729   0.96191   0.07101   0.00000  Uiso   1.00
C67    C     0.82530   0.81100   0.98527   0.00000  Uiso   1.00
C68    C     0.82127   0.77149   0.90566   0.00000  Uiso   1.00
C69    C     0.81787   0.71332   0.93232   0.00000  Uiso   1.00
H70    H     0.83104   0.82960   0.24233   0.00000  Uiso   1.00
H71    H     0.89574   0.87112   0.27238   0.00000  Uiso   1.00
H72    H     0.77455   0.89161   0.28924   0.00000  Uiso   1.00
H73    H     0.82298   0.72106   0.19409   0.00000  Uiso   1.00
H74    H     0.96720   0.92508   0.26045   0.00000  Uiso   1.00
H75    H     0.71165   0.96828   0.29599   0.00000  Uiso   1.00
H76    H     0.81377   0.60864   0.09535   0.00000  Uiso   1.00
H77    H     0.82897   0.89058   0.89363   0.00000  Uiso   1.00
H78    H     0.89356   0.93545   0.90454   0.00000  Uiso   1.00
H79    H     0.77237   0.95594   0.92141   0.00000  Uiso   1.00
H80    H     0.82080   0.78539   0.82626   0.00000  Uiso   1.00
H81    H     0.96543   0.97730   0.96190   0.00000  Uiso   1.00
H82    H     0.70988   0.02049   0.99745   0.00000  Uiso   1.00
H83    H     0.81201   0.66085   0.79680   0.00000  Uiso   1.00
O84    O     0.00883   0.97962   0.12466   0.00000  Uiso   1.00
O85    O     0.67357   0.03628   0.17128   0.00000  Uiso   1.00
O86    O     0.80755   0.56444   0.90805   0.00000  Uiso   1.00
N87    N     0.95792   0.93120   0.18868   0.00000  Uiso   1.00
N88    N     0.71901   0.97160   0.22192   0.00000  Uiso   1.00
N89    N     0.81447   0.63536   0.03434   0.00000  Uiso   1.00
N90    N     0.95697   0.95930   0.02804   0.00000  Uiso   1.00
N91    N     0.71805   0.99969   0.06127   0.00000  Uiso   1.00
N92    N     0.81352   0.66346   0.87369   0.00000  Uiso   1.00
C93    C     0.33057   0.65643   0.83756   0.00000  Uiso   1.00
C94    C     0.36544   0.62542   0.86959   0.00000  Uiso   1.00
C95    C     0.39528   0.61499   0.80703   0.00000  Uiso   1.00
C96    C     0.42453   0.58594   0.85077   0.00000  Uiso   1.00
C97    C     0.47876   0.54050   0.88488   0.00000  Uiso   1.00
C98    C     0.29959   0.61428   0.86043   0.00000  Uiso   1.00
C99    C     0.27407   0.59449   0.79016   0.00000  Uiso   1.00
C100   C     0.24790   0.55607   0.82619   0.00000  Uiso   1.00
C101   C     0.19988   0.49336   0.84610   0.00000  Uiso   1.00
C102   C     0.32591   0.70694   0.91212   0.00000  Uiso   1.00
C103   C     0.32251   0.76507   0.88533   0.00000  Uiso   1.00
C104   C     0.31848   0.80466   0.96488   0.00000  Uiso   1.00
C105   C     0.31132   0.88583   0.06505   0.00000  Uiso   1.00
C106   C     0.32945   0.62339   0.02648   0.00000  Uiso   1.00
C107   C     0.36483   0.60747   0.97220   0.00000  Uiso   1.00
C108   C     0.39404   0.57844   0.01605   0.00000  Uiso   1.00
C109   C     0.42393   0.56797   0.95357   0.00000  Uiso   1.00
C110   C     0.29898   0.59633   0.96303   0.00000  Uiso   1.00
C111   C     0.27283   0.55793   0.99918   0.00000  Uiso   1.00
C112   C     0.24729   0.53809   0.92899   0.00000  Uiso   1.00
C113   C     0.32530   0.68900   0.01473   0.00000  Uiso   1.00
C114   C     0.32127   0.72851   0.09434   0.00000  Uiso   1.00
C115   C     0.31787   0.78668   0.06768   0.00000  Uiso   1.00
H116   H     0.33104   0.67040   0.75767   0.00000  Uiso   1.00
H117   H     0.39574   0.62888   0.72762   0.00000  Uiso   1.00
H118   H     0.27455   0.60839   0.71076   0.00000  Uiso   1.00
H119   H     0.32298   0.77894   0.80591   0.00000  Uiso   1.00
H120   H     0.46720   0.57492   0.73955   0.00000  Uiso   1.00
H121   H     0.21165   0.53172   0.70401   0.00000  Uiso   1.00
H122   H     0.31377   0.89136   0.90465   0.00000  Uiso   1.00
H123   H     0.32897   0.60942   0.10637   0.00000  Uiso   1.00
H124   H     0.39356   0.56455   0.09546   0.00000  Uiso   1.00
H125   H     0.27237   0.54406   0.07859   0.00000  Uiso   1.00
H126   H     0.32080   0.71461   0.17374   0.00000  Uiso   1.00
H127   H     0.46543   0.52270   0.03810   0.00000  Uiso   1.00
H128   H     0.20988   0.47951   0.00255   0.00000  Uiso   1.00
H129   H     0.31201   0.83915   0.20320   0.00000  Uiso   1.00
O130   O     0.50883   0.52038   0.87534   0.00000  Uiso   1.00
O131   O     0.17357   0.46372   0.82872   0.00000  Uiso   1.00
O132   O     0.30755   0.93556   0.09195   0.00000  Uiso   1.00
N133   N     0.45792   0.56880   0.81132   0.00000  Uiso   1.00
N134   N     0.21901   0.52840   0.77808   0.00000  Uiso   1.00
N135   N     0.31447   0.86464   0.96566   0.00000  Uiso   1.00
N136   N     0.45697   0.54070   0.97196   0.00000  Uiso   1.00
N137   N     0.21805   0.50031   0.93873   0.00000  Uiso   1.00
N138   N     0.31352   0.83654   0.12631   0.00000  Uiso   1.00
C139   C     0.16943   0.84357   0.33756   0.00000  Uiso   1.00
C140   C     0.13456   0.87458   0.36959   0.00000  Uiso   1.00
C141   C     0.10472   0.88501   0.30703   0.00000  Uiso   1.00
C142   C     0.07547   0.91406   0.35077   0.00000  Uiso   1.00
C143   C     0.02124   0.95950   0.38488   0.00000  Uiso   1.00
C144   C     0.20041   0.88572   0.36043   0.00000  Uiso   1.00
C145   C     0.22593   0.90551   0.29016   0.00000  Uiso   1.00
C146   C     0.25210   0.94393   0.32619   0.00000  Uiso   1.00
C147   C     0.30012   0.00664   0.34610   0.00000  Uiso   1.00
C148   C     0.17409   0.79306   0.41212   0.00000  Uiso   1.00
C149   C     0.17749   0.73493   0.38533   0.00000  Uiso   1.00
C150   C     0.18152   0.69534   0.46488   0.00000  Uiso   1.00
C151   C     0.18868   0.61417   0.56505   0.00000  Uiso   1.00
C152   C     0.17055   0.87661   0.52648   0.00000  Uiso   1.00
C153   C     0.13517   0.89253   0.47220   0.00000  Uiso   1.00
C154   C     0.10596   0.92156   0.51605   0.00000  Uiso   1.00
C155   C     0.07607   0.93203   0.45357   0.00000  Uiso   1.00
C156   C     0.20102   0.90367   0.46303   0.00000  Uiso   1.00
C157   C     0.22717   0.94207   0.49918   0.00000  Uiso   1.00
C158   C     0.25271   0.96191   0.42899   0.00000  Uiso   1.00
C159   C     0.17470   0.81100   0.51473   0.00000  Uiso   1.00
C160   C     0.17873   0.77149   0.59434   0.00000  Uiso   1.00
C161   C     0.18213   0.71332   0.56768   0.00000  Uiso   1.00
H162   H     0.16896   0.82960   0.25767   0.00000  Uiso   1.00
H163   H     0.10426   0.87112   0.22762   0.00000  Uiso   1.00
H164   H     0.22545   0.89161   0.21076   0.00000  Uiso   1.00
H165   H     0.17702   0.72106   0.30591   0.00000  Uiso   1.00
H166   H     0.03280   0.92508   0.23955   0.00000  Uiso   1.00
H167   H     0.28835   0.96828   0.20401   0.00000  Uiso   1.00
H168   H     0.18623   0.60864   0.40465   0.00000  Uiso   1.00
H169   H     0.17103   0.89058   0.60637   0.00000  Uiso   1.00
H170   H     0.10644   0.93545   0.59546   0.00000  Uiso   1.00
H171   H     0.22763   0.95594   0.57859   0.00000  Uiso   1.00
H172   H     0.17920   0.78539   0.67374   0.00000  Uiso   1.00
H173   H     0.03457   0.97730   0.53810   0.00000  Uiso   1.00
H174   H     0.29012   0.02049   0.50255   0.00000  Uiso   1.00
H175   H     0.18799   0.66085   0.70320   0.00000  Uiso   1.00
O176   O     0.99117   0.97962   0.37534   0.00000  Uiso   1.00
O177   O     0.32643   0.03628   0.32872   0.00000  Uiso   1.00
O178   O     0.19245   0.56444   0.59195   0.00000  Uiso   1.00
N179   N     0.04208   0.93120   0.31132   0.00000  Uiso   1.00
N180   N     0.28099   0.97160   0.27808   0.00000  Uiso   1.00
N181   N     0.18553   0.63536   0.46566   0.00000  Uiso   1.00
N182   N     0.04303   0.95930   0.47196   0.00000  Uiso   1.00
N183   N     0.28195   0.99969   0.43873   0.00000  Uiso   1.00
N184   N     0.18648   0.66346   0.62631   0.00000  Uiso   1.00
C185   C     0.33057   0.34357   0.33756   0.00000  Uiso   1.00
C186   C     0.36544   0.37458   0.36959   0.00000  Uiso   1.00
C187   C     0.39528   0.38501   0.30703   0.00000  Uiso   1.00
C188   C     0.42453   0.41406   0.35077   0.00000  Uiso   1.00
C189   C     0.47876   0.45950   0.38488   0.00000  Uiso   1.00
C190   C     0.29959   0.38572   0.36043   0.00000  Uiso   1.00
C191   C     0.27407   0.40551   0.29016   0.00000  Uiso   1.00
C192   C     0.24790   0.44393   0.32619   0.00000  Uiso   1.00
C193   C     0.19988   0.50664   0.34610   0.00000  Uiso   1.00
C194   C     0.32591   0.29306   0.41212   0.00000  Uiso   1.00
C195   C     0.32251   0.23493   0.38533   0.00000  Uiso   1.00
C196   C     0.31848   0.19534   0.46488   0.00000  Uiso   1.00
C197   C     0.31132   0.11417   0.56505   0.00000  Uiso   1.00
C198   C     0.32945   0.37661   0.52648   0.00000  Uiso   1.00
C199   C     0.36483   0.39253   0.47220   0.00000  Uiso   1.00
C200   C     0.39404   0.42156   0.51605   0.00000  Uiso   1.00
C201   C     0.42393   0.43203   0.45357   0.00000  Uiso   1.00
C202   C     0.29898   0.40367   0.46303   0.00000  Uiso   1.00
C203   C     0.27283   0.44207   0.49918   0.00000  Uiso   1.00
C204   C     0.24729   0.46191   0.42899   0.00000  Uiso   1.00
C205   C     0.32530   0.31100   0.51473   0.00000  Uiso   1.00
C206   C     0.32127   0.27149   0.59434   0.00000  Uiso   1.00
C207   C     0.31787   0.21332   0.56768   0.00000  Uiso   1.00
H208   H     0.33104   0.32960   0.25767   0.00000  Uiso   1.00
H209   H     0.39574   0.37112   0.22762   0.00000  Uiso   1.00
H210   H     0.27455   0.39161   0.21076   0.00000  Uiso   1.00
H211   H     0.32298   0.22106   0.30591   0.00000  Uiso   1.00
H212   H     0.46720   0.42508   0.23955   0.00000  Uiso   1.00
H213   H     0.21165   0.46828   0.20401   0.00000  Uiso   1.00
H214   H     0.31377   0.10864   0.40465   0.00000  Uiso   1.00
H215   H     0.32897   0.39058   0.60637   0.00000  Uiso   1.00
H216   H     0.39356   0.43545   0.59546   0.00000  Uiso   1.00
H217   H     0.27237   0.45594   0.57859   0.00000  Uiso   1.00
H218   H     0.32080   0.28539   0.67374   0.00000  Uiso   1.00
H219   H     0.46543   0.47730   0.53810   0.00000  Uiso   1.00
H220   H     0.20988   0.52049   0.50255   0.00000  Uiso   1.00
H221   H     0.31201   0.16085   0.70320   0.00000  Uiso   1.00
O222   O     0.50883   0.47962   0.37534   0.00000  Uiso   1.00
O223   O     0.17357   0.53628   0.32872   0.00000  Uiso   1.00
O224   O     0.30755   0.06444   0.59195   0.00000  Uiso   1.00
N225   N     0.45792   0.43120   0.31132   0.00000  Uiso   1.00
N226   N     0.21901   0.47160   0.27808   0.00000  Uiso   1.00
N227   N     0.31447   0.13536   0.46566   0.00000  Uiso   1.00
N228   N     0.45697   0.45930   0.47196   0.00000  Uiso   1.00
N229   N     0.21805   0.49969   0.43873   0.00000  Uiso   1.00
N230   N     0.31352   0.16346   0.62631   0.00000  Uiso   1.00
C231   C     0.16943   0.15643   0.83756   0.00000  Uiso   1.00
C232   C     0.13456   0.12542   0.86959   0.00000  Uiso   1.00
C233   C     0.10472   0.11499   0.80703   0.00000  Uiso   1.00
C234   C     0.07547   0.08594   0.85077   0.00000  Uiso   1.00
C235   C     0.02124   0.04050   0.88488   0.00000  Uiso   1.00
C236   C     0.20041   0.11428   0.86043   0.00000  Uiso   1.00
C237   C     0.22593   0.09449   0.79016   0.00000  Uiso   1.00
C238   C     0.25210   0.05607   0.82619   0.00000  Uiso   1.00
C239   C     0.30012   0.99336   0.84610   0.00000  Uiso   1.00
C240   C     0.17409   0.20694   0.91212   0.00000  Uiso   1.00
C241   C     0.17749   0.26507   0.88533   0.00000  Uiso   1.00
C242   C     0.18152   0.30466   0.96488   0.00000  Uiso   1.00
C243   C     0.18868   0.38583   0.06505   0.00000  Uiso   1.00
C244   C     0.17055   0.12339   0.02648   0.00000  Uiso   1.00
C245   C     0.13517   0.10747   0.97220   0.00000  Uiso   1.00
C246   C     0.10596   0.07844   0.01605   0.00000  Uiso   1.00
C247   C     0.07607   0.06797   0.95357   0.00000  Uiso   1.00
C248   C     0.20102   0.09633   0.96303   0.00000  Uiso   1.00
C249   C     0.22717   0.05793   0.99918   0.00000  Uiso   1.00
C250   C     0.25271   0.03809   0.92899   0.00000  Uiso   1.00
C251   C     0.17470   0.18900   0.01473   0.00000  Uiso   1.00
C252   C     0.17873   0.22851   0.09434   0.00000  Uiso   1.00
C253   C     0.18213   0.28668   0.06768   0.00000  Uiso   1.00
H254   H     0.16896   0.17040   0.75767   0.00000  Uiso   1.00
H255   H     0.10426   0.12888   0.72762   0.00000  Uiso   1.00
H256   H     0.22545   0.10839   0.71076   0.00000  Uiso   1.00
H257   H     0.17702   0.27894   0.80591   0.00000  Uiso   1.00
H258   H     0.03280   0.07492   0.73955   0.00000  Uiso   1.00
H259   H     0.28835   0.03172   0.70401   0.00000  Uiso   1.00
H260   H     0.18623   0.39136   0.90465   0.00000  Uiso   1.00
H261   H     0.17103   0.10942   0.10637   0.00000  Uiso   1.00
H262   H     0.10644   0.06455   0.09546   0.00000  Uiso   1.00
H263   H     0.22763   0.04406   0.07859   0.00000  Uiso   1.00
H264   H     0.17920   0.21461   0.17374   0.00000  Uiso   1.00
H265   H     0.03457   0.02270   0.03810   0.00000  Uiso   1.00
H266   H     0.29012   0.97951   0.00255   0.00000  Uiso   1.00
H267   H     0.18799   0.33915   0.20320   0.00000  Uiso   1.00
O268   O     0.99117   0.02038   0.87534   0.00000  Uiso   1.00
O269   O     0.32643   0.96372   0.82872   0.00000  Uiso   1.00
O270   O     0.19245   0.43556   0.09195   0.00000  Uiso   1.00
N271   N     0.04208   0.06880   0.81132   0.00000  Uiso   1.00
N272   N     0.28099   0.02840   0.77808   0.00000  Uiso   1.00
N273   N     0.18553   0.36464   0.96566   0.00000  Uiso   1.00
N274   N     0.04303   0.04070   0.97196   0.00000  Uiso   1.00
N275   N     0.28195   0.00031   0.93873   0.00000  Uiso   1.00
N276   N     0.18648   0.33654   0.12631   0.00000  Uiso   1.00
C277   C     0.66943   0.34357   0.16244   0.00000  Uiso   1.00
C278   C     0.63456   0.37458   0.13041   0.00000  Uiso   1.00
C279   C     0.60472   0.38501   0.19297   0.00000  Uiso   1.00
C280   C     0.57547   0.41406   0.14923   0.00000  Uiso   1.00
C281   C     0.52124   0.45950   0.11512   0.00000  Uiso   1.00
C282   C     0.70041   0.38572   0.13957   0.00000  Uiso   1.00
C283   C     0.72593   0.40551   0.20984   0.00000  Uiso   1.00
C284   C     0.75210   0.44393   0.17381   0.00000  Uiso   1.00
C285   C     0.80012   0.50664   0.15390   0.00000  Uiso   1.00
C286   C     0.67409   0.29306   0.08788   0.00000  Uiso   1.00
C287   C     0.67749   0.23493   0.11467   0.00000  Uiso   1.00
C288   C     0.68152   0.19534   0.03512   0.00000  Uiso   1.00
C289   C     0.68868   0.11417   0.93495   0.00000  Uiso   1.00
C290   C     0.67055   0.37661   0.97352   0.00000  Uiso   1.00
C291   C     0.63517   0.39253   0.02780   0.00000  Uiso   1.00
C292   C     0.60596   0.42156   0.98395   0.00000  Uiso   1.00
C293   C     0.57607   0.43203   0.04643   0.00000  Uiso   1.00
C294   C     0.70102   0.40367   0.03697   0.00000  Uiso   1.00
C295   C     0.72717   0.44207   0.00082   0.00000  Uiso   1.00
C296   C     0.75271   0.46191   0.07101   0.00000  Uiso   1.00
C297   C     0.67470   0.31100   0.98527   0.00000  Uiso   1.00
C298   C     0.67873   0.27149   0.90566   0.00000  Uiso   1.00
C299   C     0.68213   0.21332   0.93232   0.00000  Uiso   1.00
H300   H     0.66896   0.32960   0.24233   0.00000  Uiso   1.00
H301   H     0.60426   0.37112   0.27238   0.00000  Uiso   1.00
H302   H     0.72545   0.39161   0.28924   0.00000  Uiso   1.00
H303   H     0.67702   0.22106   0.19409   0.00000  Uiso   1.00
H304   H     0.53280   0.42508   0.26045   0.00000  Uiso   1.00
H305   H     0.78835   0.46828   0.29599   0.00000  Uiso   1.00
H306   H     0.68623   0.10864   0.09535   0.00000  Uiso   1.00
H307   H     0.67103   0.39058   0.89363   0.00000  Uiso   1.00
H308   H     0.60644   0.43545   0.90454   0.00000  Uiso   1.00
H309   H     0.72763   0.45594   0.92141   0.00000  Uiso   1.00
H310   H     0.67920   0.28539   0.82626   0.00000  Uiso   1.00
H311   H     0.53457   0.47730   0.96190   0.00000  Uiso   1.00
H312   H     0.79012   0.52049   0.99745   0.00000  Uiso   1.00
H313   H     0.68799   0.16085   0.79680   0.00000  Uiso   1.00
O314   O     0.49117   0.47962   0.12466   0.00000  Uiso   1.00
O315   O     0.82643   0.53628   0.17128   0.00000  Uiso   1.00
O316   O     0.69245   0.06444   0.90805   0.00000  Uiso   1.00
N317   N     0.54208   0.43120   0.18868   0.00000  Uiso   1.00
N318   N     0.78099   0.47160   0.22192   0.00000  Uiso   1.00
N319   N     0.68553   0.13536   0.03434   0.00000  Uiso   1.00
N320   N     0.54303   0.45930   0.02804   0.00000  Uiso   1.00
N321   N     0.78195   0.49969   0.06127   0.00000  Uiso   1.00
N322   N     0.68648   0.16346   0.87369   0.00000  Uiso   1.00
C323   C     0.83057   0.15643   0.66244   0.00000  Uiso   1.00
C324   C     0.86544   0.12542   0.63041   0.00000  Uiso   1.00
C325   C     0.89528   0.11499   0.69297   0.00000  Uiso   1.00
C326   C     0.92453   0.08594   0.64923   0.00000  Uiso   1.00
C327   C     0.97876   0.04050   0.61512   0.00000  Uiso   1.00
C328   C     0.79959   0.11428   0.63957   0.00000  Uiso   1.00
C329   C     0.77407   0.09449   0.70984   0.00000  Uiso   1.00
C330   C     0.74790   0.05607   0.67381   0.00000  Uiso   1.00
C331   C     0.69988   0.99336   0.65390   0.00000  Uiso   1.00
C332   C     0.82591   0.20694   0.58788   0.00000  Uiso   1.00
C333   C     0.82251   0.26507   0.61467   0.00000  Uiso   1.00
C334   C     0.81848   0.30466   0.53512   0.00000  Uiso   1.00
C335   C     0.81132   0.38583   0.43495   0.00000  Uiso   1.00
C336   C     0.82945   0.12339   0.47352   0.00000  Uiso   1.00
C337   C     0.86483   0.10747   0.52780   0.00000  Uiso   1.00
C338   C     0.89404   0.07844   0.48395   0.00000  Uiso   1.00
C339   C     0.92393   0.06797   0.54643   0.00000  Uiso   1.00
C340   C     0.79898   0.09633   0.53697   0.00000  Uiso   1.00
C341   C     0.77283   0.05793   0.50082   0.00000  Uiso   1.00
C342   C     0.74729   0.03809   0.57101   0.00000  Uiso   1.00
C343   C     0.82530   0.18900   0.48527   0.00000  Uiso   1.00
C344   C     0.82127   0.22851   0.40566   0.00000  Uiso   1.00
C345   C     0.81787   0.28668   0.43232   0.00000  Uiso   1.00
H346   H     0.83104   0.17040   0.74233   0.00000  Uiso   1.00
H347   H     0.89574   0.12888   0.77238   0.00000  Uiso   1.00
H348   H     0.77455   0.10839   0.78924   0.00000  Uiso   1.00
H349   H     0.82298   0.27894   0.69409   0.00000  Uiso   1.00
H350   H     0.96720   0.07492   0.76045   0.00000  Uiso   1.00
H351   H     0.71165   0.03172   0.79599   0.00000  Uiso   1.00
H352   H     0.81377   0.39136   0.59535   0.00000  Uiso   1.00
H353   H     0.82897   0.10942   0.39363   0.00000  Uiso   1.00
H354   H     0.89356   0.06455   0.40454   0.00000  Uiso   1.00
H355   H     0.77237   0.04406   0.42141   0.00000  Uiso   1.00
H356   H     0.82080   0.21461   0.32626   0.00000  Uiso   1.00
H357   H     0.96543   0.02270   0.46190   0.00000  Uiso   1.00
H358   H     0.70988   0.97951   0.49745   0.00000  Uiso   1.00
H359   H     0.81201   0.33915   0.29680   0.00000  Uiso   1.00
O360   O     0.00883   0.02038   0.62466   0.00000  Uiso   1.00
O361   O     0.67357   0.96372   0.67128   0.00000  Uiso   1.00
O362   O     0.80755   0.43556   0.40805   0.00000  Uiso   1.00
N363   N     0.95792   0.06880   0.68868   0.00000  Uiso   1.00
N364   N     0.71901   0.02840   0.72192   0.00000  Uiso   1.00
N365   N     0.81447   0.36464   0.53434   0.00000  Uiso   1.00
N366   N     0.95697   0.04070   0.52804   0.00000  Uiso   1.00
N367   N     0.71805   0.00031   0.56127   0.00000  Uiso   1.00
N368   N     0.81352   0.33654   0.37369   0.00000  Uiso   1.00
