data_job_04592
_audit_creation_date              2018-12-19
_audit_creation_method            'Materials Studio'
_symmetry_space_group_name_H-M    'P1'
_symmetry_Int_Tables_number       1
_symmetry_cell_setting            triclinic
loop_
_symmetry_equiv_pos_as_xyz
  x,y,z
_cell_length_a                    9.8462
_cell_length_b                    12.5363
_cell_length_c                    23.9594
_cell_angle_alpha                 90.0000
_cell_angle_beta                  124.6050
_cell_angle_gamma                 90.0000
loop_
_atom_site_label
_atom_site_type_symbol
_atom_site_fract_x
_atom_site_fract_y
_atom_site_fract_z
_atom_site_U_iso_or_equiv
_atom_site_adp_type
_atom_site_occupancy
C1     C     0.85087   0.78328   0.64354   0.00000  Uiso   1.00
C2     C     0.92178   0.80093   0.71832   0.00000  Uiso   1.00
C3     C     0.88009   0.88346   0.74453   0.00000  Uiso   1.00
C4     C     0.95880   0.88565   0.81435   0.00000  Uiso   1.00
C5     C     0.05129   0.92489   0.92407   0.00000  Uiso   1.00
C6     C     0.99833   0.78017   0.63846   0.00000  Uiso   1.00
C7     C     0.02098   0.84523   0.59750   0.00000  Uiso   1.00
C8     C     0.16412   0.82992   0.60009   0.00000  Uiso   1.00
C9     C     0.37539   0.83687   0.58578   0.00000  Uiso   1.00
C10    C     0.77913   0.67083   0.62691   0.00000  Uiso   1.00
C11    C     0.61748   0.64395   0.57623   0.00000  Uiso   1.00
C12    C     0.57608   0.53658   0.56909   0.00000  Uiso   1.00
C13    C     0.44701   0.37378   0.53684   0.00000  Uiso   1.00
C14    C     0.06481   0.64040   0.72095   0.00000  Uiso   1.00
C15    C     0.03799   0.72333   0.76036   0.00000  Uiso   1.00
C16    C     0.11678   0.72538   0.83017   0.00000  Uiso   1.00
C17    C     0.07521   0.80790   0.85647   0.00000  Uiso   1.00
C18    C     0.11453   0.70257   0.68050   0.00000  Uiso   1.00
C19    C     0.25767   0.68715   0.68315   0.00000  Uiso   1.00
C20    C     0.28053   0.75217   0.64221   0.00000  Uiso   1.00
C21    C     0.89533   0.59322   0.66895   0.00000  Uiso   1.00
C22    C     0.85418   0.48588   0.66188   0.00000  Uiso   1.00
C23    C     0.69249   0.45884   0.61121   0.00000  Uiso   1.00
H24    H     0.76041   0.84370   0.61081   0.00000  Uiso   1.00
H25    H     0.79017   0.94351   0.71197   0.00000  Uiso   1.00
H26    H     0.93102   0.90527   0.56497   0.00000  Uiso   1.00
H27    H     0.52759   0.70403   0.54370   0.00000  Uiso   1.00
H28    H     0.87444   0.01996   0.84267   0.00000  Uiso   1.00
H29    H     0.17142   0.93931   0.53269   0.00000  Uiso   1.00
H30    H     0.32070   0.51495   0.48785   0.00000  Uiso   1.00
H31    H     0.15528   0.57998   0.75369   0.00000  Uiso   1.00
H32    H     0.20670   0.66532   0.86270   0.00000  Uiso   1.00
H33    H     0.34756   0.62708   0.71569   0.00000  Uiso   1.00
H34    H     0.94413   0.42584   0.69443   0.00000  Uiso   1.00
H35    H     0.21253   0.79418   0.96501   0.00000  Uiso   1.00
H36    H     0.50950   0.71353   0.65502   0.00000  Uiso   1.00
H37    H     0.65879   0.28917   0.61018   0.00000  Uiso   1.00
O38    O     0.07023   0.96799   0.97297   0.00000  Uiso   1.00
O39    O     0.45982   0.86216   0.56627   0.00000  Uiso   1.00
O40    O     0.34371   0.30542   0.50745   0.00000  Uiso   1.00
N41    N     0.94693   0.95510   0.85650   0.00000  Uiso   1.00
N42    N     0.22460   0.87971   0.56669   0.00000  Uiso   1.00
N43    N     0.42926   0.48297   0.52476   0.00000  Uiso   1.00
N44    N     0.12885   0.83361   0.92233   0.00000  Uiso   1.00
N45    N     0.40651   0.75822   0.63252   0.00000  Uiso   1.00
N46    N     0.61118   0.36147   0.59059   0.00000  Uiso   1.00
C47    C     0.51712   0.71265   0.31507   0.00000  Uiso   1.00
C48    C     0.37888   0.73411   0.24111   0.00000  Uiso   1.00
C49    C     0.23560   0.67447   0.20199   0.00000  Uiso   1.00
C50    C     0.12430   0.70708   0.13540   0.00000  Uiso   1.00
C51    C     0.90496   0.72682   0.02457   0.00000  Uiso   1.00
C52    C     0.67436   0.70113   0.31733   0.00000  Uiso   1.00
C53    C     0.77952   0.61376   0.34229   0.00000  Uiso   1.00
C54    C     0.91697   0.61862   0.33986   0.00000  Uiso   1.00
C55    C     0.15642   0.58719   0.34741   0.00000  Uiso   1.00
C56    C     0.53729   0.81509   0.35341   0.00000  Uiso   1.00
C57    C     0.52725   0.82354   0.40872   0.00000  Uiso   1.00
C58    C     0.54933   0.92435   0.43669   0.00000  Uiso   1.00
C59    C     0.57597   0.06986   0.50026   0.00000  Uiso   1.00
C60    C     0.57424   0.87664   0.26639   0.00000  Uiso   1.00
C61    C     0.40991   0.82318   0.21468   0.00000  Uiso   1.00
C62    C     0.29879   0.85590   0.14813   0.00000  Uiso   1.00
C63    C     0.15537   0.79632   0.10891   0.00000  Uiso   1.00
C64    C     0.70538   0.79020   0.29089   0.00000  Uiso   1.00
C65    C     0.84271   0.79519   0.28843   0.00000  Uiso   1.00
C66    C     0.94805   0.70785   0.31338   0.00000  Uiso   1.00
C67    C     0.56831   0.90417   0.32697   0.00000  Uiso   1.00
C68    C     0.59042   0.00498   0.35486   0.00000  Uiso   1.00
C69    C     0.58041   0.01358   0.41020   0.00000  Uiso   1.00
H70    H     0.49299   0.64331   0.33566   0.00000  Uiso   1.00
H71    H     0.21165   0.60554   0.22247   0.00000  Uiso   1.00
H72    H     0.75549   0.54485   0.36275   0.00000  Uiso   1.00
H73    H     0.50324   0.75460   0.42917   0.00000  Uiso   1.00
H74    H     0.91344   0.60292   0.08530   0.00000  Uiso   1.00
H75    H     0.06020   0.47497   0.38113   0.00000  Uiso   1.00
H76    H     0.52829   0.91727   0.52119   0.00000  Uiso   1.00
H77    H     0.59839   0.94599   0.24581   0.00000  Uiso   1.00
H78    H     0.32283   0.92483   0.12768   0.00000  Uiso   1.00
H79    H     0.86668   0.86414   0.26797   0.00000  Uiso   1.00
H80    H     0.61443   0.07389   0.33439   0.00000  Uiso   1.00
H81    H     0.00368   0.86207   0.00837   0.00000  Uiso   1.00
H82    H     0.15045   0.73411   0.30420   0.00000  Uiso   1.00
H83    H     0.61853   0.17642   0.44426   0.00000  Uiso   1.00
O84    O     0.77541   0.71309   0.97075   0.00000  Uiso   1.00
O85    O     0.27992   0.54523   0.35887   0.00000  Uiso   1.00
O86    O     0.58207   0.12552   0.54262   0.00000  Uiso   1.00
N87    N     0.97248   0.66683   0.08341   0.00000  Uiso   1.00
N88    N     0.04462   0.54719   0.35998   0.00000  Uiso   1.00
N89    N     0.54737   0.96070   0.49094   0.00000  Uiso   1.00
N90    N     0.02104   0.80627   0.04202   0.00000  Uiso   1.00
N91    N     0.09317   0.68664   0.31859   0.00000  Uiso   1.00
N92    N     0.59593   0.10015   0.44954   0.00000  Uiso   1.00
C93    C     0.85087   0.21672   0.14354   0.00000  Uiso   1.00
C94    C     0.92178   0.19907   0.21832   0.00000  Uiso   1.00
C95    C     0.88009   0.11654   0.24453   0.00000  Uiso   1.00
C96    C     0.95880   0.11435   0.31435   0.00000  Uiso   1.00
C97    C     0.05129   0.07511   0.42407   0.00000  Uiso   1.00
C98    C     0.99833   0.21983   0.13846   0.00000  Uiso   1.00
C99    C     0.02098   0.15477   0.09750   0.00000  Uiso   1.00
C100   C     0.16412   0.17008   0.10009   0.00000  Uiso   1.00
C101   C     0.37539   0.16313   0.08578   0.00000  Uiso   1.00
C102   C     0.77913   0.32917   0.12691   0.00000  Uiso   1.00
C103   C     0.61748   0.35605   0.07623   0.00000  Uiso   1.00
C104   C     0.57608   0.46342   0.06909   0.00000  Uiso   1.00
C105   C     0.44701   0.62622   0.03684   0.00000  Uiso   1.00
C106   C     0.06481   0.35960   0.22095   0.00000  Uiso   1.00
C107   C     0.03799   0.27667   0.26036   0.00000  Uiso   1.00
C108   C     0.11678   0.27462   0.33017   0.00000  Uiso   1.00
C109   C     0.07521   0.19210   0.35647   0.00000  Uiso   1.00
C110   C     0.11453   0.29743   0.18050   0.00000  Uiso   1.00
C111   C     0.25767   0.31285   0.18315   0.00000  Uiso   1.00
C112   C     0.28053   0.24783   0.14221   0.00000  Uiso   1.00
C113   C     0.89533   0.40678   0.16895   0.00000  Uiso   1.00
C114   C     0.85418   0.51412   0.16188   0.00000  Uiso   1.00
C115   C     0.69249   0.54116   0.11121   0.00000  Uiso   1.00
H116   H     0.76041   0.15630   0.11081   0.00000  Uiso   1.00
H117   H     0.79017   0.05649   0.21197   0.00000  Uiso   1.00
H118   H     0.93102   0.09473   0.06497   0.00000  Uiso   1.00
H119   H     0.52759   0.29597   0.04370   0.00000  Uiso   1.00
H120   H     0.87444   0.98004   0.34267   0.00000  Uiso   1.00
H121   H     0.17142   0.06069   0.03269   0.00000  Uiso   1.00
H122   H     0.32070   0.48505   0.98785   0.00000  Uiso   1.00
H123   H     0.15528   0.42002   0.25369   0.00000  Uiso   1.00
H124   H     0.20670   0.33468   0.36270   0.00000  Uiso   1.00
H125   H     0.34756   0.37292   0.21569   0.00000  Uiso   1.00
H126   H     0.94413   0.57416   0.19443   0.00000  Uiso   1.00
H127   H     0.21253   0.20582   0.46501   0.00000  Uiso   1.00
H128   H     0.50950   0.28647   0.15502   0.00000  Uiso   1.00
H129   H     0.65879   0.71083   0.11018   0.00000  Uiso   1.00
O130   O     0.07023   0.03201   0.47297   0.00000  Uiso   1.00
O131   O     0.45982   0.13784   0.06627   0.00000  Uiso   1.00
O132   O     0.34371   0.69458   0.00745   0.00000  Uiso   1.00
N133   N     0.94693   0.04490   0.35650   0.00000  Uiso   1.00
N134   N     0.22460   0.12029   0.06669   0.00000  Uiso   1.00
N135   N     0.42926   0.51703   0.02476   0.00000  Uiso   1.00
N136   N     0.12885   0.16639   0.42233   0.00000  Uiso   1.00
N137   N     0.40651   0.24178   0.13252   0.00000  Uiso   1.00
N138   N     0.61118   0.63853   0.09059   0.00000  Uiso   1.00
C139   C     0.51712   0.28735   0.81507   0.00000  Uiso   1.00
C140   C     0.37888   0.26589   0.74111   0.00000  Uiso   1.00
C141   C     0.23560   0.32553   0.70199   0.00000  Uiso   1.00
C142   C     0.12430   0.29292   0.63540   0.00000  Uiso   1.00
C143   C     0.90496   0.27318   0.52457   0.00000  Uiso   1.00
C144   C     0.67436   0.29887   0.81733   0.00000  Uiso   1.00
C145   C     0.77952   0.38624   0.84229   0.00000  Uiso   1.00
C146   C     0.91697   0.38138   0.83986   0.00000  Uiso   1.00
C147   C     0.15642   0.41281   0.84741   0.00000  Uiso   1.00
C148   C     0.53729   0.18491   0.85341   0.00000  Uiso   1.00
C149   C     0.52725   0.17646   0.90872   0.00000  Uiso   1.00
C150   C     0.54933   0.07565   0.93669   0.00000  Uiso   1.00
C151   C     0.57597   0.93014   0.00026   0.00000  Uiso   1.00
C152   C     0.57424   0.12336   0.76639   0.00000  Uiso   1.00
C153   C     0.40991   0.17682   0.71468   0.00000  Uiso   1.00
C154   C     0.29879   0.14410   0.64813   0.00000  Uiso   1.00
C155   C     0.15537   0.20368   0.60891   0.00000  Uiso   1.00
C156   C     0.70538   0.20980   0.79089   0.00000  Uiso   1.00
C157   C     0.84271   0.20481   0.78843   0.00000  Uiso   1.00
C158   C     0.94805   0.29215   0.81338   0.00000  Uiso   1.00
C159   C     0.56831   0.09583   0.82697   0.00000  Uiso   1.00
C160   C     0.59042   0.99502   0.85486   0.00000  Uiso   1.00
C161   C     0.58041   0.98642   0.91020   0.00000  Uiso   1.00
H162   H     0.49299   0.35669   0.83566   0.00000  Uiso   1.00
H163   H     0.21165   0.39446   0.72247   0.00000  Uiso   1.00
H164   H     0.75549   0.45515   0.86275   0.00000  Uiso   1.00
H165   H     0.50324   0.24540   0.92917   0.00000  Uiso   1.00
H166   H     0.91344   0.39708   0.58530   0.00000  Uiso   1.00
H167   H     0.06020   0.52503   0.88113   0.00000  Uiso   1.00
H168   H     0.52829   0.08273   0.02119   0.00000  Uiso   1.00
H169   H     0.59839   0.05401   0.74581   0.00000  Uiso   1.00
H170   H     0.32283   0.07517   0.62768   0.00000  Uiso   1.00
H171   H     0.86668   0.13586   0.76797   0.00000  Uiso   1.00
H172   H     0.61443   0.92611   0.83439   0.00000  Uiso   1.00
H173   H     0.00368   0.13793   0.50837   0.00000  Uiso   1.00
H174   H     0.15045   0.26589   0.80420   0.00000  Uiso   1.00
H175   H     0.61853   0.82358   0.94426   0.00000  Uiso   1.00
O176   O     0.77541   0.28691   0.47075   0.00000  Uiso   1.00
O177   O     0.27992   0.45477   0.85887   0.00000  Uiso   1.00
O178   O     0.58207   0.87448   0.04262   0.00000  Uiso   1.00
N179   N     0.97248   0.33317   0.58341   0.00000  Uiso   1.00
N180   N     0.04462   0.45281   0.85998   0.00000  Uiso   1.00
N181   N     0.54737   0.03930   0.99094   0.00000  Uiso   1.00
N182   N     0.02104   0.19373   0.54202   0.00000  Uiso   1.00
N183   N     0.09317   0.31336   0.81859   0.00000  Uiso   1.00
N184   N     0.59593   0.89985   0.94954   0.00000  Uiso   1.00
