data_job_05763
_audit_creation_date              2018-12-19
_audit_creation_method            'Materials Studio'
_symmetry_space_group_name_H-M    'P1'
_symmetry_Int_Tables_number       1
_symmetry_cell_setting            triclinic
loop_
_symmetry_equiv_pos_as_xyz
  x,y,z
_cell_length_a                    19.9292
_cell_length_b                    15.9423
_cell_length_c                    15.0214
_cell_angle_alpha                 90.0000
_cell_angle_beta                  90.0000
_cell_angle_gamma                 90.0000
loop_
_atom_site_label
_atom_site_type_symbol
_atom_site_fract_x
_atom_site_fract_y
_atom_site_fract_z
_atom_site_U_iso_or_equiv
_atom_site_adp_type
_atom_site_occupancy
C1     C     0.25430   0.00544   0.03079   0.00000  Uiso   1.00
C2     C     0.20987   0.00614   0.94815   0.00000  Uiso   1.00
C3     C     0.14057   0.01470   0.94753   0.00000  Uiso   1.00
C4     C     0.10915   0.01378   0.86504   0.00000  Uiso   1.00
C5     C     0.03458   0.01622   0.74873   0.00000  Uiso   1.00
C6     C     0.29358   0.92342   0.02727   0.00000  Uiso   1.00
C7     C     0.29468   0.86243   0.09319   0.00000  Uiso   1.00
C8     C     0.33374   0.79189   0.07731   0.00000  Uiso   1.00
C9     C     0.38919   0.66593   0.08387   0.00000  Uiso   1.00
C10    C     0.30565   0.07520   0.01732   0.00000  Uiso   1.00
C11    C     0.31692   0.14182   0.07488   0.00000  Uiso   1.00
C12    C     0.36615   0.19905   0.05063   0.00000  Uiso   1.00
C13    C     0.44033   0.30875   0.04174   0.00000  Uiso   1.00
C14    C     0.32172   0.98859   0.88539   0.00000  Uiso   1.00
C15    C     0.24649   0.99699   0.86917   0.00000  Uiso   1.00
C16    C     0.21516   0.99606   0.78667   0.00000  Uiso   1.00
C17    C     0.14583   0.00462   0.78593   0.00000  Uiso   1.00
C18    C     0.33020   0.91427   0.94830   0.00000  Uiso   1.00
C19    C     0.36928   0.84380   0.93232   0.00000  Uiso   1.00
C20    C     0.37043   0.78272   0.99819   0.00000  Uiso   1.00
C21    C     0.34227   0.06605   0.93834   0.00000  Uiso   1.00
C22    C     0.39151   0.12318   0.91401   0.00000  Uiso   1.00
C23    C     0.40284   0.18988   0.97152   0.00000  Uiso   1.00
H24    H     0.22579   0.01256   0.09228   0.00000  Uiso   1.00
H25    H     0.11225   0.02177   0.00866   0.00000  Uiso   1.00
H26    H     0.26634   0.86954   0.15430   0.00000  Uiso   1.00
H27    H     0.28857   0.14888   0.13598   0.00000  Uiso   1.00
H28    H     0.00251   0.02792   0.88113   0.00000  Uiso   1.00
H29    H     0.32744   0.70694   0.18823   0.00000  Uiso   1.00
H30    H     0.37431   0.29599   0.14962   0.00000  Uiso   1.00
H31    H     0.35024   0.98146   0.82391   0.00000  Uiso   1.00
H32    H     0.24352   0.98898   0.72556   0.00000  Uiso   1.00
H33    H     0.39761   0.83674   0.87120   0.00000  Uiso   1.00
H34    H     0.41984   0.11608   0.85289   0.00000  Uiso   1.00
H35    H     0.10905   0.00130   0.65136   0.00000  Uiso   1.00
H36    H     0.43399   0.68032   0.95846   0.00000  Uiso   1.00
H37    H     0.48086   0.26937   0.91984   0.00000  Uiso   1.00
O38    O     0.98333   0.02009   0.70640   0.00000  Uiso   1.00
O39    O     0.40964   0.59898   0.10931   0.00000  Uiso   1.00
O40    O     0.47113   0.37180   0.05864   0.00000  Uiso   1.00
N41    N     0.04223   0.02064   0.84055   0.00000  Uiso   1.00
N42    N     0.34602   0.72054   0.12766   0.00000  Uiso   1.00
N43    N     0.38985   0.27124   0.09158   0.00000  Uiso   1.00
N44    N     0.09956   0.00632   0.71691   0.00000  Uiso   1.00
N45    N     0.40335   0.70621   0.00402   0.00000  Uiso   1.00
N46    N     0.44718   0.25691   0.96794   0.00000  Uiso   1.00
C47    C     0.24570   0.49456   0.03079   0.00000  Uiso   1.00
C48    C     0.29013   0.49386   0.94815   0.00000  Uiso   1.00
C49    C     0.35943   0.48530   0.94753   0.00000  Uiso   1.00
C50    C     0.39085   0.48622   0.86504   0.00000  Uiso   1.00
C51    C     0.46542   0.48378   0.74873   0.00000  Uiso   1.00
C52    C     0.20642   0.57658   0.02727   0.00000  Uiso   1.00
C53    C     0.20532   0.63757   0.09319   0.00000  Uiso   1.00
C54    C     0.16626   0.70811   0.07731   0.00000  Uiso   1.00
C55    C     0.11081   0.83407   0.08387   0.00000  Uiso   1.00
C56    C     0.19435   0.42480   0.01732   0.00000  Uiso   1.00
C57    C     0.18308   0.35818   0.07488   0.00000  Uiso   1.00
C58    C     0.13385   0.30095   0.05063   0.00000  Uiso   1.00
C59    C     0.05967   0.19125   0.04174   0.00000  Uiso   1.00
C60    C     0.17828   0.51141   0.88539   0.00000  Uiso   1.00
C61    C     0.25351   0.50301   0.86917   0.00000  Uiso   1.00
C62    C     0.28484   0.50394   0.78667   0.00000  Uiso   1.00
C63    C     0.35417   0.49538   0.78593   0.00000  Uiso   1.00
C64    C     0.16980   0.58573   0.94830   0.00000  Uiso   1.00
C65    C     0.13072   0.65620   0.93232   0.00000  Uiso   1.00
C66    C     0.12957   0.71728   0.99819   0.00000  Uiso   1.00
C67    C     0.15773   0.43395   0.93834   0.00000  Uiso   1.00
C68    C     0.10849   0.37682   0.91401   0.00000  Uiso   1.00
C69    C     0.09716   0.31012   0.97152   0.00000  Uiso   1.00
H70    H     0.27421   0.48744   0.09228   0.00000  Uiso   1.00
H71    H     0.38775   0.47823   0.00866   0.00000  Uiso   1.00
H72    H     0.23366   0.63046   0.15430   0.00000  Uiso   1.00
H73    H     0.21143   0.35112   0.13598   0.00000  Uiso   1.00
H74    H     0.49749   0.47208   0.88113   0.00000  Uiso   1.00
H75    H     0.17256   0.79306   0.18823   0.00000  Uiso   1.00
H76    H     0.12569   0.20401   0.14962   0.00000  Uiso   1.00
H77    H     0.14976   0.51854   0.82391   0.00000  Uiso   1.00
H78    H     0.25648   0.51102   0.72556   0.00000  Uiso   1.00
H79    H     0.10239   0.66326   0.87120   0.00000  Uiso   1.00
H80    H     0.08016   0.38392   0.85289   0.00000  Uiso   1.00
H81    H     0.39095   0.49870   0.65136   0.00000  Uiso   1.00
H82    H     0.06601   0.81968   0.95846   0.00000  Uiso   1.00
H83    H     0.01914   0.23063   0.91984   0.00000  Uiso   1.00
O84    O     0.51667   0.47991   0.70640   0.00000  Uiso   1.00
O85    O     0.09036   0.90102   0.10931   0.00000  Uiso   1.00
O86    O     0.02887   0.12820   0.05864   0.00000  Uiso   1.00
N87    N     0.45777   0.47936   0.84055   0.00000  Uiso   1.00
N88    N     0.15398   0.77946   0.12766   0.00000  Uiso   1.00
N89    N     0.11015   0.22876   0.09158   0.00000  Uiso   1.00
N90    N     0.40044   0.49368   0.71691   0.00000  Uiso   1.00
N91    N     0.09665   0.79379   0.00402   0.00000  Uiso   1.00
N92    N     0.05282   0.24309   0.96794   0.00000  Uiso   1.00
C93    C     0.74570   0.50544   0.46921   0.00000  Uiso   1.00
C94    C     0.79013   0.50614   0.55185   0.00000  Uiso   1.00
C95    C     0.85943   0.51470   0.55247   0.00000  Uiso   1.00
C96    C     0.89085   0.51378   0.63496   0.00000  Uiso   1.00
C97    C     0.96542   0.51622   0.75127   0.00000  Uiso   1.00
C98    C     0.70642   0.42342   0.47273   0.00000  Uiso   1.00
C99    C     0.70532   0.36243   0.40681   0.00000  Uiso   1.00
C100   C     0.66626   0.29189   0.42269   0.00000  Uiso   1.00
C101   C     0.61081   0.16593   0.41613   0.00000  Uiso   1.00
C102   C     0.69435   0.57520   0.48268   0.00000  Uiso   1.00
C103   C     0.68308   0.64182   0.42512   0.00000  Uiso   1.00
C104   C     0.63385   0.69905   0.44937   0.00000  Uiso   1.00
C105   C     0.55967   0.80875   0.45826   0.00000  Uiso   1.00
C106   C     0.67828   0.48859   0.61461   0.00000  Uiso   1.00
C107   C     0.75351   0.49699   0.63083   0.00000  Uiso   1.00
C108   C     0.78484   0.49606   0.71333   0.00000  Uiso   1.00
C109   C     0.85417   0.50462   0.71407   0.00000  Uiso   1.00
C110   C     0.66980   0.41427   0.55170   0.00000  Uiso   1.00
C111   C     0.63072   0.34380   0.56768   0.00000  Uiso   1.00
C112   C     0.62957   0.28272   0.50181   0.00000  Uiso   1.00
C113   C     0.65773   0.56605   0.56166   0.00000  Uiso   1.00
C114   C     0.60849   0.62318   0.58599   0.00000  Uiso   1.00
C115   C     0.59716   0.68988   0.52848   0.00000  Uiso   1.00
H116   H     0.77421   0.51256   0.40772   0.00000  Uiso   1.00
H117   H     0.88775   0.52177   0.49134   0.00000  Uiso   1.00
H118   H     0.73366   0.36954   0.34570   0.00000  Uiso   1.00
H119   H     0.71143   0.64888   0.36402   0.00000  Uiso   1.00
H120   H     0.99749   0.52792   0.61887   0.00000  Uiso   1.00
H121   H     0.67256   0.20694   0.31177   0.00000  Uiso   1.00
H122   H     0.62569   0.79599   0.35038   0.00000  Uiso   1.00
H123   H     0.64976   0.48146   0.67609   0.00000  Uiso   1.00
H124   H     0.75648   0.48898   0.77444   0.00000  Uiso   1.00
H125   H     0.60239   0.33674   0.62880   0.00000  Uiso   1.00
H126   H     0.58016   0.61608   0.64711   0.00000  Uiso   1.00
H127   H     0.89095   0.50130   0.84864   0.00000  Uiso   1.00
H128   H     0.56601   0.18032   0.54154   0.00000  Uiso   1.00
H129   H     0.51914   0.76937   0.58016   0.00000  Uiso   1.00
O130   O     0.01667   0.52009   0.79360   0.00000  Uiso   1.00
O131   O     0.59036   0.09898   0.39069   0.00000  Uiso   1.00
O132   O     0.52887   0.87180   0.44136   0.00000  Uiso   1.00
N133   N     0.95777   0.52064   0.65945   0.00000  Uiso   1.00
N134   N     0.65398   0.22054   0.37234   0.00000  Uiso   1.00
N135   N     0.61015   0.77124   0.40842   0.00000  Uiso   1.00
N136   N     0.90044   0.50632   0.78309   0.00000  Uiso   1.00
N137   N     0.59665   0.20621   0.49598   0.00000  Uiso   1.00
N138   N     0.55282   0.75691   0.53206   0.00000  Uiso   1.00
C139   C     0.75430   0.99456   0.46921   0.00000  Uiso   1.00
C140   C     0.70987   0.99386   0.55185   0.00000  Uiso   1.00
C141   C     0.64057   0.98530   0.55247   0.00000  Uiso   1.00
C142   C     0.60915   0.98622   0.63496   0.00000  Uiso   1.00
C143   C     0.53458   0.98378   0.75127   0.00000  Uiso   1.00
C144   C     0.79358   0.07658   0.47273   0.00000  Uiso   1.00
C145   C     0.79468   0.13757   0.40681   0.00000  Uiso   1.00
C146   C     0.83374   0.20811   0.42269   0.00000  Uiso   1.00
C147   C     0.88919   0.33407   0.41613   0.00000  Uiso   1.00
C148   C     0.80565   0.92480   0.48268   0.00000  Uiso   1.00
C149   C     0.81692   0.85818   0.42512   0.00000  Uiso   1.00
C150   C     0.86615   0.80095   0.44937   0.00000  Uiso   1.00
C151   C     0.94033   0.69125   0.45826   0.00000  Uiso   1.00
C152   C     0.82172   0.01141   0.61461   0.00000  Uiso   1.00
C153   C     0.74649   0.00301   0.63083   0.00000  Uiso   1.00
C154   C     0.71516   0.00394   0.71333   0.00000  Uiso   1.00
C155   C     0.64583   0.99538   0.71407   0.00000  Uiso   1.00
C156   C     0.83020   0.08573   0.55170   0.00000  Uiso   1.00
C157   C     0.86928   0.15620   0.56768   0.00000  Uiso   1.00
C158   C     0.87043   0.21728   0.50181   0.00000  Uiso   1.00
C159   C     0.84227   0.93395   0.56166   0.00000  Uiso   1.00
C160   C     0.89151   0.87682   0.58599   0.00000  Uiso   1.00
C161   C     0.90284   0.81012   0.52848   0.00000  Uiso   1.00
H162   H     0.72579   0.98744   0.40772   0.00000  Uiso   1.00
H163   H     0.61225   0.97823   0.49134   0.00000  Uiso   1.00
H164   H     0.76634   0.13046   0.34570   0.00000  Uiso   1.00
H165   H     0.78857   0.85112   0.36402   0.00000  Uiso   1.00
H166   H     0.50251   0.97208   0.61887   0.00000  Uiso   1.00
H167   H     0.82744   0.29306   0.31177   0.00000  Uiso   1.00
H168   H     0.87431   0.70401   0.35038   0.00000  Uiso   1.00
H169   H     0.85024   0.01854   0.67609   0.00000  Uiso   1.00
H170   H     0.74352   0.01102   0.77444   0.00000  Uiso   1.00
H171   H     0.89761   0.16326   0.62880   0.00000  Uiso   1.00
H172   H     0.91984   0.88392   0.64711   0.00000  Uiso   1.00
H173   H     0.60905   0.99870   0.84864   0.00000  Uiso   1.00
H174   H     0.93399   0.31968   0.54154   0.00000  Uiso   1.00
H175   H     0.98086   0.73063   0.58016   0.00000  Uiso   1.00
O176   O     0.48333   0.97991   0.79360   0.00000  Uiso   1.00
O177   O     0.90964   0.40102   0.39069   0.00000  Uiso   1.00
O178   O     0.97113   0.62820   0.44136   0.00000  Uiso   1.00
N179   N     0.54223   0.97936   0.65945   0.00000  Uiso   1.00
N180   N     0.84602   0.27946   0.37234   0.00000  Uiso   1.00
N181   N     0.88985   0.72876   0.40842   0.00000  Uiso   1.00
N182   N     0.59956   0.99368   0.78309   0.00000  Uiso   1.00
N183   N     0.90335   0.29379   0.49598   0.00000  Uiso   1.00
N184   N     0.94718   0.74309   0.53206   0.00000  Uiso   1.00
C185   C     0.74570   0.99456   0.96921   0.00000  Uiso   1.00
C186   C     0.79013   0.99386   0.05185   0.00000  Uiso   1.00
C187   C     0.85943   0.98530   0.05247   0.00000  Uiso   1.00
C188   C     0.89085   0.98622   0.13496   0.00000  Uiso   1.00
C189   C     0.96542   0.98378   0.25127   0.00000  Uiso   1.00
C190   C     0.70642   0.07658   0.97273   0.00000  Uiso   1.00
C191   C     0.70532   0.13757   0.90681   0.00000  Uiso   1.00
C192   C     0.66626   0.20811   0.92269   0.00000  Uiso   1.00
C193   C     0.61081   0.33407   0.91613   0.00000  Uiso   1.00
C194   C     0.69435   0.92480   0.98268   0.00000  Uiso   1.00
C195   C     0.68308   0.85818   0.92512   0.00000  Uiso   1.00
C196   C     0.63385   0.80095   0.94937   0.00000  Uiso   1.00
C197   C     0.55967   0.69125   0.95826   0.00000  Uiso   1.00
C198   C     0.67828   0.01141   0.11461   0.00000  Uiso   1.00
C199   C     0.75351   0.00301   0.13083   0.00000  Uiso   1.00
C200   C     0.78484   0.00394   0.21333   0.00000  Uiso   1.00
C201   C     0.85417   0.99538   0.21407   0.00000  Uiso   1.00
C202   C     0.66980   0.08573   0.05170   0.00000  Uiso   1.00
C203   C     0.63072   0.15620   0.06768   0.00000  Uiso   1.00
C204   C     0.62957   0.21728   0.00181   0.00000  Uiso   1.00
C205   C     0.65773   0.93395   0.06166   0.00000  Uiso   1.00
C206   C     0.60849   0.87682   0.08599   0.00000  Uiso   1.00
C207   C     0.59716   0.81012   0.02848   0.00000  Uiso   1.00
H208   H     0.77421   0.98744   0.90772   0.00000  Uiso   1.00
H209   H     0.88775   0.97823   0.99134   0.00000  Uiso   1.00
H210   H     0.73366   0.13046   0.84570   0.00000  Uiso   1.00
H211   H     0.71143   0.85112   0.86402   0.00000  Uiso   1.00
H212   H     0.99749   0.97208   0.11887   0.00000  Uiso   1.00
H213   H     0.67256   0.29306   0.81177   0.00000  Uiso   1.00
H214   H     0.62569   0.70401   0.85038   0.00000  Uiso   1.00
H215   H     0.64976   0.01854   0.17609   0.00000  Uiso   1.00
H216   H     0.75648   0.01102   0.27444   0.00000  Uiso   1.00
H217   H     0.60239   0.16326   0.12880   0.00000  Uiso   1.00
H218   H     0.58016   0.88392   0.14711   0.00000  Uiso   1.00
H219   H     0.89095   0.99870   0.34864   0.00000  Uiso   1.00
H220   H     0.56601   0.31968   0.04154   0.00000  Uiso   1.00
H221   H     0.51914   0.73063   0.08016   0.00000  Uiso   1.00
O222   O     0.01667   0.97991   0.29360   0.00000  Uiso   1.00
O223   O     0.59036   0.40102   0.89069   0.00000  Uiso   1.00
O224   O     0.52887   0.62820   0.94136   0.00000  Uiso   1.00
N225   N     0.95777   0.97936   0.15945   0.00000  Uiso   1.00
N226   N     0.65398   0.27946   0.87234   0.00000  Uiso   1.00
N227   N     0.61015   0.72876   0.90842   0.00000  Uiso   1.00
N228   N     0.90044   0.99368   0.28309   0.00000  Uiso   1.00
N229   N     0.59665   0.29379   0.99598   0.00000  Uiso   1.00
N230   N     0.55282   0.74309   0.03206   0.00000  Uiso   1.00
C231   C     0.75430   0.50544   0.96921   0.00000  Uiso   1.00
C232   C     0.70987   0.50614   0.05185   0.00000  Uiso   1.00
C233   C     0.64057   0.51470   0.05247   0.00000  Uiso   1.00
C234   C     0.60915   0.51378   0.13496   0.00000  Uiso   1.00
C235   C     0.53458   0.51622   0.25127   0.00000  Uiso   1.00
C236   C     0.79358   0.42342   0.97273   0.00000  Uiso   1.00
C237   C     0.79468   0.36243   0.90681   0.00000  Uiso   1.00
C238   C     0.83374   0.29189   0.92269   0.00000  Uiso   1.00
C239   C     0.88919   0.16593   0.91613   0.00000  Uiso   1.00
C240   C     0.80565   0.57520   0.98268   0.00000  Uiso   1.00
C241   C     0.81692   0.64182   0.92512   0.00000  Uiso   1.00
C242   C     0.86615   0.69905   0.94937   0.00000  Uiso   1.00
C243   C     0.94033   0.80875   0.95826   0.00000  Uiso   1.00
C244   C     0.82172   0.48859   0.11461   0.00000  Uiso   1.00
C245   C     0.74649   0.49699   0.13083   0.00000  Uiso   1.00
C246   C     0.71516   0.49606   0.21333   0.00000  Uiso   1.00
C247   C     0.64583   0.50462   0.21407   0.00000  Uiso   1.00
C248   C     0.83020   0.41427   0.05170   0.00000  Uiso   1.00
C249   C     0.86928   0.34380   0.06768   0.00000  Uiso   1.00
C250   C     0.87043   0.28272   0.00181   0.00000  Uiso   1.00
C251   C     0.84227   0.56605   0.06166   0.00000  Uiso   1.00
C252   C     0.89151   0.62318   0.08599   0.00000  Uiso   1.00
C253   C     0.90284   0.68988   0.02848   0.00000  Uiso   1.00
H254   H     0.72579   0.51256   0.90772   0.00000  Uiso   1.00
H255   H     0.61225   0.52177   0.99134   0.00000  Uiso   1.00
H256   H     0.76634   0.36954   0.84570   0.00000  Uiso   1.00
H257   H     0.78857   0.64888   0.86402   0.00000  Uiso   1.00
H258   H     0.50251   0.52792   0.11887   0.00000  Uiso   1.00
H259   H     0.82744   0.20694   0.81177   0.00000  Uiso   1.00
H260   H     0.87431   0.79599   0.85038   0.00000  Uiso   1.00
H261   H     0.85024   0.48146   0.17609   0.00000  Uiso   1.00
H262   H     0.74352   0.48898   0.27444   0.00000  Uiso   1.00
H263   H     0.89761   0.33674   0.12880   0.00000  Uiso   1.00
H264   H     0.91984   0.61608   0.14711   0.00000  Uiso   1.00
H265   H     0.60905   0.50130   0.34864   0.00000  Uiso   1.00
H266   H     0.93399   0.18032   0.04154   0.00000  Uiso   1.00
H267   H     0.98086   0.76937   0.08016   0.00000  Uiso   1.00
O268   O     0.48333   0.52009   0.29360   0.00000  Uiso   1.00
O269   O     0.90964   0.09898   0.89069   0.00000  Uiso   1.00
O270   O     0.97113   0.87180   0.94136   0.00000  Uiso   1.00
N271   N     0.54223   0.52064   0.15945   0.00000  Uiso   1.00
N272   N     0.84602   0.22054   0.87234   0.00000  Uiso   1.00
N273   N     0.88985   0.77124   0.90842   0.00000  Uiso   1.00
N274   N     0.59956   0.50632   0.28309   0.00000  Uiso   1.00
N275   N     0.90335   0.20621   0.99598   0.00000  Uiso   1.00
N276   N     0.94718   0.75691   0.03206   0.00000  Uiso   1.00
C277   C     0.25430   0.49456   0.53079   0.00000  Uiso   1.00
C278   C     0.20987   0.49386   0.44815   0.00000  Uiso   1.00
C279   C     0.14057   0.48530   0.44753   0.00000  Uiso   1.00
C280   C     0.10915   0.48622   0.36504   0.00000  Uiso   1.00
C281   C     0.03458   0.48378   0.24873   0.00000  Uiso   1.00
C282   C     0.29358   0.57658   0.52727   0.00000  Uiso   1.00
C283   C     0.29468   0.63757   0.59319   0.00000  Uiso   1.00
C284   C     0.33374   0.70811   0.57731   0.00000  Uiso   1.00
C285   C     0.38919   0.83407   0.58387   0.00000  Uiso   1.00
C286   C     0.30565   0.42480   0.51732   0.00000  Uiso   1.00
C287   C     0.31692   0.35818   0.57488   0.00000  Uiso   1.00
C288   C     0.36615   0.30095   0.55063   0.00000  Uiso   1.00
C289   C     0.44033   0.19125   0.54174   0.00000  Uiso   1.00
C290   C     0.32172   0.51141   0.38539   0.00000  Uiso   1.00
C291   C     0.24649   0.50301   0.36917   0.00000  Uiso   1.00
C292   C     0.21516   0.50394   0.28667   0.00000  Uiso   1.00
C293   C     0.14583   0.49538   0.28593   0.00000  Uiso   1.00
C294   C     0.33020   0.58573   0.44830   0.00000  Uiso   1.00
C295   C     0.36928   0.65620   0.43232   0.00000  Uiso   1.00
C296   C     0.37043   0.71728   0.49819   0.00000  Uiso   1.00
C297   C     0.34227   0.43395   0.43834   0.00000  Uiso   1.00
C298   C     0.39151   0.37682   0.41401   0.00000  Uiso   1.00
C299   C     0.40284   0.31012   0.47152   0.00000  Uiso   1.00
H300   H     0.22579   0.48744   0.59228   0.00000  Uiso   1.00
H301   H     0.11225   0.47823   0.50866   0.00000  Uiso   1.00
H302   H     0.26634   0.63046   0.65430   0.00000  Uiso   1.00
H303   H     0.28857   0.35112   0.63598   0.00000  Uiso   1.00
H304   H     0.00251   0.47208   0.38113   0.00000  Uiso   1.00
H305   H     0.32744   0.79306   0.68823   0.00000  Uiso   1.00
H306   H     0.37431   0.20401   0.64962   0.00000  Uiso   1.00
H307   H     0.35024   0.51854   0.32391   0.00000  Uiso   1.00
H308   H     0.24352   0.51102   0.22556   0.00000  Uiso   1.00
H309   H     0.39761   0.66326   0.37120   0.00000  Uiso   1.00
H310   H     0.41984   0.38392   0.35289   0.00000  Uiso   1.00
H311   H     0.10905   0.49870   0.15136   0.00000  Uiso   1.00
H312   H     0.43399   0.81968   0.45846   0.00000  Uiso   1.00
H313   H     0.48086   0.23063   0.41984   0.00000  Uiso   1.00
O314   O     0.98333   0.47991   0.20640   0.00000  Uiso   1.00
O315   O     0.40964   0.90102   0.60931   0.00000  Uiso   1.00
O316   O     0.47113   0.12820   0.55864   0.00000  Uiso   1.00
N317   N     0.04223   0.47936   0.34055   0.00000  Uiso   1.00
N318   N     0.34602   0.77946   0.62766   0.00000  Uiso   1.00
N319   N     0.38985   0.22876   0.59158   0.00000  Uiso   1.00
N320   N     0.09956   0.49368   0.21691   0.00000  Uiso   1.00
N321   N     0.40335   0.79379   0.50402   0.00000  Uiso   1.00
N322   N     0.44718   0.24309   0.46794   0.00000  Uiso   1.00
C323   C     0.24570   0.00544   0.53079   0.00000  Uiso   1.00
C324   C     0.29013   0.00614   0.44815   0.00000  Uiso   1.00
C325   C     0.35943   0.01470   0.44753   0.00000  Uiso   1.00
C326   C     0.39085   0.01378   0.36504   0.00000  Uiso   1.00
C327   C     0.46542   0.01622   0.24873   0.00000  Uiso   1.00
C328   C     0.20642   0.92342   0.52727   0.00000  Uiso   1.00
C329   C     0.20532   0.86243   0.59319   0.00000  Uiso   1.00
C330   C     0.16626   0.79189   0.57731   0.00000  Uiso   1.00
C331   C     0.11081   0.66593   0.58387   0.00000  Uiso   1.00
C332   C     0.19435   0.07520   0.51732   0.00000  Uiso   1.00
C333   C     0.18308   0.14182   0.57488   0.00000  Uiso   1.00
C334   C     0.13385   0.19905   0.55063   0.00000  Uiso   1.00
C335   C     0.05967   0.30875   0.54174   0.00000  Uiso   1.00
C336   C     0.17828   0.98859   0.38539   0.00000  Uiso   1.00
C337   C     0.25351   0.99699   0.36917   0.00000  Uiso   1.00
C338   C     0.28484   0.99606   0.28667   0.00000  Uiso   1.00
C339   C     0.35417   0.00462   0.28593   0.00000  Uiso   1.00
C340   C     0.16980   0.91427   0.44830   0.00000  Uiso   1.00
C341   C     0.13072   0.84380   0.43232   0.00000  Uiso   1.00
C342   C     0.12957   0.78272   0.49819   0.00000  Uiso   1.00
C343   C     0.15773   0.06605   0.43834   0.00000  Uiso   1.00
C344   C     0.10849   0.12318   0.41401   0.00000  Uiso   1.00
C345   C     0.09716   0.18988   0.47152   0.00000  Uiso   1.00
H346   H     0.27421   0.01256   0.59228   0.00000  Uiso   1.00
H347   H     0.38775   0.02177   0.50866   0.00000  Uiso   1.00
H348   H     0.23366   0.86954   0.65430   0.00000  Uiso   1.00
H349   H     0.21143   0.14888   0.63598   0.00000  Uiso   1.00
H350   H     0.49749   0.02792   0.38113   0.00000  Uiso   1.00
H351   H     0.17256   0.70694   0.68823   0.00000  Uiso   1.00
H352   H     0.12569   0.29599   0.64962   0.00000  Uiso   1.00
H353   H     0.14976   0.98146   0.32391   0.00000  Uiso   1.00
H354   H     0.25648   0.98898   0.22556   0.00000  Uiso   1.00
H355   H     0.10239   0.83674   0.37120   0.00000  Uiso   1.00
H356   H     0.08016   0.11608   0.35289   0.00000  Uiso   1.00
H357   H     0.39095   0.00130   0.15136   0.00000  Uiso   1.00
H358   H     0.06601   0.68032   0.45846   0.00000  Uiso   1.00
H359   H     0.01914   0.26937   0.41984   0.00000  Uiso   1.00
O360   O     0.51667   0.02009   0.20640   0.00000  Uiso   1.00
O361   O     0.09036   0.59898   0.60931   0.00000  Uiso   1.00
O362   O     0.02887   0.37180   0.55864   0.00000  Uiso   1.00
N363   N     0.45777   0.02064   0.34055   0.00000  Uiso   1.00
N364   N     0.15398   0.72054   0.62766   0.00000  Uiso   1.00
N365   N     0.11015   0.27124   0.59158   0.00000  Uiso   1.00
N366   N     0.40044   0.00632   0.21691   0.00000  Uiso   1.00
N367   N     0.09665   0.70621   0.50402   0.00000  Uiso   1.00
N368   N     0.05282   0.25691   0.46794   0.00000  Uiso   1.00
