data_job_02859
_audit_creation_date              2018-12-19
_audit_creation_method            'Materials Studio'
_symmetry_space_group_name_H-M    'P1'
_symmetry_Int_Tables_number       1
_symmetry_cell_setting            triclinic
loop_
_symmetry_equiv_pos_as_xyz
  x,y,z
_cell_length_a                    28.9230
_cell_length_b                    13.5395
_cell_length_c                    23.9081
_cell_angle_alpha                 90.0000
_cell_angle_beta                  144.8882
_cell_angle_gamma                 90.0000
loop_
_atom_site_label
_atom_site_type_symbol
_atom_site_fract_x
_atom_site_fract_y
_atom_site_fract_z
_atom_site_U_iso_or_equiv
_atom_site_adp_type
_atom_site_occupancy
C1     C     0.75545   0.98843   0.83175   0.00000  Uiso   1.00
C2     C     0.79238   0.94069   0.92004   0.00000  Uiso   1.00
C3     C     0.82993   0.99040   0.00072   0.00000  Uiso   1.00
C4     C     0.85981   0.93337   0.07385   0.00000  Uiso   1.00
C5     C     0.91832   0.87491   0.21208   0.00000  Uiso   1.00
C6     C     0.79645   0.94031   0.82221   0.00000  Uiso   1.00
C7     C     0.83742   0.98970   0.82063   0.00000  Uiso   1.00
C8     C     0.87072   0.93234   0.81138   0.00000  Uiso   1.00
C9     C     0.93550   0.87331   0.79766   0.00000  Uiso   1.00
C10    C     0.66813   0.95429   0.74369   0.00000  Uiso   1.00
C11    C     0.60121   0.01544   0.67606   0.00000  Uiso   1.00
C12    C     0.52647   0.96986   0.60069   0.00000  Uiso   1.00
C13    C     0.39202   0.93253   0.46505   0.00000  Uiso   1.00
C14    C     0.74173   0.79875   0.81813   0.00000  Uiso   1.00
C15    C     0.78492   0.83766   0.91264   0.00000  Uiso   1.00
C16    C     0.81475   0.78054   0.98566   0.00000  Uiso   1.00
C17    C     0.85234   0.83015   0.06644   0.00000  Uiso   1.00
C18    C     0.78900   0.83729   0.81481   0.00000  Uiso   1.00
C19    C     0.82224   0.77984   0.80556   0.00000  Uiso   1.00
C20    C     0.86326   0.82913   0.80397   0.00000  Uiso   1.00
C21    C     0.66068   0.85127   0.73629   0.00000  Uiso   1.00
C22    C     0.58603   0.80558   0.66100   0.00000  Uiso   1.00
C23    C     0.51901   0.86665   0.59328   0.00000  Uiso   1.00
H24    H     0.76126   0.06864   0.83751   0.00000  Uiso   1.00
H25    H     0.83570   0.07013   0.00643   0.00000  Uiso   1.00
H26    H     0.84317   0.06943   0.82635   0.00000  Uiso   1.00
H27    H     0.60700   0.09517   0.68181   0.00000  Uiso   1.00
H28    H     0.91496   0.02635   0.19045   0.00000  Uiso   1.00
H29    H     0.93071   0.02488   0.81071   0.00000  Uiso   1.00
H30    H     0.43269   0.07915   0.50593   0.00000  Uiso   1.00
H31    H     0.73593   0.71853   0.81237   0.00000  Uiso   1.00
H32    H     0.80897   0.70081   0.97991   0.00000  Uiso   1.00
H33    H     0.81646   0.70012   0.79983   0.00000  Uiso   1.00
H34    H     0.58028   0.72585   0.65530   0.00000  Uiso   1.00
H35    H     0.89328   0.72660   0.16893   0.00000  Uiso   1.00
H36    H     0.90902   0.72513   0.78918   0.00000  Uiso   1.00
H37    H     0.41101   0.77940   0.48441   0.00000  Uiso   1.00
O38    O     0.95265   0.87113   0.29037   0.00000  Uiso   1.00
O39    O     0.97330   0.86921   0.79214   0.00000  Uiso   1.00
O40    O     0.31991   0.94041   0.39228   0.00000  Uiso   1.00
N41    N     0.89982   0.95823   0.16239   0.00000  Uiso   1.00
N42    N     0.91455   0.95686   0.80737   0.00000  Uiso   1.00
N43    N     0.44895   0.00760   0.52240   0.00000  Uiso   1.00
N44    N     0.88815   0.79694   0.15081   0.00000  Uiso   1.00
N45    N     0.90289   0.79557   0.79579   0.00000  Uiso   1.00
N46    N     0.43728   0.84630   0.51082   0.00000  Uiso   1.00
C47    C     0.25545   0.48843   0.83175   0.00000  Uiso   1.00
C48    C     0.29238   0.44069   0.92004   0.00000  Uiso   1.00
C49    C     0.32993   0.49040   0.00072   0.00000  Uiso   1.00
C50    C     0.35981   0.43337   0.07385   0.00000  Uiso   1.00
C51    C     0.41832   0.37491   0.21208   0.00000  Uiso   1.00
C52    C     0.29645   0.44031   0.82221   0.00000  Uiso   1.00
C53    C     0.33742   0.48970   0.82063   0.00000  Uiso   1.00
C54    C     0.37072   0.43234   0.81138   0.00000  Uiso   1.00
C55    C     0.43550   0.37331   0.79766   0.00000  Uiso   1.00
C56    C     0.16813   0.45429   0.74369   0.00000  Uiso   1.00
C57    C     0.10121   0.51544   0.67606   0.00000  Uiso   1.00
C58    C     0.02647   0.46986   0.60069   0.00000  Uiso   1.00
C59    C     0.89202   0.43253   0.46505   0.00000  Uiso   1.00
C60    C     0.24173   0.29875   0.81813   0.00000  Uiso   1.00
C61    C     0.28492   0.33766   0.91264   0.00000  Uiso   1.00
C62    C     0.31475   0.28054   0.98566   0.00000  Uiso   1.00
C63    C     0.35234   0.33015   0.06644   0.00000  Uiso   1.00
C64    C     0.28900   0.33729   0.81481   0.00000  Uiso   1.00
C65    C     0.32224   0.27984   0.80556   0.00000  Uiso   1.00
C66    C     0.36326   0.32913   0.80397   0.00000  Uiso   1.00
C67    C     0.16068   0.35127   0.73629   0.00000  Uiso   1.00
C68    C     0.08603   0.30558   0.66100   0.00000  Uiso   1.00
C69    C     0.01901   0.36665   0.59328   0.00000  Uiso   1.00
H70    H     0.26126   0.56864   0.83751   0.00000  Uiso   1.00
H71    H     0.33570   0.57013   0.00643   0.00000  Uiso   1.00
H72    H     0.34317   0.56943   0.82635   0.00000  Uiso   1.00
H73    H     0.10700   0.59517   0.68181   0.00000  Uiso   1.00
H74    H     0.41496   0.52635   0.19045   0.00000  Uiso   1.00
H75    H     0.43071   0.52488   0.81071   0.00000  Uiso   1.00
H76    H     0.93269   0.57915   0.50593   0.00000  Uiso   1.00
H77    H     0.23593   0.21853   0.81237   0.00000  Uiso   1.00
H78    H     0.30897   0.20081   0.97991   0.00000  Uiso   1.00
H79    H     0.31646   0.20012   0.79983   0.00000  Uiso   1.00
H80    H     0.08028   0.22585   0.65530   0.00000  Uiso   1.00
H81    H     0.39328   0.22660   0.16893   0.00000  Uiso   1.00
H82    H     0.40902   0.22513   0.78918   0.00000  Uiso   1.00
H83    H     0.91101   0.27940   0.48441   0.00000  Uiso   1.00
O84    O     0.45265   0.37113   0.29037   0.00000  Uiso   1.00
O85    O     0.47330   0.36921   0.79214   0.00000  Uiso   1.00
O86    O     0.81991   0.44041   0.39228   0.00000  Uiso   1.00
N87    N     0.39982   0.45823   0.16239   0.00000  Uiso   1.00
N88    N     0.41455   0.45686   0.80737   0.00000  Uiso   1.00
N89    N     0.94895   0.50760   0.52240   0.00000  Uiso   1.00
N90    N     0.38815   0.29694   0.15081   0.00000  Uiso   1.00
N91    N     0.40289   0.29557   0.79579   0.00000  Uiso   1.00
N92    N     0.93728   0.34630   0.51082   0.00000  Uiso   1.00
C93    C     0.24455   0.98843   0.66825   0.00000  Uiso   1.00
C94    C     0.20762   0.94069   0.57996   0.00000  Uiso   1.00
C95    C     0.17007   0.99040   0.49928   0.00000  Uiso   1.00
C96    C     0.14019   0.93337   0.42615   0.00000  Uiso   1.00
C97    C     0.08168   0.87491   0.28792   0.00000  Uiso   1.00
C98    C     0.20355   0.94031   0.67779   0.00000  Uiso   1.00
C99    C     0.16258   0.98970   0.67937   0.00000  Uiso   1.00
C100   C     0.12928   0.93234   0.68862   0.00000  Uiso   1.00
C101   C     0.06450   0.87331   0.70234   0.00000  Uiso   1.00
C102   C     0.33187   0.95429   0.75631   0.00000  Uiso   1.00
C103   C     0.39879   0.01544   0.82394   0.00000  Uiso   1.00
C104   C     0.47353   0.96986   0.89931   0.00000  Uiso   1.00
C105   C     0.60798   0.93253   0.03495   0.00000  Uiso   1.00
C106   C     0.25827   0.79875   0.68187   0.00000  Uiso   1.00
C107   C     0.21508   0.83766   0.58736   0.00000  Uiso   1.00
C108   C     0.18525   0.78054   0.51434   0.00000  Uiso   1.00
C109   C     0.14766   0.83015   0.43356   0.00000  Uiso   1.00
C110   C     0.21100   0.83729   0.68519   0.00000  Uiso   1.00
C111   C     0.17776   0.77984   0.69444   0.00000  Uiso   1.00
C112   C     0.13674   0.82913   0.69603   0.00000  Uiso   1.00
C113   C     0.33932   0.85127   0.76371   0.00000  Uiso   1.00
C114   C     0.41397   0.80558   0.83900   0.00000  Uiso   1.00
C115   C     0.48099   0.86665   0.90672   0.00000  Uiso   1.00
H116   H     0.23874   0.06864   0.66249   0.00000  Uiso   1.00
H117   H     0.16430   0.07013   0.49357   0.00000  Uiso   1.00
H118   H     0.15683   0.06943   0.67365   0.00000  Uiso   1.00
H119   H     0.39300   0.09517   0.81819   0.00000  Uiso   1.00
H120   H     0.08504   0.02635   0.30955   0.00000  Uiso   1.00
H121   H     0.06929   0.02488   0.68929   0.00000  Uiso   1.00
H122   H     0.56731   0.07915   0.99407   0.00000  Uiso   1.00
H123   H     0.26407   0.71853   0.68763   0.00000  Uiso   1.00
H124   H     0.19103   0.70081   0.52009   0.00000  Uiso   1.00
H125   H     0.18354   0.70012   0.70017   0.00000  Uiso   1.00
H126   H     0.41972   0.72585   0.84470   0.00000  Uiso   1.00
H127   H     0.10672   0.72660   0.33107   0.00000  Uiso   1.00
H128   H     0.09098   0.72513   0.71082   0.00000  Uiso   1.00
H129   H     0.58899   0.77940   0.01559   0.00000  Uiso   1.00
O130   O     0.04735   0.87113   0.20963   0.00000  Uiso   1.00
O131   O     0.02670   0.86921   0.70786   0.00000  Uiso   1.00
O132   O     0.68009   0.94041   0.10772   0.00000  Uiso   1.00
N133   N     0.10018   0.95823   0.33761   0.00000  Uiso   1.00
N134   N     0.08545   0.95686   0.69263   0.00000  Uiso   1.00
N135   N     0.55105   0.00760   0.97760   0.00000  Uiso   1.00
N136   N     0.11185   0.79694   0.34919   0.00000  Uiso   1.00
N137   N     0.09711   0.79557   0.70421   0.00000  Uiso   1.00
N138   N     0.56272   0.84630   0.98918   0.00000  Uiso   1.00
C139   C     0.74455   0.48843   0.66825   0.00000  Uiso   1.00
C140   C     0.70762   0.44069   0.57996   0.00000  Uiso   1.00
C141   C     0.67007   0.49040   0.49928   0.00000  Uiso   1.00
C142   C     0.64019   0.43337   0.42615   0.00000  Uiso   1.00
C143   C     0.58168   0.37491   0.28792   0.00000  Uiso   1.00
C144   C     0.70355   0.44031   0.67779   0.00000  Uiso   1.00
C145   C     0.66258   0.48970   0.67937   0.00000  Uiso   1.00
C146   C     0.62928   0.43234   0.68862   0.00000  Uiso   1.00
C147   C     0.56450   0.37331   0.70234   0.00000  Uiso   1.00
C148   C     0.83187   0.45429   0.75631   0.00000  Uiso   1.00
C149   C     0.89879   0.51544   0.82394   0.00000  Uiso   1.00
C150   C     0.97353   0.46986   0.89931   0.00000  Uiso   1.00
C151   C     0.10798   0.43253   0.03495   0.00000  Uiso   1.00
C152   C     0.75827   0.29875   0.68187   0.00000  Uiso   1.00
C153   C     0.71508   0.33766   0.58736   0.00000  Uiso   1.00
C154   C     0.68525   0.28054   0.51434   0.00000  Uiso   1.00
C155   C     0.64766   0.33015   0.43356   0.00000  Uiso   1.00
C156   C     0.71100   0.33729   0.68519   0.00000  Uiso   1.00
C157   C     0.67776   0.27984   0.69444   0.00000  Uiso   1.00
C158   C     0.63674   0.32913   0.69603   0.00000  Uiso   1.00
C159   C     0.83932   0.35127   0.76371   0.00000  Uiso   1.00
C160   C     0.91397   0.30558   0.83900   0.00000  Uiso   1.00
C161   C     0.98099   0.36665   0.90672   0.00000  Uiso   1.00
H162   H     0.73874   0.56864   0.66249   0.00000  Uiso   1.00
H163   H     0.66430   0.57013   0.49357   0.00000  Uiso   1.00
H164   H     0.65683   0.56943   0.67365   0.00000  Uiso   1.00
H165   H     0.89300   0.59517   0.81819   0.00000  Uiso   1.00
H166   H     0.58504   0.52635   0.30955   0.00000  Uiso   1.00
H167   H     0.56929   0.52488   0.68929   0.00000  Uiso   1.00
H168   H     0.06731   0.57915   0.99407   0.00000  Uiso   1.00
H169   H     0.76407   0.21853   0.68763   0.00000  Uiso   1.00
H170   H     0.69103   0.20081   0.52009   0.00000  Uiso   1.00
H171   H     0.68354   0.20012   0.70017   0.00000  Uiso   1.00
H172   H     0.91972   0.22585   0.84470   0.00000  Uiso   1.00
H173   H     0.60672   0.22660   0.33107   0.00000  Uiso   1.00
H174   H     0.59098   0.22513   0.71082   0.00000  Uiso   1.00
H175   H     0.08899   0.27940   0.01559   0.00000  Uiso   1.00
O176   O     0.54735   0.37113   0.20963   0.00000  Uiso   1.00
O177   O     0.52670   0.36921   0.70786   0.00000  Uiso   1.00
O178   O     0.18009   0.44041   0.10772   0.00000  Uiso   1.00
N179   N     0.60018   0.45823   0.33761   0.00000  Uiso   1.00
N180   N     0.58545   0.45686   0.69263   0.00000  Uiso   1.00
N181   N     0.05105   0.50760   0.97760   0.00000  Uiso   1.00
N182   N     0.61185   0.29694   0.34919   0.00000  Uiso   1.00
N183   N     0.59711   0.29557   0.70421   0.00000  Uiso   1.00
N184   N     0.06272   0.34630   0.98918   0.00000  Uiso   1.00
C185   C     0.24455   0.01157   0.16825   0.00000  Uiso   1.00
C186   C     0.20762   0.05931   0.07996   0.00000  Uiso   1.00
C187   C     0.17007   0.00960   0.99928   0.00000  Uiso   1.00
C188   C     0.14019   0.06663   0.92615   0.00000  Uiso   1.00
C189   C     0.08168   0.12509   0.78792   0.00000  Uiso   1.00
C190   C     0.20355   0.05969   0.17779   0.00000  Uiso   1.00
C191   C     0.16258   0.01030   0.17937   0.00000  Uiso   1.00
C192   C     0.12928   0.06766   0.18862   0.00000  Uiso   1.00
C193   C     0.06450   0.12669   0.20234   0.00000  Uiso   1.00
C194   C     0.33187   0.04571   0.25631   0.00000  Uiso   1.00
C195   C     0.39879   0.98456   0.32394   0.00000  Uiso   1.00
C196   C     0.47353   0.03014   0.39931   0.00000  Uiso   1.00
C197   C     0.60798   0.06747   0.53495   0.00000  Uiso   1.00
C198   C     0.25827   0.20125   0.18187   0.00000  Uiso   1.00
C199   C     0.21508   0.16234   0.08736   0.00000  Uiso   1.00
C200   C     0.18525   0.21946   0.01434   0.00000  Uiso   1.00
C201   C     0.14766   0.16985   0.93356   0.00000  Uiso   1.00
C202   C     0.21100   0.16271   0.18519   0.00000  Uiso   1.00
C203   C     0.17776   0.22016   0.19444   0.00000  Uiso   1.00
C204   C     0.13674   0.17087   0.19603   0.00000  Uiso   1.00
C205   C     0.33932   0.14873   0.26371   0.00000  Uiso   1.00
C206   C     0.41397   0.19442   0.33900   0.00000  Uiso   1.00
C207   C     0.48099   0.13335   0.40672   0.00000  Uiso   1.00
H208   H     0.23874   0.93136   0.16249   0.00000  Uiso   1.00
H209   H     0.16430   0.92987   0.99357   0.00000  Uiso   1.00
H210   H     0.15683   0.93057   0.17365   0.00000  Uiso   1.00
H211   H     0.39300   0.90483   0.31819   0.00000  Uiso   1.00
H212   H     0.08504   0.97365   0.80955   0.00000  Uiso   1.00
H213   H     0.06929   0.97512   0.18929   0.00000  Uiso   1.00
H214   H     0.56731   0.92085   0.49407   0.00000  Uiso   1.00
H215   H     0.26407   0.28147   0.18763   0.00000  Uiso   1.00
H216   H     0.19103   0.29919   0.02009   0.00000  Uiso   1.00
H217   H     0.18354   0.29988   0.20017   0.00000  Uiso   1.00
H218   H     0.41972   0.27415   0.34470   0.00000  Uiso   1.00
H219   H     0.10672   0.27340   0.83107   0.00000  Uiso   1.00
H220   H     0.09098   0.27487   0.21082   0.00000  Uiso   1.00
H221   H     0.58899   0.22060   0.51559   0.00000  Uiso   1.00
O222   O     0.04735   0.12887   0.70963   0.00000  Uiso   1.00
O223   O     0.02670   0.13079   0.20786   0.00000  Uiso   1.00
O224   O     0.68009   0.05959   0.60772   0.00000  Uiso   1.00
N225   N     0.10018   0.04177   0.83761   0.00000  Uiso   1.00
N226   N     0.08545   0.04314   0.19263   0.00000  Uiso   1.00
N227   N     0.55105   0.99240   0.47760   0.00000  Uiso   1.00
N228   N     0.11185   0.20306   0.84919   0.00000  Uiso   1.00
N229   N     0.09711   0.20443   0.20421   0.00000  Uiso   1.00
N230   N     0.56272   0.15370   0.48918   0.00000  Uiso   1.00
C231   C     0.74455   0.51157   0.16825   0.00000  Uiso   1.00
C232   C     0.70762   0.55931   0.07996   0.00000  Uiso   1.00
C233   C     0.67007   0.50960   0.99928   0.00000  Uiso   1.00
C234   C     0.64019   0.56663   0.92615   0.00000  Uiso   1.00
C235   C     0.58168   0.62509   0.78792   0.00000  Uiso   1.00
C236   C     0.70355   0.55969   0.17779   0.00000  Uiso   1.00
C237   C     0.66258   0.51030   0.17937   0.00000  Uiso   1.00
C238   C     0.62928   0.56766   0.18862   0.00000  Uiso   1.00
C239   C     0.56450   0.62669   0.20234   0.00000  Uiso   1.00
C240   C     0.83187   0.54571   0.25631   0.00000  Uiso   1.00
C241   C     0.89879   0.48456   0.32394   0.00000  Uiso   1.00
C242   C     0.97353   0.53014   0.39931   0.00000  Uiso   1.00
C243   C     0.10798   0.56747   0.53495   0.00000  Uiso   1.00
C244   C     0.75827   0.70125   0.18187   0.00000  Uiso   1.00
C245   C     0.71508   0.66234   0.08736   0.00000  Uiso   1.00
C246   C     0.68525   0.71946   0.01434   0.00000  Uiso   1.00
C247   C     0.64766   0.66985   0.93356   0.00000  Uiso   1.00
C248   C     0.71100   0.66271   0.18519   0.00000  Uiso   1.00
C249   C     0.67776   0.72016   0.19444   0.00000  Uiso   1.00
C250   C     0.63674   0.67087   0.19603   0.00000  Uiso   1.00
C251   C     0.83932   0.64873   0.26371   0.00000  Uiso   1.00
C252   C     0.91397   0.69442   0.33900   0.00000  Uiso   1.00
C253   C     0.98099   0.63335   0.40672   0.00000  Uiso   1.00
H254   H     0.73874   0.43136   0.16249   0.00000  Uiso   1.00
H255   H     0.66430   0.42987   0.99357   0.00000  Uiso   1.00
H256   H     0.65683   0.43057   0.17365   0.00000  Uiso   1.00
H257   H     0.89300   0.40483   0.31819   0.00000  Uiso   1.00
H258   H     0.58504   0.47365   0.80955   0.00000  Uiso   1.00
H259   H     0.56929   0.47512   0.18929   0.00000  Uiso   1.00
H260   H     0.06731   0.42085   0.49407   0.00000  Uiso   1.00
H261   H     0.76407   0.78147   0.18763   0.00000  Uiso   1.00
H262   H     0.69103   0.79919   0.02009   0.00000  Uiso   1.00
H263   H     0.68354   0.79988   0.20017   0.00000  Uiso   1.00
H264   H     0.91972   0.77415   0.34470   0.00000  Uiso   1.00
H265   H     0.60672   0.77340   0.83107   0.00000  Uiso   1.00
H266   H     0.59098   0.77487   0.21082   0.00000  Uiso   1.00
H267   H     0.08899   0.72060   0.51559   0.00000  Uiso   1.00
O268   O     0.54735   0.62887   0.70963   0.00000  Uiso   1.00
O269   O     0.52670   0.63079   0.20786   0.00000  Uiso   1.00
O270   O     0.18009   0.55959   0.60772   0.00000  Uiso   1.00
N271   N     0.60018   0.54177   0.83761   0.00000  Uiso   1.00
N272   N     0.58545   0.54314   0.19263   0.00000  Uiso   1.00
N273   N     0.05105   0.49240   0.47760   0.00000  Uiso   1.00
N274   N     0.61185   0.70306   0.84919   0.00000  Uiso   1.00
N275   N     0.59711   0.70443   0.20421   0.00000  Uiso   1.00
N276   N     0.06272   0.65370   0.48918   0.00000  Uiso   1.00
C277   C     0.75545   0.01157   0.33175   0.00000  Uiso   1.00
C278   C     0.79238   0.05931   0.42004   0.00000  Uiso   1.00
C279   C     0.82993   0.00960   0.50072   0.00000  Uiso   1.00
C280   C     0.85981   0.06663   0.57385   0.00000  Uiso   1.00
C281   C     0.91832   0.12509   0.71208   0.00000  Uiso   1.00
C282   C     0.79645   0.05969   0.32221   0.00000  Uiso   1.00
C283   C     0.83742   0.01030   0.32063   0.00000  Uiso   1.00
C284   C     0.87072   0.06766   0.31138   0.00000  Uiso   1.00
C285   C     0.93550   0.12669   0.29766   0.00000  Uiso   1.00
C286   C     0.66813   0.04571   0.24369   0.00000  Uiso   1.00
C287   C     0.60121   0.98456   0.17606   0.00000  Uiso   1.00
C288   C     0.52647   0.03014   0.10069   0.00000  Uiso   1.00
C289   C     0.39202   0.06747   0.96505   0.00000  Uiso   1.00
C290   C     0.74173   0.20125   0.31813   0.00000  Uiso   1.00
C291   C     0.78492   0.16234   0.41264   0.00000  Uiso   1.00
C292   C     0.81475   0.21946   0.48566   0.00000  Uiso   1.00
C293   C     0.85234   0.16985   0.56644   0.00000  Uiso   1.00
C294   C     0.78900   0.16271   0.31481   0.00000  Uiso   1.00
C295   C     0.82224   0.22016   0.30556   0.00000  Uiso   1.00
C296   C     0.86326   0.17087   0.30397   0.00000  Uiso   1.00
C297   C     0.66068   0.14873   0.23629   0.00000  Uiso   1.00
C298   C     0.58603   0.19442   0.16100   0.00000  Uiso   1.00
C299   C     0.51901   0.13335   0.09328   0.00000  Uiso   1.00
H300   H     0.76126   0.93136   0.33751   0.00000  Uiso   1.00
H301   H     0.83570   0.92987   0.50643   0.00000  Uiso   1.00
H302   H     0.84317   0.93057   0.32635   0.00000  Uiso   1.00
H303   H     0.60700   0.90483   0.18181   0.00000  Uiso   1.00
H304   H     0.91496   0.97365   0.69045   0.00000  Uiso   1.00
H305   H     0.93071   0.97512   0.31071   0.00000  Uiso   1.00
H306   H     0.43269   0.92085   0.00593   0.00000  Uiso   1.00
H307   H     0.73593   0.28147   0.31237   0.00000  Uiso   1.00
H308   H     0.80897   0.29919   0.47991   0.00000  Uiso   1.00
H309   H     0.81646   0.29988   0.29983   0.00000  Uiso   1.00
H310   H     0.58028   0.27415   0.15530   0.00000  Uiso   1.00
H311   H     0.89328   0.27340   0.66893   0.00000  Uiso   1.00
H312   H     0.90902   0.27487   0.28918   0.00000  Uiso   1.00
H313   H     0.41101   0.22060   0.98441   0.00000  Uiso   1.00
O314   O     0.95265   0.12887   0.79037   0.00000  Uiso   1.00
O315   O     0.97330   0.13079   0.29214   0.00000  Uiso   1.00
O316   O     0.31991   0.05959   0.89228   0.00000  Uiso   1.00
N317   N     0.89982   0.04177   0.66239   0.00000  Uiso   1.00
N318   N     0.91455   0.04314   0.30737   0.00000  Uiso   1.00
N319   N     0.44895   0.99240   0.02240   0.00000  Uiso   1.00
N320   N     0.88815   0.20306   0.65081   0.00000  Uiso   1.00
N321   N     0.90289   0.20443   0.29579   0.00000  Uiso   1.00
N322   N     0.43728   0.15370   0.01082   0.00000  Uiso   1.00
C323   C     0.25545   0.51157   0.33175   0.00000  Uiso   1.00
C324   C     0.29238   0.55931   0.42004   0.00000  Uiso   1.00
C325   C     0.32993   0.50960   0.50072   0.00000  Uiso   1.00
C326   C     0.35981   0.56663   0.57385   0.00000  Uiso   1.00
C327   C     0.41832   0.62509   0.71208   0.00000  Uiso   1.00
C328   C     0.29645   0.55969   0.32221   0.00000  Uiso   1.00
C329   C     0.33742   0.51030   0.32063   0.00000  Uiso   1.00
C330   C     0.37072   0.56766   0.31138   0.00000  Uiso   1.00
C331   C     0.43550   0.62669   0.29766   0.00000  Uiso   1.00
C332   C     0.16813   0.54571   0.24369   0.00000  Uiso   1.00
C333   C     0.10121   0.48456   0.17606   0.00000  Uiso   1.00
C334   C     0.02647   0.53014   0.10069   0.00000  Uiso   1.00
C335   C     0.89202   0.56747   0.96505   0.00000  Uiso   1.00
C336   C     0.24173   0.70125   0.31813   0.00000  Uiso   1.00
C337   C     0.28492   0.66234   0.41264   0.00000  Uiso   1.00
C338   C     0.31475   0.71946   0.48566   0.00000  Uiso   1.00
C339   C     0.35234   0.66985   0.56644   0.00000  Uiso   1.00
C340   C     0.28900   0.66271   0.31481   0.00000  Uiso   1.00
C341   C     0.32224   0.72016   0.30556   0.00000  Uiso   1.00
C342   C     0.36326   0.67087   0.30397   0.00000  Uiso   1.00
C343   C     0.16068   0.64873   0.23629   0.00000  Uiso   1.00
C344   C     0.08603   0.69442   0.16100   0.00000  Uiso   1.00
C345   C     0.01901   0.63335   0.09328   0.00000  Uiso   1.00
H346   H     0.26126   0.43136   0.33751   0.00000  Uiso   1.00
H347   H     0.33570   0.42987   0.50643   0.00000  Uiso   1.00
H348   H     0.34317   0.43057   0.32635   0.00000  Uiso   1.00
H349   H     0.10700   0.40483   0.18181   0.00000  Uiso   1.00
H350   H     0.41496   0.47365   0.69045   0.00000  Uiso   1.00
H351   H     0.43071   0.47512   0.31071   0.00000  Uiso   1.00
H352   H     0.93269   0.42085   0.00593   0.00000  Uiso   1.00
H353   H     0.23593   0.78147   0.31237   0.00000  Uiso   1.00
H354   H     0.30897   0.79919   0.47991   0.00000  Uiso   1.00
H355   H     0.31646   0.79988   0.29983   0.00000  Uiso   1.00
H356   H     0.08028   0.77415   0.15530   0.00000  Uiso   1.00
H357   H     0.39328   0.77340   0.66893   0.00000  Uiso   1.00
H358   H     0.40902   0.77487   0.28918   0.00000  Uiso   1.00
H359   H     0.91101   0.72060   0.98441   0.00000  Uiso   1.00
O360   O     0.45265   0.62887   0.79037   0.00000  Uiso   1.00
O361   O     0.47330   0.63079   0.29214   0.00000  Uiso   1.00
O362   O     0.81991   0.55959   0.89228   0.00000  Uiso   1.00
N363   N     0.39982   0.54177   0.66239   0.00000  Uiso   1.00
N364   N     0.41455   0.54314   0.30737   0.00000  Uiso   1.00
N365   N     0.94895   0.49240   0.02240   0.00000  Uiso   1.00
N366   N     0.38815   0.70306   0.65081   0.00000  Uiso   1.00
N367   N     0.40289   0.70443   0.29579   0.00000  Uiso   1.00
N368   N     0.93728   0.65370   0.01082   0.00000  Uiso   1.00
