data_job_00246
_audit_creation_date              2018-12-19
_audit_creation_method            'Materials Studio'
_symmetry_space_group_name_H-M    'P1'
_symmetry_Int_Tables_number       1
_symmetry_cell_setting            triclinic
loop_
_symmetry_equiv_pos_as_xyz
  x,y,z
_cell_length_a                    38.2545
_cell_length_b                    12.1248
_cell_length_c                    34.8738
_cell_angle_alpha                 90.0000
_cell_angle_beta                  160.7392
_cell_angle_gamma                 90.0000
loop_
_atom_site_label
_atom_site_type_symbol
_atom_site_fract_x
_atom_site_fract_y
_atom_site_fract_z
_atom_site_U_iso_or_equiv
_atom_site_adp_type
_atom_site_occupancy
C1     C     0.63010   0.54202   0.48744   0.00000  Uiso   1.00
C2     C     0.52343   0.60039   0.37374   0.00000  Uiso   1.00
C3     C     0.48197   0.64718   0.29773   0.00000  Uiso   1.00
C4     C     0.38314   0.69678   0.19836   0.00000  Uiso   1.00
C5     C     0.22595   0.78706   0.02527   0.00000  Uiso   1.00
C6     C     0.69083   0.60185   0.58189   0.00000  Uiso   1.00
C7     C     0.79012   0.64985   0.68090   0.00000  Uiso   1.00
C8     C     0.83221   0.70065   0.75675   0.00000  Uiso   1.00
C9     C     0.93494   0.79313   0.90685   0.00000  Uiso   1.00
C10    C     0.60629   0.42716   0.47836   0.00000  Uiso   1.00
C11    C     0.63451   0.32827   0.49035   0.00000  Uiso   1.00
C12    C     0.60544   0.23199   0.47906   0.00000  Uiso   1.00
C13    C     0.57690   0.05324   0.46842   0.00000  Uiso   1.00
C14    C     0.52831   0.54689   0.44611   0.00000  Uiso   1.00
C15    C     0.46815   0.60304   0.35130   0.00000  Uiso   1.00
C16    C     0.36936   0.65257   0.25201   0.00000  Uiso   1.00
C17    C     0.32775   0.69942   0.17587   0.00000  Uiso   1.00
C18    C     0.63555   0.60450   0.55945   0.00000  Uiso   1.00
C19    C     0.67750   0.65523   0.63518   0.00000  Uiso   1.00
C20    C     0.77682   0.70330   0.73426   0.00000  Uiso   1.00
C21    C     0.55100   0.42980   0.45591   0.00000  Uiso   1.00
C22    C     0.52189   0.33366   0.44462   0.00000  Uiso   1.00
C23    C     0.55006   0.23464   0.45658   0.00000  Uiso   1.00
H24    H     0.67315   0.53996   0.50492   0.00000  Uiso   1.00
H25    H     0.52479   0.64513   0.31514   0.00000  Uiso   1.00
H26    H     0.83289   0.64778   0.69825   0.00000  Uiso   1.00
H27    H     0.67730   0.32625   0.50772   0.00000  Uiso   1.00
H28    H     0.33594   0.76292   0.09486   0.00000  Uiso   1.00
H29    H     0.98560   0.76848   0.90268   0.00000  Uiso   1.00
H30    H     0.65751   0.09048   0.50092   0.00000  Uiso   1.00
H31    H     0.48527   0.54894   0.42864   0.00000  Uiso   1.00
H32    H     0.32659   0.65460   0.23467   0.00000  Uiso   1.00
H33    H     0.63470   0.65726   0.61778   0.00000  Uiso   1.00
H34    H     0.47911   0.33573   0.42725   0.00000  Uiso   1.00
H35    H     0.17508   0.77062   0.02955   0.00000  Uiso   1.00
H36    H     0.82475   0.77618   0.83738   0.00000  Uiso   1.00
H37    H     0.49665   0.09818   0.43561   0.00000  Uiso   1.00
O38    O     0.15453   0.83615   0.93600   0.00000  Uiso   1.00
O39    O     0.00687   0.84342   0.99584   0.00000  Uiso   1.00
O40    O     0.57642   0.95391   0.46873   0.00000  Uiso   1.00
N41    N     0.31984   0.75022   0.10610   0.00000  Uiso   1.00
N42    N     0.92723   0.75543   0.86135   0.00000  Uiso   1.00
N43    N     0.62052   0.12156   0.48577   0.00000  Uiso   1.00
N44    N     0.23329   0.75436   0.07095   0.00000  Uiso   1.00
N45    N     0.84068   0.75957   0.82621   0.00000  Uiso   1.00
N46    N     0.53397   0.12570   0.45063   0.00000  Uiso   1.00
C47    C     0.13341   0.89928   0.49429   0.00000  Uiso   1.00
C48    C     0.02699   0.95830   0.38122   0.00000  Uiso   1.00
C49    C     0.98718   0.00988   0.30752   0.00000  Uiso   1.00
C50    C     0.88829   0.05922   0.20833   0.00000  Uiso   1.00
C51    C     0.73175   0.15126   0.03650   0.00000  Uiso   1.00
C52    C     0.19270   0.95436   0.58863   0.00000  Uiso   1.00
C53    C     0.29222   0.00260   0.68934   0.00000  Uiso   1.00
C54    C     0.33283   0.04861   0.76476   0.00000  Uiso   1.00
C55    C     0.43358   0.13444   0.91500   0.00000  Uiso   1.00
C56    C     0.10869   0.78238   0.48212   0.00000  Uiso   1.00
C57    C     0.13760   0.68603   0.49330   0.00000  Uiso   1.00
C58    C     0.10750   0.58724   0.47907   0.00000  Uiso   1.00
C59    C     0.07782   0.40605   0.46393   0.00000  Uiso   1.00
C60    C     0.02858   0.89518   0.44918   0.00000  Uiso   1.00
C61    C     0.97006   0.95607   0.35672   0.00000  Uiso   1.00
C62    C     0.87120   0.00534   0.25760   0.00000  Uiso   1.00
C63    C     0.83125   0.05699   0.18377   0.00000  Uiso   1.00
C64    C     0.13576   0.95213   0.56413   0.00000  Uiso   1.00
C65    C     0.17624   0.99807   0.63943   0.00000  Uiso   1.00
C66    C     0.27579   0.04638   0.74021   0.00000  Uiso   1.00
C67    C     0.05175   0.78015   0.45761   0.00000  Uiso   1.00
C68    C     0.02161   0.68149   0.44338   0.00000  Uiso   1.00
C69    C     0.05046   0.58500   0.45452   0.00000  Uiso   1.00
H70    H     0.17774   0.90102   0.51338   0.00000  Uiso   1.00
H71    H     0.03128   0.01160   0.32652   0.00000  Uiso   1.00
H72    H     0.33627   0.00431   0.70828   0.00000  Uiso   1.00
H73    H     0.18167   0.68778   0.51226   0.00000  Uiso   1.00
H74    H     0.84380   0.13325   0.10857   0.00000  Uiso   1.00
H75    H     0.48691   0.11785   0.91355   0.00000  Uiso   1.00
H76    H     0.16091   0.45039   0.50021   0.00000  Uiso   1.00
H77    H     0.98425   0.89344   0.43010   0.00000  Uiso   1.00
H78    H     0.82715   0.00361   0.23867   0.00000  Uiso   1.00
H79    H     0.13215   0.99632   0.62044   0.00000  Uiso   1.00
H80    H     0.97755   0.67980   0.42441   0.00000  Uiso   1.00
H81    H     0.67813   0.12677   0.03726   0.00000  Uiso   1.00
H82    H     0.32124   0.11136   0.84226   0.00000  Uiso   1.00
H83    H     0.99523   0.44391   0.42891   0.00000  Uiso   1.00
O84    O     0.66113   0.20265   0.94850   0.00000  Uiso   1.00
O85    O     0.50488   0.18242   0.00463   0.00000  Uiso   1.00
O86    O     0.07716   0.30673   0.46233   0.00000  Uiso   1.00
N87    N     0.82636   0.11659   0.11804   0.00000  Uiso   1.00
N88    N     0.42762   0.10220   0.87066   0.00000  Uiso   1.00
N89    N     0.12286   0.47818   0.48425   0.00000  Uiso   1.00
N90    N     0.73721   0.11310   0.07968   0.00000  Uiso   1.00
N91    N     0.33847   0.09871   0.83229   0.00000  Uiso   1.00
N92    N     0.03371   0.47469   0.44588   0.00000  Uiso   1.00
C93    C     0.36990   0.54202   0.01256   0.00000  Uiso   1.00
C94    C     0.47657   0.60039   0.12626   0.00000  Uiso   1.00
C95    C     0.51803   0.64718   0.20227   0.00000  Uiso   1.00
C96    C     0.61686   0.69678   0.30164   0.00000  Uiso   1.00
C97    C     0.77405   0.78706   0.47473   0.00000  Uiso   1.00
C98    C     0.30917   0.60185   0.91811   0.00000  Uiso   1.00
C99    C     0.20988   0.64985   0.81910   0.00000  Uiso   1.00
C100   C     0.16779   0.70065   0.74325   0.00000  Uiso   1.00
C101   C     0.06506   0.79313   0.59315   0.00000  Uiso   1.00
C102   C     0.39371   0.42716   0.02164   0.00000  Uiso   1.00
C103   C     0.36549   0.32827   0.00965   0.00000  Uiso   1.00
C104   C     0.39456   0.23199   0.02094   0.00000  Uiso   1.00
C105   C     0.42310   0.05324   0.03158   0.00000  Uiso   1.00
C106   C     0.47169   0.54689   0.05389   0.00000  Uiso   1.00
C107   C     0.53185   0.60304   0.14870   0.00000  Uiso   1.00
C108   C     0.63064   0.65257   0.24799   0.00000  Uiso   1.00
C109   C     0.67225   0.69942   0.32413   0.00000  Uiso   1.00
C110   C     0.36445   0.60450   0.94055   0.00000  Uiso   1.00
C111   C     0.32250   0.65523   0.86482   0.00000  Uiso   1.00
C112   C     0.22318   0.70330   0.76574   0.00000  Uiso   1.00
C113   C     0.44900   0.42980   0.04409   0.00000  Uiso   1.00
C114   C     0.47811   0.33366   0.05538   0.00000  Uiso   1.00
C115   C     0.44994   0.23464   0.04342   0.00000  Uiso   1.00
H116   H     0.32685   0.53996   0.99508   0.00000  Uiso   1.00
H117   H     0.47521   0.64513   0.18486   0.00000  Uiso   1.00
H118   H     0.16711   0.64778   0.80175   0.00000  Uiso   1.00
H119   H     0.32270   0.32625   0.99228   0.00000  Uiso   1.00
H120   H     0.66406   0.76292   0.40514   0.00000  Uiso   1.00
H121   H     0.01440   0.76848   0.59732   0.00000  Uiso   1.00
H122   H     0.34249   0.09048   0.99908   0.00000  Uiso   1.00
H123   H     0.51473   0.54894   0.07136   0.00000  Uiso   1.00
H124   H     0.67341   0.65460   0.26533   0.00000  Uiso   1.00
H125   H     0.36530   0.65726   0.88222   0.00000  Uiso   1.00
H126   H     0.52089   0.33573   0.07275   0.00000  Uiso   1.00
H127   H     0.82492   0.77062   0.47045   0.00000  Uiso   1.00
H128   H     0.17525   0.77618   0.66262   0.00000  Uiso   1.00
H129   H     0.50335   0.09818   0.06439   0.00000  Uiso   1.00
O130   O     0.84547   0.83615   0.56400   0.00000  Uiso   1.00
O131   O     0.99313   0.84342   0.50416   0.00000  Uiso   1.00
O132   O     0.42358   0.95391   0.03127   0.00000  Uiso   1.00
N133   N     0.68016   0.75022   0.39390   0.00000  Uiso   1.00
N134   N     0.07277   0.75543   0.63865   0.00000  Uiso   1.00
N135   N     0.37948   0.12156   0.01423   0.00000  Uiso   1.00
N136   N     0.76671   0.75436   0.42905   0.00000  Uiso   1.00
N137   N     0.15932   0.75957   0.67379   0.00000  Uiso   1.00
N138   N     0.46603   0.12570   0.04937   0.00000  Uiso   1.00
C139   C     0.86659   0.89928   0.00571   0.00000  Uiso   1.00
C140   C     0.97301   0.95830   0.11878   0.00000  Uiso   1.00
C141   C     0.01282   0.00988   0.19248   0.00000  Uiso   1.00
C142   C     0.11171   0.05922   0.29167   0.00000  Uiso   1.00
C143   C     0.26825   0.15126   0.46350   0.00000  Uiso   1.00
C144   C     0.80730   0.95436   0.91137   0.00000  Uiso   1.00
C145   C     0.70778   0.00260   0.81066   0.00000  Uiso   1.00
C146   C     0.66717   0.04861   0.73524   0.00000  Uiso   1.00
C147   C     0.56642   0.13444   0.58500   0.00000  Uiso   1.00
C148   C     0.89131   0.78238   0.01788   0.00000  Uiso   1.00
C149   C     0.86240   0.68603   0.00670   0.00000  Uiso   1.00
C150   C     0.89250   0.58724   0.02093   0.00000  Uiso   1.00
C151   C     0.92218   0.40605   0.03607   0.00000  Uiso   1.00
C152   C     0.97142   0.89518   0.05082   0.00000  Uiso   1.00
C153   C     0.02994   0.95607   0.14328   0.00000  Uiso   1.00
C154   C     0.12880   0.00534   0.24240   0.00000  Uiso   1.00
C155   C     0.16875   0.05699   0.31623   0.00000  Uiso   1.00
C156   C     0.86424   0.95213   0.93587   0.00000  Uiso   1.00
C157   C     0.82376   0.99807   0.86057   0.00000  Uiso   1.00
C158   C     0.72421   0.04638   0.75979   0.00000  Uiso   1.00
C159   C     0.94825   0.78015   0.04239   0.00000  Uiso   1.00
C160   C     0.97839   0.68149   0.05662   0.00000  Uiso   1.00
C161   C     0.94954   0.58500   0.04548   0.00000  Uiso   1.00
H162   H     0.82226   0.90102   0.98662   0.00000  Uiso   1.00
H163   H     0.96872   0.01160   0.17348   0.00000  Uiso   1.00
H164   H     0.66373   0.00431   0.79172   0.00000  Uiso   1.00
H165   H     0.81833   0.68778   0.98774   0.00000  Uiso   1.00
H166   H     0.15620   0.13325   0.39143   0.00000  Uiso   1.00
H167   H     0.51309   0.11785   0.58645   0.00000  Uiso   1.00
H168   H     0.83909   0.45039   0.99979   0.00000  Uiso   1.00
H169   H     0.01575   0.89344   0.06990   0.00000  Uiso   1.00
H170   H     0.17285   0.00361   0.26133   0.00000  Uiso   1.00
H171   H     0.86785   0.99632   0.87956   0.00000  Uiso   1.00
H172   H     0.02245   0.67980   0.07559   0.00000  Uiso   1.00
H173   H     0.32187   0.12677   0.46274   0.00000  Uiso   1.00
H174   H     0.67876   0.11136   0.65774   0.00000  Uiso   1.00
H175   H     0.00477   0.44391   0.07109   0.00000  Uiso   1.00
O176   O     0.33887   0.20265   0.55150   0.00000  Uiso   1.00
O177   O     0.49512   0.18242   0.49537   0.00000  Uiso   1.00
O178   O     0.92284   0.30673   0.03767   0.00000  Uiso   1.00
N179   N     0.17364   0.11659   0.38196   0.00000  Uiso   1.00
N180   N     0.57238   0.10220   0.62934   0.00000  Uiso   1.00
N181   N     0.87714   0.47818   0.01575   0.00000  Uiso   1.00
N182   N     0.26279   0.11310   0.42032   0.00000  Uiso   1.00
N183   N     0.66153   0.09871   0.66771   0.00000  Uiso   1.00
N184   N     0.96629   0.47469   0.05412   0.00000  Uiso   1.00
C185   C     0.36990   0.45798   0.51256   0.00000  Uiso   1.00
C186   C     0.47657   0.39961   0.62626   0.00000  Uiso   1.00
C187   C     0.51803   0.35282   0.70227   0.00000  Uiso   1.00
C188   C     0.61686   0.30322   0.80164   0.00000  Uiso   1.00
C189   C     0.77405   0.21294   0.97473   0.00000  Uiso   1.00
C190   C     0.30917   0.39815   0.41811   0.00000  Uiso   1.00
C191   C     0.20988   0.35015   0.31910   0.00000  Uiso   1.00
C192   C     0.16779   0.29935   0.24325   0.00000  Uiso   1.00
C193   C     0.06506   0.20687   0.09315   0.00000  Uiso   1.00
C194   C     0.39371   0.57284   0.52164   0.00000  Uiso   1.00
C195   C     0.36549   0.67173   0.50965   0.00000  Uiso   1.00
C196   C     0.39456   0.76801   0.52094   0.00000  Uiso   1.00
C197   C     0.42310   0.94676   0.53158   0.00000  Uiso   1.00
C198   C     0.47169   0.45311   0.55389   0.00000  Uiso   1.00
C199   C     0.53185   0.39696   0.64870   0.00000  Uiso   1.00
C200   C     0.63064   0.34743   0.74799   0.00000  Uiso   1.00
C201   C     0.67225   0.30058   0.82413   0.00000  Uiso   1.00
C202   C     0.36445   0.39550   0.44055   0.00000  Uiso   1.00
C203   C     0.32250   0.34477   0.36482   0.00000  Uiso   1.00
C204   C     0.22318   0.29670   0.26574   0.00000  Uiso   1.00
C205   C     0.44900   0.57020   0.54409   0.00000  Uiso   1.00
C206   C     0.47811   0.66634   0.55538   0.00000  Uiso   1.00
C207   C     0.44994   0.76536   0.54342   0.00000  Uiso   1.00
H208   H     0.32685   0.46004   0.49508   0.00000  Uiso   1.00
H209   H     0.47521   0.35487   0.68486   0.00000  Uiso   1.00
H210   H     0.16711   0.35222   0.30175   0.00000  Uiso   1.00
H211   H     0.32270   0.67375   0.49228   0.00000  Uiso   1.00
H212   H     0.66406   0.23708   0.90514   0.00000  Uiso   1.00
H213   H     0.01440   0.23152   0.09732   0.00000  Uiso   1.00
H214   H     0.34249   0.90952   0.49908   0.00000  Uiso   1.00
H215   H     0.51473   0.45106   0.57136   0.00000  Uiso   1.00
H216   H     0.67341   0.34540   0.76533   0.00000  Uiso   1.00
H217   H     0.36530   0.34274   0.38222   0.00000  Uiso   1.00
H218   H     0.52089   0.66427   0.57275   0.00000  Uiso   1.00
H219   H     0.82492   0.22938   0.97045   0.00000  Uiso   1.00
H220   H     0.17525   0.22382   0.16262   0.00000  Uiso   1.00
H221   H     0.50335   0.90182   0.56439   0.00000  Uiso   1.00
O222   O     0.84547   0.16385   0.06400   0.00000  Uiso   1.00
O223   O     0.99313   0.15658   0.00416   0.00000  Uiso   1.00
O224   O     0.42358   0.04609   0.53127   0.00000  Uiso   1.00
N225   N     0.68016   0.24978   0.89390   0.00000  Uiso   1.00
N226   N     0.07277   0.24457   0.13865   0.00000  Uiso   1.00
N227   N     0.37948   0.87844   0.51423   0.00000  Uiso   1.00
N228   N     0.76671   0.24564   0.92905   0.00000  Uiso   1.00
N229   N     0.15932   0.24043   0.17379   0.00000  Uiso   1.00
N230   N     0.46603   0.87430   0.54937   0.00000  Uiso   1.00
C231   C     0.86659   0.10072   0.50571   0.00000  Uiso   1.00
C232   C     0.97301   0.04170   0.61878   0.00000  Uiso   1.00
C233   C     0.01282   0.99012   0.69248   0.00000  Uiso   1.00
C234   C     0.11171   0.94078   0.79167   0.00000  Uiso   1.00
C235   C     0.26825   0.84874   0.96350   0.00000  Uiso   1.00
C236   C     0.80730   0.04564   0.41137   0.00000  Uiso   1.00
C237   C     0.70778   0.99740   0.31066   0.00000  Uiso   1.00
C238   C     0.66717   0.95139   0.23524   0.00000  Uiso   1.00
C239   C     0.56642   0.86556   0.08500   0.00000  Uiso   1.00
C240   C     0.89131   0.21762   0.51788   0.00000  Uiso   1.00
C241   C     0.86240   0.31397   0.50670   0.00000  Uiso   1.00
C242   C     0.89250   0.41276   0.52093   0.00000  Uiso   1.00
C243   C     0.92218   0.59395   0.53607   0.00000  Uiso   1.00
C244   C     0.97142   0.10482   0.55082   0.00000  Uiso   1.00
C245   C     0.02994   0.04393   0.64328   0.00000  Uiso   1.00
C246   C     0.12880   0.99466   0.74240   0.00000  Uiso   1.00
C247   C     0.16875   0.94301   0.81623   0.00000  Uiso   1.00
C248   C     0.86424   0.04787   0.43587   0.00000  Uiso   1.00
C249   C     0.82376   0.00193   0.36057   0.00000  Uiso   1.00
C250   C     0.72421   0.95362   0.25979   0.00000  Uiso   1.00
C251   C     0.94825   0.21985   0.54239   0.00000  Uiso   1.00
C252   C     0.97839   0.31851   0.55662   0.00000  Uiso   1.00
C253   C     0.94954   0.41500   0.54548   0.00000  Uiso   1.00
H254   H     0.82226   0.09898   0.48662   0.00000  Uiso   1.00
H255   H     0.96872   0.98840   0.67348   0.00000  Uiso   1.00
H256   H     0.66373   0.99569   0.29172   0.00000  Uiso   1.00
H257   H     0.81833   0.31222   0.48774   0.00000  Uiso   1.00
H258   H     0.15620   0.86675   0.89143   0.00000  Uiso   1.00
H259   H     0.51309   0.88215   0.08645   0.00000  Uiso   1.00
H260   H     0.83909   0.54961   0.49979   0.00000  Uiso   1.00
H261   H     0.01575   0.10656   0.56990   0.00000  Uiso   1.00
H262   H     0.17285   0.99639   0.76133   0.00000  Uiso   1.00
H263   H     0.86785   0.00368   0.37956   0.00000  Uiso   1.00
H264   H     0.02245   0.32020   0.57559   0.00000  Uiso   1.00
H265   H     0.32187   0.87323   0.96274   0.00000  Uiso   1.00
H266   H     0.67876   0.88864   0.15774   0.00000  Uiso   1.00
H267   H     0.00477   0.55609   0.57109   0.00000  Uiso   1.00
O268   O     0.33887   0.79735   0.05150   0.00000  Uiso   1.00
O269   O     0.49512   0.81758   0.99537   0.00000  Uiso   1.00
O270   O     0.92284   0.69327   0.53767   0.00000  Uiso   1.00
N271   N     0.17364   0.88341   0.88196   0.00000  Uiso   1.00
N272   N     0.57238   0.89780   0.12934   0.00000  Uiso   1.00
N273   N     0.87714   0.52182   0.51575   0.00000  Uiso   1.00
N274   N     0.26279   0.88690   0.92032   0.00000  Uiso   1.00
N275   N     0.66153   0.90129   0.16771   0.00000  Uiso   1.00
N276   N     0.96629   0.52531   0.55412   0.00000  Uiso   1.00
C277   C     0.63010   0.45798   0.98744   0.00000  Uiso   1.00
C278   C     0.52343   0.39961   0.87374   0.00000  Uiso   1.00
C279   C     0.48197   0.35282   0.79773   0.00000  Uiso   1.00
C280   C     0.38314   0.30322   0.69836   0.00000  Uiso   1.00
C281   C     0.22595   0.21294   0.52527   0.00000  Uiso   1.00
C282   C     0.69083   0.39815   0.08189   0.00000  Uiso   1.00
C283   C     0.79012   0.35015   0.18090   0.00000  Uiso   1.00
C284   C     0.83221   0.29935   0.25675   0.00000  Uiso   1.00
C285   C     0.93494   0.20687   0.40685   0.00000  Uiso   1.00
C286   C     0.60629   0.57284   0.97836   0.00000  Uiso   1.00
C287   C     0.63451   0.67173   0.99035   0.00000  Uiso   1.00
C288   C     0.60544   0.76801   0.97906   0.00000  Uiso   1.00
C289   C     0.57690   0.94676   0.96842   0.00000  Uiso   1.00
C290   C     0.52831   0.45311   0.94611   0.00000  Uiso   1.00
C291   C     0.46815   0.39696   0.85130   0.00000  Uiso   1.00
C292   C     0.36936   0.34743   0.75201   0.00000  Uiso   1.00
C293   C     0.32775   0.30058   0.67587   0.00000  Uiso   1.00
C294   C     0.63555   0.39550   0.05945   0.00000  Uiso   1.00
C295   C     0.67750   0.34477   0.13518   0.00000  Uiso   1.00
C296   C     0.77682   0.29670   0.23426   0.00000  Uiso   1.00
C297   C     0.55100   0.57020   0.95591   0.00000  Uiso   1.00
C298   C     0.52189   0.66634   0.94462   0.00000  Uiso   1.00
C299   C     0.55006   0.76536   0.95658   0.00000  Uiso   1.00
H300   H     0.67315   0.46004   0.00492   0.00000  Uiso   1.00
H301   H     0.52479   0.35487   0.81514   0.00000  Uiso   1.00
H302   H     0.83289   0.35222   0.19825   0.00000  Uiso   1.00
H303   H     0.67730   0.67375   0.00772   0.00000  Uiso   1.00
H304   H     0.33594   0.23708   0.59486   0.00000  Uiso   1.00
H305   H     0.98560   0.23152   0.40268   0.00000  Uiso   1.00
H306   H     0.65751   0.90952   0.00092   0.00000  Uiso   1.00
H307   H     0.48527   0.45106   0.92864   0.00000  Uiso   1.00
H308   H     0.32659   0.34540   0.73467   0.00000  Uiso   1.00
H309   H     0.63470   0.34274   0.11778   0.00000  Uiso   1.00
H310   H     0.47911   0.66427   0.92725   0.00000  Uiso   1.00
H311   H     0.17508   0.22938   0.52955   0.00000  Uiso   1.00
H312   H     0.82475   0.22382   0.33738   0.00000  Uiso   1.00
H313   H     0.49665   0.90182   0.93561   0.00000  Uiso   1.00
O314   O     0.15453   0.16385   0.43600   0.00000  Uiso   1.00
O315   O     0.00687   0.15658   0.49584   0.00000  Uiso   1.00
O316   O     0.57642   0.04609   0.96873   0.00000  Uiso   1.00
N317   N     0.31984   0.24978   0.60610   0.00000  Uiso   1.00
N318   N     0.92723   0.24457   0.36135   0.00000  Uiso   1.00
N319   N     0.62052   0.87844   0.98577   0.00000  Uiso   1.00
N320   N     0.23329   0.24564   0.57095   0.00000  Uiso   1.00
N321   N     0.84068   0.24043   0.32621   0.00000  Uiso   1.00
N322   N     0.53397   0.87430   0.95063   0.00000  Uiso   1.00
C323   C     0.13341   0.10072   0.99429   0.00000  Uiso   1.00
C324   C     0.02699   0.04170   0.88122   0.00000  Uiso   1.00
C325   C     0.98718   0.99012   0.80752   0.00000  Uiso   1.00
C326   C     0.88829   0.94078   0.70833   0.00000  Uiso   1.00
C327   C     0.73175   0.84874   0.53650   0.00000  Uiso   1.00
C328   C     0.19270   0.04564   0.08863   0.00000  Uiso   1.00
C329   C     0.29222   0.99740   0.18934   0.00000  Uiso   1.00
C330   C     0.33283   0.95139   0.26476   0.00000  Uiso   1.00
C331   C     0.43358   0.86556   0.41500   0.00000  Uiso   1.00
C332   C     0.10869   0.21762   0.98212   0.00000  Uiso   1.00
C333   C     0.13760   0.31397   0.99330   0.00000  Uiso   1.00
C334   C     0.10750   0.41276   0.97907   0.00000  Uiso   1.00
C335   C     0.07782   0.59395   0.96393   0.00000  Uiso   1.00
C336   C     0.02858   0.10482   0.94918   0.00000  Uiso   1.00
C337   C     0.97006   0.04393   0.85672   0.00000  Uiso   1.00
C338   C     0.87120   0.99466   0.75760   0.00000  Uiso   1.00
C339   C     0.83125   0.94301   0.68377   0.00000  Uiso   1.00
C340   C     0.13576   0.04787   0.06413   0.00000  Uiso   1.00
C341   C     0.17624   0.00193   0.13943   0.00000  Uiso   1.00
C342   C     0.27579   0.95362   0.24021   0.00000  Uiso   1.00
C343   C     0.05175   0.21985   0.95761   0.00000  Uiso   1.00
C344   C     0.02161   0.31851   0.94338   0.00000  Uiso   1.00
C345   C     0.05046   0.41500   0.95452   0.00000  Uiso   1.00
H346   H     0.17774   0.09898   0.01338   0.00000  Uiso   1.00
H347   H     0.03128   0.98840   0.82652   0.00000  Uiso   1.00
H348   H     0.33627   0.99569   0.20828   0.00000  Uiso   1.00
H349   H     0.18167   0.31222   0.01226   0.00000  Uiso   1.00
H350   H     0.84380   0.86675   0.60857   0.00000  Uiso   1.00
H351   H     0.48691   0.88215   0.41355   0.00000  Uiso   1.00
H352   H     0.16091   0.54961   0.00021   0.00000  Uiso   1.00
H353   H     0.98425   0.10656   0.93010   0.00000  Uiso   1.00
H354   H     0.82715   0.99639   0.73867   0.00000  Uiso   1.00
H355   H     0.13215   0.00368   0.12044   0.00000  Uiso   1.00
H356   H     0.97755   0.32020   0.92441   0.00000  Uiso   1.00
H357   H     0.67813   0.87323   0.53726   0.00000  Uiso   1.00
H358   H     0.32124   0.88864   0.34226   0.00000  Uiso   1.00
H359   H     0.99523   0.55609   0.92891   0.00000  Uiso   1.00
O360   O     0.66113   0.79735   0.44850   0.00000  Uiso   1.00
O361   O     0.50488   0.81758   0.50463   0.00000  Uiso   1.00
O362   O     0.07716   0.69327   0.96233   0.00000  Uiso   1.00
N363   N     0.82636   0.88341   0.61804   0.00000  Uiso   1.00
N364   N     0.42762   0.89780   0.37066   0.00000  Uiso   1.00
N365   N     0.12286   0.52182   0.98425   0.00000  Uiso   1.00
N366   N     0.73721   0.88690   0.57968   0.00000  Uiso   1.00
N367   N     0.33847   0.90129   0.33229   0.00000  Uiso   1.00
N368   N     0.03371   0.52531   0.94588   0.00000  Uiso   1.00
