data_job_04499
_audit_creation_date              2018-12-19
_audit_creation_method            'Materials Studio'
_symmetry_space_group_name_H-M    'P1'
_symmetry_Int_Tables_number       1
_symmetry_cell_setting            triclinic
loop_
_symmetry_equiv_pos_as_xyz
  x,y,z
_cell_length_a                    14.5125
_cell_length_b                    14.5125
_cell_length_c                    19.7149
_cell_angle_alpha                 90.0000
_cell_angle_beta                  90.0000
_cell_angle_gamma                 90.0000
loop_
_atom_site_label
_atom_site_type_symbol
_atom_site_fract_x
_atom_site_fract_y
_atom_site_fract_z
_atom_site_U_iso_or_equiv
_atom_site_adp_type
_atom_site_occupancy
C1     C     0.21367   0.80744   0.10505   0.00000  Uiso   1.00
C2     C     0.23157   0.83915   0.03250   0.00000  Uiso   1.00
C3     C     0.23994   0.78218   0.97630   0.00000  Uiso   1.00
C4     C     0.25628   0.82455   0.91432   0.00000  Uiso   1.00
C5     C     0.28294   0.85920   0.80250   0.00000  Uiso   1.00
C6     C     0.29226   0.84651   0.14759   0.00000  Uiso   1.00
C7     C     0.35166   0.79572   0.18816   0.00000  Uiso   1.00
C8     C     0.41908   0.84429   0.22306   0.00000  Uiso   1.00
C9     C     0.53994   0.89037   0.28996   0.00000  Uiso   1.00
C10    C     0.12686   0.85765   0.12813   0.00000  Uiso   1.00
C11    C     0.04720   0.81625   0.15236   0.00000  Uiso   1.00
C12    C     0.97537   0.87421   0.17091   0.00000  Uiso   1.00
C13    C     0.83941   0.93759   0.20759   0.00000  Uiso   1.00
C14    C     0.22778   0.98400   0.09491   0.00000  Uiso   1.00
C15    C     0.23923   0.93505   0.02699   0.00000  Uiso   1.00
C16    C     0.25555   0.97752   0.96508   0.00000  Uiso   1.00
C17    C     0.26395   0.92062   0.90880   0.00000  Uiso   1.00
C18    C     0.29993   0.94240   0.14208   0.00000  Uiso   1.00
C19    C     0.36727   0.99107   0.17693   0.00000  Uiso   1.00
C20    C     0.42676   0.94037   0.21754   0.00000  Uiso   1.00
C21    C     0.13452   0.95356   0.12262   0.00000  Uiso   1.00
C22    C     0.06280   0.01159   0.14113   0.00000  Uiso   1.00
C23    C     0.98304   0.97028   0.16539   0.00000  Uiso   1.00
H24    H     0.20771   0.73277   0.10935   0.00000  Uiso   1.00
H25    H     0.23402   0.70796   0.98059   0.00000  Uiso   1.00
H26    H     0.34571   0.72151   0.19242   0.00000  Uiso   1.00
H27    H     0.04129   0.74203   0.15662   0.00000  Uiso   1.00
H28    H     0.26660   0.72274   0.83540   0.00000  Uiso   1.00
H29    H     0.50209   0.75131   0.28208   0.00000  Uiso   1.00
H30    H     0.86016   0.79458   0.20660   0.00000  Uiso   1.00
H31    H     0.23375   0.05867   0.09062   0.00000  Uiso   1.00
H32    H     0.26148   0.05174   0.96083   0.00000  Uiso   1.00
H33    H     0.37318   0.06528   0.17266   0.00000  Uiso   1.00
H34    H     0.06876   0.08580   0.13686   0.00000  Uiso   1.00
H35    H     0.28889   0.00176   0.81937   0.00000  Uiso   1.00
H36    H     0.52438   0.03033   0.26605   0.00000  Uiso   1.00
H37    H     0.88245   0.07361   0.19056   0.00000  Uiso   1.00
O38    O     0.29555   0.85181   0.74235   0.00000  Uiso   1.00
O39    O     0.60449   0.88929   0.32837   0.00000  Uiso   1.00
O40    O     0.76230   0.94607   0.22934   0.00000  Uiso   1.00
N41    N     0.26802   0.78936   0.84944   0.00000  Uiso   1.00
N42    N     0.48820   0.81607   0.26704   0.00000  Uiso   1.00
N43    N     0.88806   0.85653   0.19650   0.00000  Uiso   1.00
N44    N     0.28001   0.93950   0.84081   0.00000  Uiso   1.00
N45    N     0.50019   0.96620   0.25842   0.00000  Uiso   1.00
N46    N     0.90005   0.00667   0.18787   0.00000  Uiso   1.00
C47    C     0.78633   0.19256   0.60505   0.00000  Uiso   1.00
C48    C     0.76843   0.16085   0.53250   0.00000  Uiso   1.00
C49    C     0.76006   0.21782   0.47630   0.00000  Uiso   1.00
C50    C     0.74372   0.17545   0.41432   0.00000  Uiso   1.00
C51    C     0.71706   0.14080   0.30250   0.00000  Uiso   1.00
C52    C     0.70774   0.15349   0.64759   0.00000  Uiso   1.00
C53    C     0.64834   0.20428   0.68816   0.00000  Uiso   1.00
C54    C     0.58092   0.15571   0.72306   0.00000  Uiso   1.00
C55    C     0.46006   0.10963   0.78996   0.00000  Uiso   1.00
C56    C     0.87314   0.14235   0.62813   0.00000  Uiso   1.00
C57    C     0.95280   0.18375   0.65236   0.00000  Uiso   1.00
C58    C     0.02463   0.12579   0.67091   0.00000  Uiso   1.00
C59    C     0.16059   0.06241   0.70759   0.00000  Uiso   1.00
C60    C     0.77222   0.01600   0.59491   0.00000  Uiso   1.00
C61    C     0.76077   0.06495   0.52699   0.00000  Uiso   1.00
C62    C     0.74445   0.02248   0.46508   0.00000  Uiso   1.00
C63    C     0.73605   0.07938   0.40880   0.00000  Uiso   1.00
C64    C     0.70007   0.05760   0.64208   0.00000  Uiso   1.00
C65    C     0.63273   0.00893   0.67693   0.00000  Uiso   1.00
C66    C     0.57324   0.05963   0.71754   0.00000  Uiso   1.00
C67    C     0.86548   0.04644   0.62262   0.00000  Uiso   1.00
C68    C     0.93720   0.98841   0.64113   0.00000  Uiso   1.00
C69    C     0.01696   0.02972   0.66539   0.00000  Uiso   1.00
H70    H     0.79229   0.26723   0.60935   0.00000  Uiso   1.00
H71    H     0.76598   0.29204   0.48059   0.00000  Uiso   1.00
H72    H     0.65429   0.27849   0.69242   0.00000  Uiso   1.00
H73    H     0.95871   0.25797   0.65662   0.00000  Uiso   1.00
H74    H     0.73340   0.27726   0.33540   0.00000  Uiso   1.00
H75    H     0.49791   0.24869   0.78208   0.00000  Uiso   1.00
H76    H     0.13984   0.20542   0.70660   0.00000  Uiso   1.00
H77    H     0.76625   0.94133   0.59062   0.00000  Uiso   1.00
H78    H     0.73852   0.94826   0.46083   0.00000  Uiso   1.00
H79    H     0.62682   0.93472   0.67266   0.00000  Uiso   1.00
H80    H     0.93124   0.91420   0.63686   0.00000  Uiso   1.00
H81    H     0.71111   0.99824   0.31937   0.00000  Uiso   1.00
H82    H     0.47562   0.96967   0.76605   0.00000  Uiso   1.00
H83    H     0.11755   0.92639   0.69056   0.00000  Uiso   1.00
O84    O     0.70445   0.14819   0.24235   0.00000  Uiso   1.00
O85    O     0.39551   0.11071   0.82837   0.00000  Uiso   1.00
O86    O     0.23770   0.05393   0.72934   0.00000  Uiso   1.00
N87    N     0.73198   0.21064   0.34944   0.00000  Uiso   1.00
N88    N     0.51180   0.18393   0.76704   0.00000  Uiso   1.00
N89    N     0.11194   0.14347   0.69650   0.00000  Uiso   1.00
N90    N     0.71999   0.06050   0.34081   0.00000  Uiso   1.00
N91    N     0.49981   0.03380   0.75842   0.00000  Uiso   1.00
N92    N     0.09995   0.99333   0.68787   0.00000  Uiso   1.00
C93    C     0.69256   0.71367   0.85505   0.00000  Uiso   1.00
C94    C     0.66085   0.73157   0.78250   0.00000  Uiso   1.00
C95    C     0.71782   0.73994   0.72630   0.00000  Uiso   1.00
C96    C     0.67545   0.75628   0.66432   0.00000  Uiso   1.00
C97    C     0.64080   0.78294   0.55250   0.00000  Uiso   1.00
C98    C     0.65349   0.79226   0.89759   0.00000  Uiso   1.00
C99    C     0.70428   0.85166   0.93816   0.00000  Uiso   1.00
C100   C     0.65571   0.91908   0.97306   0.00000  Uiso   1.00
C101   C     0.60963   0.03994   0.03996   0.00000  Uiso   1.00
C102   C     0.64235   0.62686   0.87813   0.00000  Uiso   1.00
C103   C     0.68375   0.54720   0.90236   0.00000  Uiso   1.00
C104   C     0.62579   0.47537   0.92091   0.00000  Uiso   1.00
C105   C     0.56241   0.33941   0.95759   0.00000  Uiso   1.00
C106   C     0.51600   0.72778   0.84491   0.00000  Uiso   1.00
C107   C     0.56495   0.73923   0.77699   0.00000  Uiso   1.00
C108   C     0.52248   0.75555   0.71508   0.00000  Uiso   1.00
C109   C     0.57938   0.76395   0.65880   0.00000  Uiso   1.00
C110   C     0.55760   0.79993   0.89208   0.00000  Uiso   1.00
C111   C     0.50893   0.86727   0.92693   0.00000  Uiso   1.00
C112   C     0.55963   0.92676   0.96754   0.00000  Uiso   1.00
C113   C     0.54644   0.63452   0.87262   0.00000  Uiso   1.00
C114   C     0.48841   0.56280   0.89113   0.00000  Uiso   1.00
C115   C     0.52972   0.48304   0.91539   0.00000  Uiso   1.00
H116   H     0.76723   0.70771   0.85935   0.00000  Uiso   1.00
H117   H     0.79204   0.73402   0.73059   0.00000  Uiso   1.00
H118   H     0.77849   0.84571   0.94242   0.00000  Uiso   1.00
H119   H     0.75797   0.54129   0.90662   0.00000  Uiso   1.00
H120   H     0.77726   0.76660   0.58540   0.00000  Uiso   1.00
H121   H     0.74869   0.00209   0.03208   0.00000  Uiso   1.00
H122   H     0.70542   0.36016   0.95660   0.00000  Uiso   1.00
H123   H     0.44133   0.73375   0.84062   0.00000  Uiso   1.00
H124   H     0.44826   0.76148   0.71083   0.00000  Uiso   1.00
H125   H     0.43472   0.87318   0.92266   0.00000  Uiso   1.00
H126   H     0.41420   0.56876   0.88686   0.00000  Uiso   1.00
H127   H     0.49824   0.78889   0.56937   0.00000  Uiso   1.00
H128   H     0.46967   0.02438   0.01605   0.00000  Uiso   1.00
H129   H     0.42639   0.38245   0.94056   0.00000  Uiso   1.00
O130   O     0.64819   0.79555   0.49235   0.00000  Uiso   1.00
O131   O     0.61071   0.10449   0.07837   0.00000  Uiso   1.00
O132   O     0.55393   0.26230   0.97934   0.00000  Uiso   1.00
N133   N     0.71064   0.76802   0.59944   0.00000  Uiso   1.00
N134   N     0.68393   0.98820   0.01704   0.00000  Uiso   1.00
N135   N     0.64347   0.38806   0.94650   0.00000  Uiso   1.00
N136   N     0.56050   0.78001   0.59081   0.00000  Uiso   1.00
N137   N     0.53380   0.00019   0.00842   0.00000  Uiso   1.00
N138   N     0.49333   0.40005   0.93787   0.00000  Uiso   1.00
C139   C     0.30744   0.28633   0.35505   0.00000  Uiso   1.00
C140   C     0.33915   0.26843   0.28250   0.00000  Uiso   1.00
C141   C     0.28218   0.26006   0.22630   0.00000  Uiso   1.00
C142   C     0.32455   0.24372   0.16432   0.00000  Uiso   1.00
C143   C     0.35920   0.21706   0.05250   0.00000  Uiso   1.00
C144   C     0.34651   0.20774   0.39759   0.00000  Uiso   1.00
C145   C     0.29572   0.14834   0.43816   0.00000  Uiso   1.00
C146   C     0.34429   0.08092   0.47306   0.00000  Uiso   1.00
C147   C     0.39037   0.96006   0.53996   0.00000  Uiso   1.00
C148   C     0.35765   0.37314   0.37813   0.00000  Uiso   1.00
C149   C     0.31625   0.45280   0.40236   0.00000  Uiso   1.00
C150   C     0.37421   0.52463   0.42091   0.00000  Uiso   1.00
C151   C     0.43759   0.66059   0.45759   0.00000  Uiso   1.00
C152   C     0.48400   0.27222   0.34491   0.00000  Uiso   1.00
C153   C     0.43505   0.26077   0.27699   0.00000  Uiso   1.00
C154   C     0.47752   0.24445   0.21508   0.00000  Uiso   1.00
C155   C     0.42062   0.23605   0.15880   0.00000  Uiso   1.00
C156   C     0.44240   0.20007   0.39208   0.00000  Uiso   1.00
C157   C     0.49107   0.13273   0.42693   0.00000  Uiso   1.00
C158   C     0.44037   0.07324   0.46754   0.00000  Uiso   1.00
C159   C     0.45356   0.36548   0.37262   0.00000  Uiso   1.00
C160   C     0.51159   0.43720   0.39113   0.00000  Uiso   1.00
C161   C     0.47028   0.51696   0.41539   0.00000  Uiso   1.00
H162   H     0.23277   0.29229   0.35935   0.00000  Uiso   1.00
H163   H     0.20796   0.26598   0.23059   0.00000  Uiso   1.00
H164   H     0.22151   0.15429   0.44242   0.00000  Uiso   1.00
H165   H     0.24203   0.45871   0.40662   0.00000  Uiso   1.00
H166   H     0.22274   0.23340   0.08540   0.00000  Uiso   1.00
H167   H     0.25131   0.99791   0.53208   0.00000  Uiso   1.00
H168   H     0.29458   0.63984   0.45660   0.00000  Uiso   1.00
H169   H     0.55867   0.26625   0.34062   0.00000  Uiso   1.00
H170   H     0.55174   0.23852   0.21083   0.00000  Uiso   1.00
H171   H     0.56528   0.12682   0.42266   0.00000  Uiso   1.00
H172   H     0.58580   0.43124   0.38686   0.00000  Uiso   1.00
H173   H     0.50176   0.21111   0.06937   0.00000  Uiso   1.00
H174   H     0.53033   0.97562   0.51605   0.00000  Uiso   1.00
H175   H     0.57361   0.61755   0.44056   0.00000  Uiso   1.00
O176   O     0.35181   0.20445   0.99235   0.00000  Uiso   1.00
O177   O     0.38929   0.89551   0.57837   0.00000  Uiso   1.00
O178   O     0.44607   0.73770   0.47934   0.00000  Uiso   1.00
N179   N     0.28936   0.23198   0.09944   0.00000  Uiso   1.00
N180   N     0.31607   0.01180   0.51704   0.00000  Uiso   1.00
N181   N     0.35653   0.61194   0.44650   0.00000  Uiso   1.00
N182   N     0.43950   0.21999   0.09081   0.00000  Uiso   1.00
N183   N     0.46620   0.99981   0.50842   0.00000  Uiso   1.00
N184   N     0.50667   0.59995   0.43787   0.00000  Uiso   1.00
C185   C     0.28633   0.30744   0.64495   0.00000  Uiso   1.00
C186   C     0.26843   0.33915   0.71750   0.00000  Uiso   1.00
C187   C     0.26006   0.28218   0.77370   0.00000  Uiso   1.00
C188   C     0.24372   0.32455   0.83568   0.00000  Uiso   1.00
C189   C     0.21706   0.35920   0.94750   0.00000  Uiso   1.00
C190   C     0.20774   0.34651   0.60241   0.00000  Uiso   1.00
C191   C     0.14834   0.29572   0.56184   0.00000  Uiso   1.00
C192   C     0.08092   0.34429   0.52694   0.00000  Uiso   1.00
C193   C     0.96006   0.39037   0.46004   0.00000  Uiso   1.00
C194   C     0.37314   0.35765   0.62187   0.00000  Uiso   1.00
C195   C     0.45280   0.31625   0.59764   0.00000  Uiso   1.00
C196   C     0.52463   0.37421   0.57909   0.00000  Uiso   1.00
C197   C     0.66059   0.43759   0.54241   0.00000  Uiso   1.00
C198   C     0.27222   0.48400   0.65509   0.00000  Uiso   1.00
C199   C     0.26077   0.43505   0.72301   0.00000  Uiso   1.00
C200   C     0.24445   0.47752   0.78492   0.00000  Uiso   1.00
C201   C     0.23605   0.42062   0.84120   0.00000  Uiso   1.00
C202   C     0.20007   0.44240   0.60792   0.00000  Uiso   1.00
C203   C     0.13273   0.49107   0.57307   0.00000  Uiso   1.00
C204   C     0.07324   0.44037   0.53246   0.00000  Uiso   1.00
C205   C     0.36548   0.45356   0.62738   0.00000  Uiso   1.00
C206   C     0.43720   0.51159   0.60887   0.00000  Uiso   1.00
C207   C     0.51696   0.47028   0.58461   0.00000  Uiso   1.00
H208   H     0.29229   0.23277   0.64065   0.00000  Uiso   1.00
H209   H     0.26598   0.20796   0.76941   0.00000  Uiso   1.00
H210   H     0.15429   0.22151   0.55758   0.00000  Uiso   1.00
H211   H     0.45871   0.24203   0.59338   0.00000  Uiso   1.00
H212   H     0.23340   0.22274   0.91460   0.00000  Uiso   1.00
H213   H     0.99791   0.25131   0.46792   0.00000  Uiso   1.00
H214   H     0.63984   0.29458   0.54340   0.00000  Uiso   1.00
H215   H     0.26625   0.55867   0.65938   0.00000  Uiso   1.00
H216   H     0.23852   0.55174   0.78917   0.00000  Uiso   1.00
H217   H     0.12682   0.56528   0.57734   0.00000  Uiso   1.00
H218   H     0.43124   0.58580   0.61314   0.00000  Uiso   1.00
H219   H     0.21111   0.50176   0.93063   0.00000  Uiso   1.00
H220   H     0.97562   0.53033   0.48395   0.00000  Uiso   1.00
H221   H     0.61755   0.57361   0.55944   0.00000  Uiso   1.00
O222   O     0.20445   0.35181   0.00765   0.00000  Uiso   1.00
O223   O     0.89551   0.38929   0.42163   0.00000  Uiso   1.00
O224   O     0.73770   0.44607   0.52066   0.00000  Uiso   1.00
N225   N     0.23198   0.28936   0.90056   0.00000  Uiso   1.00
N226   N     0.01180   0.31607   0.48296   0.00000  Uiso   1.00
N227   N     0.61194   0.35653   0.55350   0.00000  Uiso   1.00
N228   N     0.21999   0.43950   0.90919   0.00000  Uiso   1.00
N229   N     0.99981   0.46620   0.49158   0.00000  Uiso   1.00
N230   N     0.59995   0.50667   0.56213   0.00000  Uiso   1.00
C231   C     0.71367   0.69256   0.14495   0.00000  Uiso   1.00
C232   C     0.73157   0.66085   0.21750   0.00000  Uiso   1.00
C233   C     0.73994   0.71782   0.27370   0.00000  Uiso   1.00
C234   C     0.75628   0.67545   0.33568   0.00000  Uiso   1.00
C235   C     0.78294   0.64080   0.44750   0.00000  Uiso   1.00
C236   C     0.79226   0.65349   0.10241   0.00000  Uiso   1.00
C237   C     0.85166   0.70428   0.06184   0.00000  Uiso   1.00
C238   C     0.91908   0.65571   0.02694   0.00000  Uiso   1.00
C239   C     0.03994   0.60963   0.96004   0.00000  Uiso   1.00
C240   C     0.62686   0.64235   0.12187   0.00000  Uiso   1.00
C241   C     0.54720   0.68375   0.09764   0.00000  Uiso   1.00
C242   C     0.47537   0.62579   0.07909   0.00000  Uiso   1.00
C243   C     0.33941   0.56241   0.04241   0.00000  Uiso   1.00
C244   C     0.72778   0.51600   0.15509   0.00000  Uiso   1.00
C245   C     0.73923   0.56495   0.22301   0.00000  Uiso   1.00
C246   C     0.75555   0.52248   0.28492   0.00000  Uiso   1.00
C247   C     0.76395   0.57938   0.34120   0.00000  Uiso   1.00
C248   C     0.79993   0.55760   0.10792   0.00000  Uiso   1.00
C249   C     0.86727   0.50893   0.07307   0.00000  Uiso   1.00
C250   C     0.92676   0.55963   0.03246   0.00000  Uiso   1.00
C251   C     0.63452   0.54644   0.12738   0.00000  Uiso   1.00
C252   C     0.56280   0.48841   0.10887   0.00000  Uiso   1.00
C253   C     0.48304   0.52972   0.08461   0.00000  Uiso   1.00
H254   H     0.70771   0.76723   0.14065   0.00000  Uiso   1.00
H255   H     0.73402   0.79204   0.26941   0.00000  Uiso   1.00
H256   H     0.84571   0.77849   0.05758   0.00000  Uiso   1.00
H257   H     0.54129   0.75797   0.09338   0.00000  Uiso   1.00
H258   H     0.76660   0.77726   0.41460   0.00000  Uiso   1.00
H259   H     0.00209   0.74869   0.96792   0.00000  Uiso   1.00
H260   H     0.36016   0.70542   0.04340   0.00000  Uiso   1.00
H261   H     0.73375   0.44133   0.15938   0.00000  Uiso   1.00
H262   H     0.76148   0.44826   0.28917   0.00000  Uiso   1.00
H263   H     0.87318   0.43472   0.07734   0.00000  Uiso   1.00
H264   H     0.56876   0.41420   0.11314   0.00000  Uiso   1.00
H265   H     0.78889   0.49824   0.43063   0.00000  Uiso   1.00
H266   H     0.02438   0.46967   0.98395   0.00000  Uiso   1.00
H267   H     0.38245   0.42639   0.05944   0.00000  Uiso   1.00
O268   O     0.79555   0.64819   0.50765   0.00000  Uiso   1.00
O269   O     0.10449   0.61071   0.92163   0.00000  Uiso   1.00
O270   O     0.26230   0.55393   0.02066   0.00000  Uiso   1.00
N271   N     0.76802   0.71064   0.40056   0.00000  Uiso   1.00
N272   N     0.98820   0.68393   0.98296   0.00000  Uiso   1.00
N273   N     0.38806   0.64347   0.05350   0.00000  Uiso   1.00
N274   N     0.78001   0.56050   0.40919   0.00000  Uiso   1.00
N275   N     0.00019   0.53380   0.99158   0.00000  Uiso   1.00
N276   N     0.40005   0.49333   0.06213   0.00000  Uiso   1.00
C277   C     0.80744   0.21367   0.89495   0.00000  Uiso   1.00
C278   C     0.83915   0.23157   0.96750   0.00000  Uiso   1.00
C279   C     0.78218   0.23994   0.02370   0.00000  Uiso   1.00
C280   C     0.82455   0.25628   0.08568   0.00000  Uiso   1.00
C281   C     0.85920   0.28294   0.19750   0.00000  Uiso   1.00
C282   C     0.84651   0.29226   0.85241   0.00000  Uiso   1.00
C283   C     0.79572   0.35166   0.81184   0.00000  Uiso   1.00
C284   C     0.84429   0.41908   0.77694   0.00000  Uiso   1.00
C285   C     0.89037   0.53994   0.71004   0.00000  Uiso   1.00
C286   C     0.85765   0.12686   0.87187   0.00000  Uiso   1.00
C287   C     0.81625   0.04720   0.84764   0.00000  Uiso   1.00
C288   C     0.87421   0.97537   0.82909   0.00000  Uiso   1.00
C289   C     0.93759   0.83941   0.79241   0.00000  Uiso   1.00
C290   C     0.98400   0.22778   0.90509   0.00000  Uiso   1.00
C291   C     0.93505   0.23923   0.97301   0.00000  Uiso   1.00
C292   C     0.97752   0.25555   0.03492   0.00000  Uiso   1.00
C293   C     0.92062   0.26395   0.09120   0.00000  Uiso   1.00
C294   C     0.94240   0.29993   0.85792   0.00000  Uiso   1.00
C295   C     0.99107   0.36727   0.82307   0.00000  Uiso   1.00
C296   C     0.94037   0.42676   0.78246   0.00000  Uiso   1.00
C297   C     0.95356   0.13452   0.87738   0.00000  Uiso   1.00
C298   C     0.01159   0.06280   0.85887   0.00000  Uiso   1.00
C299   C     0.97028   0.98304   0.83461   0.00000  Uiso   1.00
H300   H     0.73277   0.20771   0.89065   0.00000  Uiso   1.00
H301   H     0.70796   0.23402   0.01941   0.00000  Uiso   1.00
H302   H     0.72151   0.34571   0.80758   0.00000  Uiso   1.00
H303   H     0.74203   0.04129   0.84338   0.00000  Uiso   1.00
H304   H     0.72274   0.26660   0.16460   0.00000  Uiso   1.00
H305   H     0.75131   0.50209   0.71792   0.00000  Uiso   1.00
H306   H     0.79458   0.86016   0.79340   0.00000  Uiso   1.00
H307   H     0.05867   0.23375   0.90938   0.00000  Uiso   1.00
H308   H     0.05174   0.26148   0.03917   0.00000  Uiso   1.00
H309   H     0.06528   0.37318   0.82734   0.00000  Uiso   1.00
H310   H     0.08580   0.06876   0.86314   0.00000  Uiso   1.00
H311   H     0.00176   0.28889   0.18063   0.00000  Uiso   1.00
H312   H     0.03033   0.52438   0.73395   0.00000  Uiso   1.00
H313   H     0.07361   0.88245   0.80944   0.00000  Uiso   1.00
O314   O     0.85181   0.29555   0.25765   0.00000  Uiso   1.00
O315   O     0.88929   0.60449   0.67163   0.00000  Uiso   1.00
O316   O     0.94607   0.76230   0.77066   0.00000  Uiso   1.00
N317   N     0.78936   0.26802   0.15056   0.00000  Uiso   1.00
N318   N     0.81607   0.48820   0.73296   0.00000  Uiso   1.00
N319   N     0.85653   0.88806   0.80350   0.00000  Uiso   1.00
N320   N     0.93950   0.28001   0.15919   0.00000  Uiso   1.00
N321   N     0.96620   0.50019   0.74158   0.00000  Uiso   1.00
N322   N     0.00667   0.90005   0.81213   0.00000  Uiso   1.00
C323   C     0.19256   0.78633   0.39495   0.00000  Uiso   1.00
C324   C     0.16085   0.76843   0.46750   0.00000  Uiso   1.00
C325   C     0.21782   0.76006   0.52370   0.00000  Uiso   1.00
C326   C     0.17545   0.74372   0.58568   0.00000  Uiso   1.00
C327   C     0.14080   0.71706   0.69750   0.00000  Uiso   1.00
C328   C     0.15349   0.70774   0.35241   0.00000  Uiso   1.00
C329   C     0.20428   0.64834   0.31184   0.00000  Uiso   1.00
C330   C     0.15571   0.58092   0.27694   0.00000  Uiso   1.00
C331   C     0.10963   0.46006   0.21004   0.00000  Uiso   1.00
C332   C     0.14235   0.87314   0.37187   0.00000  Uiso   1.00
C333   C     0.18375   0.95280   0.34764   0.00000  Uiso   1.00
C334   C     0.12579   0.02463   0.32909   0.00000  Uiso   1.00
C335   C     0.06241   0.16059   0.29241   0.00000  Uiso   1.00
C336   C     0.01600   0.77222   0.40509   0.00000  Uiso   1.00
C337   C     0.06495   0.76077   0.47301   0.00000  Uiso   1.00
C338   C     0.02248   0.74445   0.53492   0.00000  Uiso   1.00
C339   C     0.07938   0.73605   0.59120   0.00000  Uiso   1.00
C340   C     0.05760   0.70007   0.35792   0.00000  Uiso   1.00
C341   C     0.00893   0.63273   0.32307   0.00000  Uiso   1.00
C342   C     0.05963   0.57324   0.28246   0.00000  Uiso   1.00
C343   C     0.04644   0.86548   0.37738   0.00000  Uiso   1.00
C344   C     0.98841   0.93720   0.35887   0.00000  Uiso   1.00
C345   C     0.02972   0.01696   0.33461   0.00000  Uiso   1.00
H346   H     0.26723   0.79229   0.39065   0.00000  Uiso   1.00
H347   H     0.29204   0.76598   0.51941   0.00000  Uiso   1.00
H348   H     0.27849   0.65429   0.30758   0.00000  Uiso   1.00
H349   H     0.25797   0.95871   0.34338   0.00000  Uiso   1.00
H350   H     0.27726   0.73340   0.66460   0.00000  Uiso   1.00
H351   H     0.24869   0.49791   0.21792   0.00000  Uiso   1.00
H352   H     0.20542   0.13984   0.29340   0.00000  Uiso   1.00
H353   H     0.94133   0.76625   0.40938   0.00000  Uiso   1.00
H354   H     0.94826   0.73852   0.53917   0.00000  Uiso   1.00
H355   H     0.93472   0.62682   0.32734   0.00000  Uiso   1.00
H356   H     0.91420   0.93124   0.36314   0.00000  Uiso   1.00
H357   H     0.99824   0.71111   0.68063   0.00000  Uiso   1.00
H358   H     0.96967   0.47562   0.23395   0.00000  Uiso   1.00
H359   H     0.92639   0.11755   0.30944   0.00000  Uiso   1.00
O360   O     0.14819   0.70445   0.75765   0.00000  Uiso   1.00
O361   O     0.11071   0.39551   0.17163   0.00000  Uiso   1.00
O362   O     0.05393   0.23770   0.27066   0.00000  Uiso   1.00
N363   N     0.21064   0.73198   0.65056   0.00000  Uiso   1.00
N364   N     0.18393   0.51180   0.23296   0.00000  Uiso   1.00
N365   N     0.14347   0.11194   0.30350   0.00000  Uiso   1.00
N366   N     0.06050   0.71999   0.65919   0.00000  Uiso   1.00
N367   N     0.03380   0.49981   0.24158   0.00000  Uiso   1.00
N368   N     0.99333   0.09995   0.31213   0.00000  Uiso   1.00
