data_job_02316
_audit_creation_date              2018-12-19
_audit_creation_method            'Materials Studio'
_symmetry_space_group_name_H-M    'P1'
_symmetry_Int_Tables_number       1
_symmetry_cell_setting            triclinic
loop_
_symmetry_equiv_pos_as_xyz
  x,y,z
_cell_length_a                    14.4415
_cell_length_b                    20.0780
_cell_length_c                    27.8946
_cell_angle_alpha                 90.0000
_cell_angle_beta                  53.8491
_cell_angle_gamma                 90.0000
loop_
_atom_site_label
_atom_site_type_symbol
_atom_site_fract_x
_atom_site_fract_y
_atom_site_fract_z
_atom_site_U_iso_or_equiv
_atom_site_adp_type
_atom_site_occupancy
C1     C     0.39785   0.57374   0.35105   0.00000  Uiso   1.00
C2     C     0.40228   0.50420   0.37161   0.00000  Uiso   1.00
C3     C     0.41858   0.44523   0.34159   0.00000  Uiso   1.00
C4     C     0.41993   0.38678   0.36776   0.00000  Uiso   1.00
C5     C     0.42895   0.27872   0.39144   0.00000  Uiso   1.00
C6     C     0.28321   0.60348   0.40135   0.00000  Uiso   1.00
C7     C     0.19942   0.62800   0.39634   0.00000  Uiso   1.00
C8     C     0.10055   0.65314   0.44756   0.00000  Uiso   1.00
C9     C     0.92476   0.69925   0.51740   0.00000  Uiso   1.00
C10    C     0.48982   0.61425   0.34865   0.00000  Uiso   1.00
C11    C     0.57972   0.64784   0.29932   0.00000  Uiso   1.00
C12    C     0.65478   0.68206   0.30616   0.00000  Uiso   1.00
C13    C     0.79978   0.74490   0.29418   0.00000  Uiso   1.00
C14    C     0.37127   0.57480   0.45093   0.00000  Uiso   1.00
C15    C     0.38784   0.50478   0.42586   0.00000  Uiso   1.00
C16    C     0.38917   0.44640   0.45208   0.00000  Uiso   1.00
C17    C     0.40547   0.38736   0.42211   0.00000  Uiso   1.00
C18    C     0.26878   0.60406   0.45560   0.00000  Uiso   1.00
C19    C     0.17001   0.62917   0.50684   0.00000  Uiso   1.00
C20    C     0.08608   0.65371   0.50190   0.00000  Uiso   1.00
C21    C     0.47539   0.61483   0.40289   0.00000  Uiso   1.00
C22    C     0.55032   0.64901   0.40982   0.00000  Uiso   1.00
C23    C     0.64032   0.68264   0.36051   0.00000  Uiso   1.00
H24    H     0.40908   0.57329   0.30882   0.00000  Uiso   1.00
H25    H     0.42973   0.44481   0.29961   0.00000  Uiso   1.00
H26    H     0.21062   0.62755   0.35435   0.00000  Uiso   1.00
H27    H     0.59086   0.64739   0.25735   0.00000  Uiso   1.00
H28    H     0.44623   0.30261   0.31333   0.00000  Uiso   1.00
H29    H     0.98422   0.68796   0.42875   0.00000  Uiso   1.00
H30    H     0.78605   0.72979   0.22420   0.00000  Uiso   1.00
H31    H     0.36003   0.57524   0.49316   0.00000  Uiso   1.00
H32    H     0.37800   0.44686   0.49406   0.00000  Uiso   1.00
H33    H     0.15888   0.62961   0.54881   0.00000  Uiso   1.00
H34    H     0.53912   0.64944   0.45180   0.00000  Uiso   1.00
H35    H     0.40423   0.30428   0.47116   0.00000  Uiso   1.00
H36    H     0.94223   0.68963   0.58658   0.00000  Uiso   1.00
H37    H     0.74405   0.73145   0.38203   0.00000  Uiso   1.00
O38    O     0.43790   0.21895   0.38952   0.00000  Uiso   1.00
O39    O     0.83178   0.72453   0.54094   0.00000  Uiso   1.00
O40    O     0.88375   0.77940   0.27258   0.00000  Uiso   1.00
N41    N     0.43390   0.32062   0.35034   0.00000  Uiso   1.00
N42    N     0.00194   0.68089   0.45826   0.00000  Uiso   1.00
N43    N     0.75157   0.72001   0.26702   0.00000  Uiso   1.00
N44    N     0.41130   0.32152   0.43527   0.00000  Uiso   1.00
N45    N     0.97935   0.68179   0.54318   0.00000  Uiso   1.00
N46    N     0.72897   0.72091   0.35195   0.00000  Uiso   1.00
C47    C     0.89785   0.07374   0.35105   0.00000  Uiso   1.00
C48    C     0.90228   0.00420   0.37161   0.00000  Uiso   1.00
C49    C     0.91858   0.94523   0.34159   0.00000  Uiso   1.00
C50    C     0.91993   0.88678   0.36776   0.00000  Uiso   1.00
C51    C     0.92895   0.77872   0.39144   0.00000  Uiso   1.00
C52    C     0.78321   0.10348   0.40135   0.00000  Uiso   1.00
C53    C     0.69942   0.12800   0.39634   0.00000  Uiso   1.00
C54    C     0.60055   0.15314   0.44756   0.00000  Uiso   1.00
C55    C     0.42476   0.19925   0.51740   0.00000  Uiso   1.00
C56    C     0.98982   0.11425   0.34865   0.00000  Uiso   1.00
C57    C     0.07972   0.14784   0.29932   0.00000  Uiso   1.00
C58    C     0.15478   0.18206   0.30616   0.00000  Uiso   1.00
C59    C     0.29978   0.24490   0.29418   0.00000  Uiso   1.00
C60    C     0.87127   0.07480   0.45093   0.00000  Uiso   1.00
C61    C     0.88784   0.00478   0.42586   0.00000  Uiso   1.00
C62    C     0.88917   0.94640   0.45208   0.00000  Uiso   1.00
C63    C     0.90547   0.88736   0.42211   0.00000  Uiso   1.00
C64    C     0.76878   0.10406   0.45560   0.00000  Uiso   1.00
C65    C     0.67001   0.12917   0.50684   0.00000  Uiso   1.00
C66    C     0.58608   0.15371   0.50190   0.00000  Uiso   1.00
C67    C     0.97539   0.11483   0.40289   0.00000  Uiso   1.00
C68    C     0.05032   0.14901   0.40982   0.00000  Uiso   1.00
C69    C     0.14032   0.18264   0.36051   0.00000  Uiso   1.00
H70    H     0.90908   0.07329   0.30882   0.00000  Uiso   1.00
H71    H     0.92973   0.94481   0.29961   0.00000  Uiso   1.00
H72    H     0.71062   0.12755   0.35435   0.00000  Uiso   1.00
H73    H     0.09086   0.14739   0.25735   0.00000  Uiso   1.00
H74    H     0.94623   0.80261   0.31333   0.00000  Uiso   1.00
H75    H     0.48422   0.18796   0.42875   0.00000  Uiso   1.00
H76    H     0.28605   0.22979   0.22420   0.00000  Uiso   1.00
H77    H     0.86003   0.07524   0.49316   0.00000  Uiso   1.00
H78    H     0.87800   0.94686   0.49406   0.00000  Uiso   1.00
H79    H     0.65888   0.12961   0.54881   0.00000  Uiso   1.00
H80    H     0.03912   0.14944   0.45180   0.00000  Uiso   1.00
H81    H     0.90423   0.80428   0.47116   0.00000  Uiso   1.00
H82    H     0.44223   0.18963   0.58658   0.00000  Uiso   1.00
H83    H     0.24405   0.23145   0.38203   0.00000  Uiso   1.00
O84    O     0.93790   0.71895   0.38952   0.00000  Uiso   1.00
O85    O     0.33178   0.22453   0.54094   0.00000  Uiso   1.00
O86    O     0.38375   0.27940   0.27258   0.00000  Uiso   1.00
N87    N     0.93390   0.82062   0.35034   0.00000  Uiso   1.00
N88    N     0.50194   0.18089   0.45826   0.00000  Uiso   1.00
N89    N     0.25157   0.22001   0.26702   0.00000  Uiso   1.00
N90    N     0.91130   0.82152   0.43527   0.00000  Uiso   1.00
N91    N     0.47935   0.18179   0.54318   0.00000  Uiso   1.00
N92    N     0.22897   0.22091   0.35195   0.00000  Uiso   1.00
C93    C     0.60215   0.57374   0.14895   0.00000  Uiso   1.00
C94    C     0.59772   0.50420   0.12839   0.00000  Uiso   1.00
C95    C     0.58142   0.44523   0.15841   0.00000  Uiso   1.00
C96    C     0.58007   0.38678   0.13224   0.00000  Uiso   1.00
C97    C     0.57105   0.27872   0.10856   0.00000  Uiso   1.00
C98    C     0.71679   0.60348   0.09865   0.00000  Uiso   1.00
C99    C     0.80058   0.62800   0.10366   0.00000  Uiso   1.00
C100   C     0.89945   0.65314   0.05244   0.00000  Uiso   1.00
C101   C     0.07524   0.69925   0.98260   0.00000  Uiso   1.00
C102   C     0.51018   0.61425   0.15135   0.00000  Uiso   1.00
C103   C     0.42028   0.64784   0.20068   0.00000  Uiso   1.00
C104   C     0.34522   0.68206   0.19384   0.00000  Uiso   1.00
C105   C     0.20022   0.74490   0.20582   0.00000  Uiso   1.00
C106   C     0.62873   0.57480   0.04907   0.00000  Uiso   1.00
C107   C     0.61216   0.50478   0.07414   0.00000  Uiso   1.00
C108   C     0.61083   0.44640   0.04792   0.00000  Uiso   1.00
C109   C     0.59453   0.38736   0.07789   0.00000  Uiso   1.00
C110   C     0.73122   0.60406   0.04440   0.00000  Uiso   1.00
C111   C     0.82999   0.62917   0.99316   0.00000  Uiso   1.00
C112   C     0.91392   0.65371   0.99810   0.00000  Uiso   1.00
C113   C     0.52461   0.61483   0.09711   0.00000  Uiso   1.00
C114   C     0.44968   0.64901   0.09018   0.00000  Uiso   1.00
C115   C     0.35968   0.68264   0.13949   0.00000  Uiso   1.00
H116   H     0.59092   0.57329   0.19118   0.00000  Uiso   1.00
H117   H     0.57027   0.44481   0.20039   0.00000  Uiso   1.00
H118   H     0.78938   0.62755   0.14565   0.00000  Uiso   1.00
H119   H     0.40914   0.64739   0.24265   0.00000  Uiso   1.00
H120   H     0.55377   0.30261   0.18667   0.00000  Uiso   1.00
H121   H     0.01578   0.68796   0.07125   0.00000  Uiso   1.00
H122   H     0.21395   0.72979   0.27580   0.00000  Uiso   1.00
H123   H     0.63997   0.57524   0.00684   0.00000  Uiso   1.00
H124   H     0.62200   0.44686   0.00594   0.00000  Uiso   1.00
H125   H     0.84112   0.62961   0.95119   0.00000  Uiso   1.00
H126   H     0.46088   0.64944   0.04820   0.00000  Uiso   1.00
H127   H     0.59577   0.30428   0.02884   0.00000  Uiso   1.00
H128   H     0.05777   0.68963   0.91342   0.00000  Uiso   1.00
H129   H     0.25595   0.73145   0.11797   0.00000  Uiso   1.00
O130   O     0.56210   0.21895   0.11048   0.00000  Uiso   1.00
O131   O     0.16822   0.72453   0.95906   0.00000  Uiso   1.00
O132   O     0.11625   0.77940   0.22742   0.00000  Uiso   1.00
N133   N     0.56610   0.32062   0.14966   0.00000  Uiso   1.00
N134   N     0.99806   0.68089   0.04174   0.00000  Uiso   1.00
N135   N     0.24843   0.72001   0.23298   0.00000  Uiso   1.00
N136   N     0.58870   0.32152   0.06473   0.00000  Uiso   1.00
N137   N     0.02065   0.68179   0.95682   0.00000  Uiso   1.00
N138   N     0.27103   0.72091   0.14805   0.00000  Uiso   1.00
C139   C     0.10215   0.07374   0.14895   0.00000  Uiso   1.00
C140   C     0.09772   0.00420   0.12839   0.00000  Uiso   1.00
C141   C     0.08142   0.94523   0.15841   0.00000  Uiso   1.00
C142   C     0.08007   0.88678   0.13224   0.00000  Uiso   1.00
C143   C     0.07105   0.77872   0.10856   0.00000  Uiso   1.00
C144   C     0.21679   0.10348   0.09865   0.00000  Uiso   1.00
C145   C     0.30058   0.12800   0.10366   0.00000  Uiso   1.00
C146   C     0.39945   0.15314   0.05244   0.00000  Uiso   1.00
C147   C     0.57524   0.19925   0.98260   0.00000  Uiso   1.00
C148   C     0.01018   0.11425   0.15135   0.00000  Uiso   1.00
C149   C     0.92028   0.14784   0.20068   0.00000  Uiso   1.00
C150   C     0.84522   0.18206   0.19384   0.00000  Uiso   1.00
C151   C     0.70022   0.24490   0.20582   0.00000  Uiso   1.00
C152   C     0.12873   0.07480   0.04907   0.00000  Uiso   1.00
C153   C     0.11216   0.00478   0.07414   0.00000  Uiso   1.00
C154   C     0.11083   0.94640   0.04792   0.00000  Uiso   1.00
C155   C     0.09453   0.88736   0.07789   0.00000  Uiso   1.00
C156   C     0.23122   0.10406   0.04440   0.00000  Uiso   1.00
C157   C     0.32999   0.12917   0.99316   0.00000  Uiso   1.00
C158   C     0.41392   0.15371   0.99810   0.00000  Uiso   1.00
C159   C     0.02461   0.11483   0.09711   0.00000  Uiso   1.00
C160   C     0.94968   0.14901   0.09018   0.00000  Uiso   1.00
C161   C     0.85968   0.18264   0.13949   0.00000  Uiso   1.00
H162   H     0.09092   0.07329   0.19118   0.00000  Uiso   1.00
H163   H     0.07027   0.94481   0.20039   0.00000  Uiso   1.00
H164   H     0.28938   0.12755   0.14565   0.00000  Uiso   1.00
H165   H     0.90914   0.14739   0.24265   0.00000  Uiso   1.00
H166   H     0.05377   0.80261   0.18667   0.00000  Uiso   1.00
H167   H     0.51578   0.18796   0.07125   0.00000  Uiso   1.00
H168   H     0.71395   0.22979   0.27580   0.00000  Uiso   1.00
H169   H     0.13997   0.07524   0.00684   0.00000  Uiso   1.00
H170   H     0.12200   0.94686   0.00594   0.00000  Uiso   1.00
H171   H     0.34112   0.12961   0.95119   0.00000  Uiso   1.00
H172   H     0.96088   0.14944   0.04820   0.00000  Uiso   1.00
H173   H     0.09577   0.80428   0.02884   0.00000  Uiso   1.00
H174   H     0.55777   0.18963   0.91342   0.00000  Uiso   1.00
H175   H     0.75595   0.23145   0.11797   0.00000  Uiso   1.00
O176   O     0.06210   0.71895   0.11048   0.00000  Uiso   1.00
O177   O     0.66822   0.22453   0.95906   0.00000  Uiso   1.00
O178   O     0.61625   0.27940   0.22742   0.00000  Uiso   1.00
N179   N     0.06610   0.82062   0.14966   0.00000  Uiso   1.00
N180   N     0.49806   0.18089   0.04174   0.00000  Uiso   1.00
N181   N     0.74843   0.22001   0.23298   0.00000  Uiso   1.00
N182   N     0.08870   0.82152   0.06473   0.00000  Uiso   1.00
N183   N     0.52065   0.18179   0.95682   0.00000  Uiso   1.00
N184   N     0.77103   0.22091   0.14805   0.00000  Uiso   1.00
C185   C     0.60215   0.42626   0.64895   0.00000  Uiso   1.00
C186   C     0.59772   0.49580   0.62839   0.00000  Uiso   1.00
C187   C     0.58142   0.55477   0.65841   0.00000  Uiso   1.00
C188   C     0.58007   0.61322   0.63224   0.00000  Uiso   1.00
C189   C     0.57105   0.72128   0.60856   0.00000  Uiso   1.00
C190   C     0.71679   0.39652   0.59865   0.00000  Uiso   1.00
C191   C     0.80058   0.37200   0.60366   0.00000  Uiso   1.00
C192   C     0.89945   0.34686   0.55244   0.00000  Uiso   1.00
C193   C     0.07524   0.30075   0.48260   0.00000  Uiso   1.00
C194   C     0.51018   0.38575   0.65135   0.00000  Uiso   1.00
C195   C     0.42028   0.35216   0.70068   0.00000  Uiso   1.00
C196   C     0.34522   0.31794   0.69384   0.00000  Uiso   1.00
C197   C     0.20022   0.25510   0.70582   0.00000  Uiso   1.00
C198   C     0.62873   0.42520   0.54907   0.00000  Uiso   1.00
C199   C     0.61216   0.49522   0.57414   0.00000  Uiso   1.00
C200   C     0.61083   0.55360   0.54792   0.00000  Uiso   1.00
C201   C     0.59453   0.61264   0.57789   0.00000  Uiso   1.00
C202   C     0.73122   0.39594   0.54440   0.00000  Uiso   1.00
C203   C     0.82999   0.37083   0.49316   0.00000  Uiso   1.00
C204   C     0.91392   0.34629   0.49810   0.00000  Uiso   1.00
C205   C     0.52461   0.38517   0.59711   0.00000  Uiso   1.00
C206   C     0.44968   0.35099   0.59018   0.00000  Uiso   1.00
C207   C     0.35968   0.31736   0.63949   0.00000  Uiso   1.00
H208   H     0.59092   0.42671   0.69118   0.00000  Uiso   1.00
H209   H     0.57027   0.55519   0.70039   0.00000  Uiso   1.00
H210   H     0.78938   0.37245   0.64565   0.00000  Uiso   1.00
H211   H     0.40914   0.35261   0.74265   0.00000  Uiso   1.00
H212   H     0.55377   0.69739   0.68667   0.00000  Uiso   1.00
H213   H     0.01578   0.31204   0.57125   0.00000  Uiso   1.00
H214   H     0.21395   0.27021   0.77580   0.00000  Uiso   1.00
H215   H     0.63997   0.42476   0.50684   0.00000  Uiso   1.00
H216   H     0.62200   0.55314   0.50594   0.00000  Uiso   1.00
H217   H     0.84112   0.37039   0.45119   0.00000  Uiso   1.00
H218   H     0.46088   0.35056   0.54820   0.00000  Uiso   1.00
H219   H     0.59577   0.69572   0.52884   0.00000  Uiso   1.00
H220   H     0.05777   0.31037   0.41342   0.00000  Uiso   1.00
H221   H     0.25595   0.26855   0.61797   0.00000  Uiso   1.00
O222   O     0.56210   0.78105   0.61048   0.00000  Uiso   1.00
O223   O     0.16822   0.27547   0.45906   0.00000  Uiso   1.00
O224   O     0.11625   0.22060   0.72742   0.00000  Uiso   1.00
N225   N     0.56610   0.67938   0.64966   0.00000  Uiso   1.00
N226   N     0.99806   0.31911   0.54174   0.00000  Uiso   1.00
N227   N     0.24843   0.27999   0.73298   0.00000  Uiso   1.00
N228   N     0.58870   0.67848   0.56473   0.00000  Uiso   1.00
N229   N     0.02065   0.31821   0.45682   0.00000  Uiso   1.00
N230   N     0.27103   0.27909   0.64805   0.00000  Uiso   1.00
C231   C     0.10215   0.92626   0.64895   0.00000  Uiso   1.00
C232   C     0.09772   0.99580   0.62839   0.00000  Uiso   1.00
C233   C     0.08142   0.05477   0.65841   0.00000  Uiso   1.00
C234   C     0.08007   0.11322   0.63224   0.00000  Uiso   1.00
C235   C     0.07105   0.22128   0.60856   0.00000  Uiso   1.00
C236   C     0.21679   0.89652   0.59865   0.00000  Uiso   1.00
C237   C     0.30058   0.87200   0.60366   0.00000  Uiso   1.00
C238   C     0.39945   0.84686   0.55244   0.00000  Uiso   1.00
C239   C     0.57524   0.80075   0.48260   0.00000  Uiso   1.00
C240   C     0.01018   0.88575   0.65135   0.00000  Uiso   1.00
C241   C     0.92028   0.85216   0.70068   0.00000  Uiso   1.00
C242   C     0.84522   0.81794   0.69384   0.00000  Uiso   1.00
C243   C     0.70022   0.75510   0.70582   0.00000  Uiso   1.00
C244   C     0.12873   0.92520   0.54907   0.00000  Uiso   1.00
C245   C     0.11216   0.99522   0.57414   0.00000  Uiso   1.00
C246   C     0.11083   0.05360   0.54792   0.00000  Uiso   1.00
C247   C     0.09453   0.11264   0.57789   0.00000  Uiso   1.00
C248   C     0.23122   0.89594   0.54440   0.00000  Uiso   1.00
C249   C     0.32999   0.87083   0.49316   0.00000  Uiso   1.00
C250   C     0.41392   0.84629   0.49810   0.00000  Uiso   1.00
C251   C     0.02461   0.88517   0.59711   0.00000  Uiso   1.00
C252   C     0.94968   0.85099   0.59018   0.00000  Uiso   1.00
C253   C     0.85968   0.81736   0.63949   0.00000  Uiso   1.00
H254   H     0.09092   0.92671   0.69118   0.00000  Uiso   1.00
H255   H     0.07027   0.05519   0.70039   0.00000  Uiso   1.00
H256   H     0.28938   0.87245   0.64565   0.00000  Uiso   1.00
H257   H     0.90914   0.85261   0.74265   0.00000  Uiso   1.00
H258   H     0.05377   0.19739   0.68667   0.00000  Uiso   1.00
H259   H     0.51578   0.81204   0.57125   0.00000  Uiso   1.00
H260   H     0.71395   0.77021   0.77580   0.00000  Uiso   1.00
H261   H     0.13997   0.92476   0.50684   0.00000  Uiso   1.00
H262   H     0.12200   0.05314   0.50594   0.00000  Uiso   1.00
H263   H     0.34112   0.87039   0.45119   0.00000  Uiso   1.00
H264   H     0.96088   0.85056   0.54820   0.00000  Uiso   1.00
H265   H     0.09577   0.19572   0.52884   0.00000  Uiso   1.00
H266   H     0.55777   0.81037   0.41342   0.00000  Uiso   1.00
H267   H     0.75595   0.76855   0.61797   0.00000  Uiso   1.00
O268   O     0.06210   0.28105   0.61048   0.00000  Uiso   1.00
O269   O     0.66822   0.77547   0.45906   0.00000  Uiso   1.00
O270   O     0.61625   0.72060   0.72742   0.00000  Uiso   1.00
N271   N     0.06610   0.17938   0.64966   0.00000  Uiso   1.00
N272   N     0.49806   0.81911   0.54174   0.00000  Uiso   1.00
N273   N     0.74843   0.77999   0.73298   0.00000  Uiso   1.00
N274   N     0.08870   0.17848   0.56473   0.00000  Uiso   1.00
N275   N     0.52065   0.81821   0.45682   0.00000  Uiso   1.00
N276   N     0.77103   0.77909   0.64805   0.00000  Uiso   1.00
C277   C     0.39785   0.42626   0.85105   0.00000  Uiso   1.00
C278   C     0.40228   0.49580   0.87161   0.00000  Uiso   1.00
C279   C     0.41858   0.55477   0.84159   0.00000  Uiso   1.00
C280   C     0.41993   0.61322   0.86776   0.00000  Uiso   1.00
C281   C     0.42895   0.72128   0.89144   0.00000  Uiso   1.00
C282   C     0.28321   0.39652   0.90135   0.00000  Uiso   1.00
C283   C     0.19942   0.37200   0.89634   0.00000  Uiso   1.00
C284   C     0.10055   0.34686   0.94756   0.00000  Uiso   1.00
C285   C     0.92476   0.30075   0.01740   0.00000  Uiso   1.00
C286   C     0.48982   0.38575   0.84865   0.00000  Uiso   1.00
C287   C     0.57972   0.35216   0.79932   0.00000  Uiso   1.00
C288   C     0.65478   0.31794   0.80616   0.00000  Uiso   1.00
C289   C     0.79978   0.25510   0.79418   0.00000  Uiso   1.00
C290   C     0.37127   0.42520   0.95093   0.00000  Uiso   1.00
C291   C     0.38784   0.49522   0.92586   0.00000  Uiso   1.00
C292   C     0.38917   0.55360   0.95208   0.00000  Uiso   1.00
C293   C     0.40547   0.61264   0.92211   0.00000  Uiso   1.00
C294   C     0.26878   0.39594   0.95560   0.00000  Uiso   1.00
C295   C     0.17001   0.37083   0.00684   0.00000  Uiso   1.00
C296   C     0.08608   0.34629   0.00190   0.00000  Uiso   1.00
C297   C     0.47539   0.38517   0.90289   0.00000  Uiso   1.00
C298   C     0.55032   0.35099   0.90982   0.00000  Uiso   1.00
C299   C     0.64032   0.31736   0.86051   0.00000  Uiso   1.00
H300   H     0.40908   0.42671   0.80882   0.00000  Uiso   1.00
H301   H     0.42973   0.55519   0.79961   0.00000  Uiso   1.00
H302   H     0.21062   0.37245   0.85435   0.00000  Uiso   1.00
H303   H     0.59086   0.35261   0.75735   0.00000  Uiso   1.00
H304   H     0.44623   0.69739   0.81333   0.00000  Uiso   1.00
H305   H     0.98422   0.31204   0.92875   0.00000  Uiso   1.00
H306   H     0.78605   0.27021   0.72420   0.00000  Uiso   1.00
H307   H     0.36003   0.42476   0.99316   0.00000  Uiso   1.00
H308   H     0.37800   0.55314   0.99406   0.00000  Uiso   1.00
H309   H     0.15888   0.37039   0.04881   0.00000  Uiso   1.00
H310   H     0.53912   0.35056   0.95180   0.00000  Uiso   1.00
H311   H     0.40423   0.69572   0.97116   0.00000  Uiso   1.00
H312   H     0.94223   0.31037   0.08658   0.00000  Uiso   1.00
H313   H     0.74405   0.26855   0.88203   0.00000  Uiso   1.00
O314   O     0.43790   0.78105   0.88952   0.00000  Uiso   1.00
O315   O     0.83178   0.27547   0.04094   0.00000  Uiso   1.00
O316   O     0.88375   0.22060   0.77258   0.00000  Uiso   1.00
N317   N     0.43390   0.67938   0.85034   0.00000  Uiso   1.00
N318   N     0.00194   0.31911   0.95826   0.00000  Uiso   1.00
N319   N     0.75157   0.27999   0.76702   0.00000  Uiso   1.00
N320   N     0.41130   0.67848   0.93527   0.00000  Uiso   1.00
N321   N     0.97935   0.31821   0.04318   0.00000  Uiso   1.00
N322   N     0.72897   0.27909   0.85195   0.00000  Uiso   1.00
C323   C     0.89785   0.92626   0.85105   0.00000  Uiso   1.00
C324   C     0.90228   0.99580   0.87161   0.00000  Uiso   1.00
C325   C     0.91858   0.05477   0.84159   0.00000  Uiso   1.00
C326   C     0.91993   0.11322   0.86776   0.00000  Uiso   1.00
C327   C     0.92895   0.22128   0.89144   0.00000  Uiso   1.00
C328   C     0.78321   0.89652   0.90135   0.00000  Uiso   1.00
C329   C     0.69942   0.87200   0.89634   0.00000  Uiso   1.00
C330   C     0.60055   0.84686   0.94756   0.00000  Uiso   1.00
C331   C     0.42476   0.80075   0.01740   0.00000  Uiso   1.00
C332   C     0.98982   0.88575   0.84865   0.00000  Uiso   1.00
C333   C     0.07972   0.85216   0.79932   0.00000  Uiso   1.00
C334   C     0.15478   0.81794   0.80616   0.00000  Uiso   1.00
C335   C     0.29978   0.75510   0.79418   0.00000  Uiso   1.00
C336   C     0.87127   0.92520   0.95093   0.00000  Uiso   1.00
C337   C     0.88784   0.99522   0.92586   0.00000  Uiso   1.00
C338   C     0.88917   0.05360   0.95208   0.00000  Uiso   1.00
C339   C     0.90547   0.11264   0.92211   0.00000  Uiso   1.00
C340   C     0.76878   0.89594   0.95560   0.00000  Uiso   1.00
C341   C     0.67001   0.87083   0.00684   0.00000  Uiso   1.00
C342   C     0.58608   0.84629   0.00190   0.00000  Uiso   1.00
C343   C     0.97539   0.88517   0.90289   0.00000  Uiso   1.00
C344   C     0.05032   0.85099   0.90982   0.00000  Uiso   1.00
C345   C     0.14032   0.81736   0.86051   0.00000  Uiso   1.00
H346   H     0.90908   0.92671   0.80882   0.00000  Uiso   1.00
H347   H     0.92973   0.05519   0.79961   0.00000  Uiso   1.00
H348   H     0.71062   0.87245   0.85435   0.00000  Uiso   1.00
H349   H     0.09086   0.85261   0.75735   0.00000  Uiso   1.00
H350   H     0.94623   0.19739   0.81333   0.00000  Uiso   1.00
H351   H     0.48422   0.81204   0.92875   0.00000  Uiso   1.00
H352   H     0.28605   0.77021   0.72420   0.00000  Uiso   1.00
H353   H     0.86003   0.92476   0.99316   0.00000  Uiso   1.00
H354   H     0.87800   0.05314   0.99406   0.00000  Uiso   1.00
H355   H     0.65888   0.87039   0.04881   0.00000  Uiso   1.00
H356   H     0.03912   0.85056   0.95180   0.00000  Uiso   1.00
H357   H     0.90423   0.19572   0.97116   0.00000  Uiso   1.00
H358   H     0.44223   0.81037   0.08658   0.00000  Uiso   1.00
H359   H     0.24405   0.76855   0.88203   0.00000  Uiso   1.00
O360   O     0.93790   0.28105   0.88952   0.00000  Uiso   1.00
O361   O     0.33178   0.77547   0.04094   0.00000  Uiso   1.00
O362   O     0.38375   0.72060   0.77258   0.00000  Uiso   1.00
N363   N     0.93390   0.17938   0.85034   0.00000  Uiso   1.00
N364   N     0.50194   0.81911   0.95826   0.00000  Uiso   1.00
N365   N     0.25157   0.77999   0.76702   0.00000  Uiso   1.00
N366   N     0.91130   0.17848   0.93527   0.00000  Uiso   1.00
N367   N     0.47935   0.81821   0.04318   0.00000  Uiso   1.00
N368   N     0.22897   0.77909   0.85195   0.00000  Uiso   1.00
