data_job_02936
_audit_creation_date              2018-12-19
_audit_creation_method            'Materials Studio'
_symmetry_space_group_name_H-M    'P1'
_symmetry_Int_Tables_number       1
_symmetry_cell_setting            triclinic
loop_
_symmetry_equiv_pos_as_xyz
  x,y,z
_cell_length_a                    26.5850
_cell_length_b                    10.4748
_cell_length_c                    23.9276
_cell_angle_alpha                 90.0000
_cell_angle_beta                  90.0000
_cell_angle_gamma                 90.0000
loop_
_atom_site_label
_atom_site_type_symbol
_atom_site_fract_x
_atom_site_fract_y
_atom_site_fract_z
_atom_site_U_iso_or_equiv
_atom_site_adp_type
_atom_site_occupancy
C1     C     0.67344   0.41674   0.05518   0.00000  Uiso   1.00
C2     C     0.65291   0.31650   0.01499   0.00000  Uiso   1.00
C3     C     0.67455   0.28111   0.96454   0.00000  Uiso   1.00
C4     C     0.64996   0.18757   0.93382   0.00000  Uiso   1.00
C5     C     0.62485   0.04049   0.86850   0.00000  Uiso   1.00
C6     C     0.63126   0.51358   0.06341   0.00000  Uiso   1.00
C7     C     0.63471   0.64390   0.05368   0.00000  Uiso   1.00
C8     C     0.59190   0.71627   0.06373   0.00000  Uiso   1.00
C9     C     0.53319   0.87518   0.07363   0.00000  Uiso   1.00
C10    C     0.67986   0.34943   0.11123   0.00000  Uiso   1.00
C11    C     0.72417   0.34175   0.14172   0.00000  Uiso   1.00
C12    C     0.72227   0.27593   0.19205   0.00000  Uiso   1.00
C13    C     0.73902   0.17997   0.27619   0.00000  Uiso   1.00
C14    C     0.59128   0.31353   0.09035   0.00000  Uiso   1.00
C15    C     0.60828   0.26044   0.03409   0.00000  Uiso   1.00
C16    C     0.58365   0.16692   0.00345   0.00000  Uiso   1.00
C17    C     0.60526   0.13141   0.95296   0.00000  Uiso   1.00
C18    C     0.58664   0.45753   0.08251   0.00000  Uiso   1.00
C19    C     0.54381   0.52972   0.09259   0.00000  Uiso   1.00
C20    C     0.54719   0.66011   0.08287   0.00000  Uiso   1.00
C21    C     0.63523   0.29337   0.13034   0.00000  Uiso   1.00
C22    C     0.63327   0.22756   0.18063   0.00000  Uiso   1.00
C23    C     0.67756   0.21978   0.21118   0.00000  Uiso   1.00
H24    H     0.70819   0.46039   0.04031   0.00000  Uiso   1.00
H25    H     0.70908   0.32452   0.94976   0.00000  Uiso   1.00
H26    H     0.66925   0.68726   0.03890   0.00000  Uiso   1.00
H27    H     0.75869   0.38514   0.12692   0.00000  Uiso   1.00
H28    H     0.69039   0.14920   0.85780   0.00000  Uiso   1.00
H29    H     0.60641   0.91405   0.04576   0.00000  Uiso   1.00
H30    H     0.79501   0.27700   0.23138   0.00000  Uiso   1.00
H31    H     0.55654   0.26989   0.10522   0.00000  Uiso   1.00
H32    H     0.54912   0.12356   0.01824   0.00000  Uiso   1.00
H33    H     0.50928   0.48630   0.10738   0.00000  Uiso   1.00
H34    H     0.59872   0.18419   0.19540   0.00000  Uiso   1.00
H35    H     0.56055   0.98610   0.91337   0.00000  Uiso   1.00
H36    H     0.47657   0.75096   0.10134   0.00000  Uiso   1.00
H37    H     0.66517   0.11389   0.28695   0.00000  Uiso   1.00
O38    O     0.62332   0.97486   0.82718   0.00000  Uiso   1.00
O39    O     0.51314   0.97832   0.07380   0.00000  Uiso   1.00
O40    O     0.76058   0.14251   0.31732   0.00000  Uiso   1.00
N41    N     0.66086   0.13088   0.88282   0.00000  Uiso   1.00
N42    N     0.58234   0.84597   0.05855   0.00000  Uiso   1.00
N43    N     0.75866   0.25040   0.23209   0.00000  Uiso   1.00
N44    N     0.59099   0.04312   0.91272   0.00000  Uiso   1.00
N45    N     0.51247   0.75820   0.08845   0.00000  Uiso   1.00
N46    N     0.68880   0.16264   0.26199   0.00000  Uiso   1.00
C47    C     0.82656   0.58326   0.05518   0.00000  Uiso   1.00
C48    C     0.84709   0.68350   0.01499   0.00000  Uiso   1.00
C49    C     0.82545   0.71889   0.96454   0.00000  Uiso   1.00
C50    C     0.85004   0.81243   0.93382   0.00000  Uiso   1.00
C51    C     0.87515   0.95951   0.86850   0.00000  Uiso   1.00
C52    C     0.86874   0.48642   0.06341   0.00000  Uiso   1.00
C53    C     0.86529   0.35610   0.05368   0.00000  Uiso   1.00
C54    C     0.90810   0.28373   0.06373   0.00000  Uiso   1.00
C55    C     0.96681   0.12482   0.07363   0.00000  Uiso   1.00
C56    C     0.82014   0.65057   0.11123   0.00000  Uiso   1.00
C57    C     0.77583   0.65825   0.14172   0.00000  Uiso   1.00
C58    C     0.77773   0.72407   0.19205   0.00000  Uiso   1.00
C59    C     0.76098   0.82003   0.27619   0.00000  Uiso   1.00
C60    C     0.90872   0.68647   0.09035   0.00000  Uiso   1.00
C61    C     0.89172   0.73956   0.03409   0.00000  Uiso   1.00
C62    C     0.91635   0.83308   0.00345   0.00000  Uiso   1.00
C63    C     0.89474   0.86859   0.95296   0.00000  Uiso   1.00
C64    C     0.91336   0.54247   0.08251   0.00000  Uiso   1.00
C65    C     0.95619   0.47028   0.09259   0.00000  Uiso   1.00
C66    C     0.95281   0.33989   0.08287   0.00000  Uiso   1.00
C67    C     0.86477   0.70663   0.13034   0.00000  Uiso   1.00
C68    C     0.86673   0.77244   0.18063   0.00000  Uiso   1.00
C69    C     0.82244   0.78022   0.21118   0.00000  Uiso   1.00
H70    H     0.79181   0.53961   0.04031   0.00000  Uiso   1.00
H71    H     0.79092   0.67548   0.94976   0.00000  Uiso   1.00
H72    H     0.83075   0.31274   0.03890   0.00000  Uiso   1.00
H73    H     0.74131   0.61486   0.12692   0.00000  Uiso   1.00
H74    H     0.80961   0.85080   0.85780   0.00000  Uiso   1.00
H75    H     0.89359   0.08595   0.04576   0.00000  Uiso   1.00
H76    H     0.70499   0.72300   0.23138   0.00000  Uiso   1.00
H77    H     0.94346   0.73011   0.10522   0.00000  Uiso   1.00
H78    H     0.95088   0.87644   0.01824   0.00000  Uiso   1.00
H79    H     0.99072   0.51370   0.10738   0.00000  Uiso   1.00
H80    H     0.90128   0.81581   0.19540   0.00000  Uiso   1.00
H81    H     0.93945   0.01390   0.91337   0.00000  Uiso   1.00
H82    H     0.02343   0.24904   0.10134   0.00000  Uiso   1.00
H83    H     0.83483   0.88611   0.28695   0.00000  Uiso   1.00
O84    O     0.87668   0.02514   0.82718   0.00000  Uiso   1.00
O85    O     0.98686   0.02168   0.07380   0.00000  Uiso   1.00
O86    O     0.73942   0.85749   0.31732   0.00000  Uiso   1.00
N87    N     0.83914   0.86912   0.88282   0.00000  Uiso   1.00
N88    N     0.91766   0.15403   0.05855   0.00000  Uiso   1.00
N89    N     0.74134   0.74960   0.23209   0.00000  Uiso   1.00
N90    N     0.90901   0.95688   0.91272   0.00000  Uiso   1.00
N91    N     0.98753   0.24180   0.08845   0.00000  Uiso   1.00
N92    N     0.81120   0.83736   0.26199   0.00000  Uiso   1.00
C93    C     0.32656   0.41674   0.44482   0.00000  Uiso   1.00
C94    C     0.34709   0.31650   0.48501   0.00000  Uiso   1.00
C95    C     0.32545   0.28111   0.53546   0.00000  Uiso   1.00
C96    C     0.35004   0.18757   0.56618   0.00000  Uiso   1.00
C97    C     0.37515   0.04049   0.63150   0.00000  Uiso   1.00
C98    C     0.36874   0.51358   0.43659   0.00000  Uiso   1.00
C99    C     0.36529   0.64390   0.44632   0.00000  Uiso   1.00
C100   C     0.40810   0.71627   0.43627   0.00000  Uiso   1.00
C101   C     0.46681   0.87518   0.42637   0.00000  Uiso   1.00
C102   C     0.32014   0.34943   0.38877   0.00000  Uiso   1.00
C103   C     0.27583   0.34175   0.35828   0.00000  Uiso   1.00
C104   C     0.27773   0.27593   0.30795   0.00000  Uiso   1.00
C105   C     0.26098   0.17997   0.22381   0.00000  Uiso   1.00
C106   C     0.40872   0.31353   0.40965   0.00000  Uiso   1.00
C107   C     0.39172   0.26044   0.46591   0.00000  Uiso   1.00
C108   C     0.41635   0.16692   0.49655   0.00000  Uiso   1.00
C109   C     0.39474   0.13141   0.54704   0.00000  Uiso   1.00
C110   C     0.41336   0.45753   0.41749   0.00000  Uiso   1.00
C111   C     0.45619   0.52972   0.40741   0.00000  Uiso   1.00
C112   C     0.45281   0.66011   0.41713   0.00000  Uiso   1.00
C113   C     0.36477   0.29337   0.36966   0.00000  Uiso   1.00
C114   C     0.36673   0.22756   0.31937   0.00000  Uiso   1.00
C115   C     0.32244   0.21978   0.28882   0.00000  Uiso   1.00
H116   H     0.29181   0.46039   0.45969   0.00000  Uiso   1.00
H117   H     0.29092   0.32452   0.55024   0.00000  Uiso   1.00
H118   H     0.33075   0.68726   0.46110   0.00000  Uiso   1.00
H119   H     0.24131   0.38514   0.37308   0.00000  Uiso   1.00
H120   H     0.30961   0.14920   0.64220   0.00000  Uiso   1.00
H121   H     0.39359   0.91405   0.45424   0.00000  Uiso   1.00
H122   H     0.20499   0.27700   0.26862   0.00000  Uiso   1.00
H123   H     0.44346   0.26989   0.39478   0.00000  Uiso   1.00
H124   H     0.45088   0.12356   0.48176   0.00000  Uiso   1.00
H125   H     0.49072   0.48630   0.39262   0.00000  Uiso   1.00
H126   H     0.40128   0.18419   0.30460   0.00000  Uiso   1.00
H127   H     0.43945   0.98610   0.58663   0.00000  Uiso   1.00
H128   H     0.52343   0.75096   0.39866   0.00000  Uiso   1.00
H129   H     0.33483   0.11389   0.21305   0.00000  Uiso   1.00
O130   O     0.37668   0.97486   0.67282   0.00000  Uiso   1.00
O131   O     0.48686   0.97832   0.42620   0.00000  Uiso   1.00
O132   O     0.23942   0.14251   0.18268   0.00000  Uiso   1.00
N133   N     0.33914   0.13088   0.61718   0.00000  Uiso   1.00
N134   N     0.41766   0.84597   0.44145   0.00000  Uiso   1.00
N135   N     0.24134   0.25040   0.26791   0.00000  Uiso   1.00
N136   N     0.40901   0.04312   0.58728   0.00000  Uiso   1.00
N137   N     0.48753   0.75820   0.41155   0.00000  Uiso   1.00
N138   N     0.31120   0.16264   0.23801   0.00000  Uiso   1.00
C139   C     0.17344   0.58326   0.44482   0.00000  Uiso   1.00
C140   C     0.15291   0.68350   0.48501   0.00000  Uiso   1.00
C141   C     0.17455   0.71889   0.53546   0.00000  Uiso   1.00
C142   C     0.14996   0.81243   0.56618   0.00000  Uiso   1.00
C143   C     0.12485   0.95951   0.63150   0.00000  Uiso   1.00
C144   C     0.13126   0.48642   0.43659   0.00000  Uiso   1.00
C145   C     0.13471   0.35610   0.44632   0.00000  Uiso   1.00
C146   C     0.09190   0.28373   0.43627   0.00000  Uiso   1.00
C147   C     0.03319   0.12482   0.42637   0.00000  Uiso   1.00
C148   C     0.17986   0.65057   0.38877   0.00000  Uiso   1.00
C149   C     0.22417   0.65825   0.35828   0.00000  Uiso   1.00
C150   C     0.22227   0.72407   0.30795   0.00000  Uiso   1.00
C151   C     0.23902   0.82003   0.22381   0.00000  Uiso   1.00
C152   C     0.09128   0.68647   0.40965   0.00000  Uiso   1.00
C153   C     0.10828   0.73956   0.46591   0.00000  Uiso   1.00
C154   C     0.08365   0.83308   0.49655   0.00000  Uiso   1.00
C155   C     0.10526   0.86859   0.54704   0.00000  Uiso   1.00
C156   C     0.08664   0.54247   0.41749   0.00000  Uiso   1.00
C157   C     0.04381   0.47028   0.40741   0.00000  Uiso   1.00
C158   C     0.04719   0.33989   0.41713   0.00000  Uiso   1.00
C159   C     0.13523   0.70663   0.36966   0.00000  Uiso   1.00
C160   C     0.13327   0.77244   0.31937   0.00000  Uiso   1.00
C161   C     0.17756   0.78022   0.28882   0.00000  Uiso   1.00
H162   H     0.20819   0.53961   0.45969   0.00000  Uiso   1.00
H163   H     0.20908   0.67548   0.55024   0.00000  Uiso   1.00
H164   H     0.16925   0.31274   0.46110   0.00000  Uiso   1.00
H165   H     0.25869   0.61486   0.37308   0.00000  Uiso   1.00
H166   H     0.19039   0.85080   0.64220   0.00000  Uiso   1.00
H167   H     0.10641   0.08595   0.45424   0.00000  Uiso   1.00
H168   H     0.29501   0.72300   0.26862   0.00000  Uiso   1.00
H169   H     0.05654   0.73011   0.39478   0.00000  Uiso   1.00
H170   H     0.04912   0.87644   0.48176   0.00000  Uiso   1.00
H171   H     0.00928   0.51370   0.39262   0.00000  Uiso   1.00
H172   H     0.09872   0.81581   0.30460   0.00000  Uiso   1.00
H173   H     0.06055   0.01390   0.58663   0.00000  Uiso   1.00
H174   H     0.97657   0.24904   0.39866   0.00000  Uiso   1.00
H175   H     0.16517   0.88611   0.21305   0.00000  Uiso   1.00
O176   O     0.12332   0.02514   0.67282   0.00000  Uiso   1.00
O177   O     0.01314   0.02168   0.42620   0.00000  Uiso   1.00
O178   O     0.26058   0.85749   0.18268   0.00000  Uiso   1.00
N179   N     0.16086   0.86912   0.61718   0.00000  Uiso   1.00
N180   N     0.08234   0.15403   0.44145   0.00000  Uiso   1.00
N181   N     0.25866   0.74960   0.26791   0.00000  Uiso   1.00
N182   N     0.09099   0.95688   0.58728   0.00000  Uiso   1.00
N183   N     0.01247   0.24180   0.41155   0.00000  Uiso   1.00
N184   N     0.18880   0.83736   0.23801   0.00000  Uiso   1.00
C185   C     0.32656   0.58326   0.94482   0.00000  Uiso   1.00
C186   C     0.34709   0.68350   0.98501   0.00000  Uiso   1.00
C187   C     0.32545   0.71889   0.03546   0.00000  Uiso   1.00
C188   C     0.35004   0.81243   0.06618   0.00000  Uiso   1.00
C189   C     0.37515   0.95951   0.13150   0.00000  Uiso   1.00
C190   C     0.36874   0.48642   0.93659   0.00000  Uiso   1.00
C191   C     0.36529   0.35610   0.94632   0.00000  Uiso   1.00
C192   C     0.40810   0.28373   0.93627   0.00000  Uiso   1.00
C193   C     0.46681   0.12482   0.92637   0.00000  Uiso   1.00
C194   C     0.32014   0.65057   0.88877   0.00000  Uiso   1.00
C195   C     0.27583   0.65825   0.85828   0.00000  Uiso   1.00
C196   C     0.27773   0.72407   0.80795   0.00000  Uiso   1.00
C197   C     0.26098   0.82003   0.72381   0.00000  Uiso   1.00
C198   C     0.40872   0.68647   0.90965   0.00000  Uiso   1.00
C199   C     0.39172   0.73956   0.96591   0.00000  Uiso   1.00
C200   C     0.41635   0.83308   0.99655   0.00000  Uiso   1.00
C201   C     0.39474   0.86859   0.04704   0.00000  Uiso   1.00
C202   C     0.41336   0.54247   0.91749   0.00000  Uiso   1.00
C203   C     0.45619   0.47028   0.90741   0.00000  Uiso   1.00
C204   C     0.45281   0.33989   0.91713   0.00000  Uiso   1.00
C205   C     0.36477   0.70663   0.86966   0.00000  Uiso   1.00
C206   C     0.36673   0.77244   0.81937   0.00000  Uiso   1.00
C207   C     0.32244   0.78022   0.78882   0.00000  Uiso   1.00
H208   H     0.29181   0.53961   0.95969   0.00000  Uiso   1.00
H209   H     0.29092   0.67548   0.05024   0.00000  Uiso   1.00
H210   H     0.33075   0.31274   0.96110   0.00000  Uiso   1.00
H211   H     0.24131   0.61486   0.87308   0.00000  Uiso   1.00
H212   H     0.30961   0.85080   0.14220   0.00000  Uiso   1.00
H213   H     0.39359   0.08595   0.95424   0.00000  Uiso   1.00
H214   H     0.20499   0.72300   0.76862   0.00000  Uiso   1.00
H215   H     0.44346   0.73011   0.89478   0.00000  Uiso   1.00
H216   H     0.45088   0.87644   0.98176   0.00000  Uiso   1.00
H217   H     0.49072   0.51370   0.89262   0.00000  Uiso   1.00
H218   H     0.40128   0.81581   0.80460   0.00000  Uiso   1.00
H219   H     0.43945   0.01390   0.08663   0.00000  Uiso   1.00
H220   H     0.52343   0.24904   0.89866   0.00000  Uiso   1.00
H221   H     0.33483   0.88611   0.71305   0.00000  Uiso   1.00
O222   O     0.37668   0.02514   0.17282   0.00000  Uiso   1.00
O223   O     0.48686   0.02168   0.92620   0.00000  Uiso   1.00
O224   O     0.23942   0.85749   0.68268   0.00000  Uiso   1.00
N225   N     0.33914   0.86912   0.11718   0.00000  Uiso   1.00
N226   N     0.41766   0.15403   0.94145   0.00000  Uiso   1.00
N227   N     0.24134   0.74960   0.76791   0.00000  Uiso   1.00
N228   N     0.40901   0.95688   0.08728   0.00000  Uiso   1.00
N229   N     0.48753   0.24180   0.91155   0.00000  Uiso   1.00
N230   N     0.31120   0.83736   0.73801   0.00000  Uiso   1.00
C231   C     0.17344   0.41674   0.94482   0.00000  Uiso   1.00
C232   C     0.15291   0.31650   0.98501   0.00000  Uiso   1.00
C233   C     0.17455   0.28111   0.03546   0.00000  Uiso   1.00
C234   C     0.14996   0.18757   0.06618   0.00000  Uiso   1.00
C235   C     0.12485   0.04049   0.13150   0.00000  Uiso   1.00
C236   C     0.13126   0.51358   0.93659   0.00000  Uiso   1.00
C237   C     0.13471   0.64390   0.94632   0.00000  Uiso   1.00
C238   C     0.09190   0.71627   0.93627   0.00000  Uiso   1.00
C239   C     0.03319   0.87518   0.92637   0.00000  Uiso   1.00
C240   C     0.17986   0.34943   0.88877   0.00000  Uiso   1.00
C241   C     0.22417   0.34175   0.85828   0.00000  Uiso   1.00
C242   C     0.22227   0.27593   0.80795   0.00000  Uiso   1.00
C243   C     0.23902   0.17997   0.72381   0.00000  Uiso   1.00
C244   C     0.09128   0.31353   0.90965   0.00000  Uiso   1.00
C245   C     0.10828   0.26044   0.96591   0.00000  Uiso   1.00
C246   C     0.08365   0.16692   0.99655   0.00000  Uiso   1.00
C247   C     0.10526   0.13141   0.04704   0.00000  Uiso   1.00
C248   C     0.08664   0.45753   0.91749   0.00000  Uiso   1.00
C249   C     0.04381   0.52972   0.90741   0.00000  Uiso   1.00
C250   C     0.04719   0.66011   0.91713   0.00000  Uiso   1.00
C251   C     0.13523   0.29337   0.86966   0.00000  Uiso   1.00
C252   C     0.13327   0.22756   0.81937   0.00000  Uiso   1.00
C253   C     0.17756   0.21978   0.78882   0.00000  Uiso   1.00
H254   H     0.20819   0.46039   0.95969   0.00000  Uiso   1.00
H255   H     0.20908   0.32452   0.05024   0.00000  Uiso   1.00
H256   H     0.16925   0.68726   0.96110   0.00000  Uiso   1.00
H257   H     0.25869   0.38514   0.87308   0.00000  Uiso   1.00
H258   H     0.19039   0.14920   0.14220   0.00000  Uiso   1.00
H259   H     0.10641   0.91405   0.95424   0.00000  Uiso   1.00
H260   H     0.29501   0.27700   0.76862   0.00000  Uiso   1.00
H261   H     0.05654   0.26989   0.89478   0.00000  Uiso   1.00
H262   H     0.04912   0.12356   0.98176   0.00000  Uiso   1.00
H263   H     0.00928   0.48630   0.89262   0.00000  Uiso   1.00
H264   H     0.09872   0.18419   0.80460   0.00000  Uiso   1.00
H265   H     0.06055   0.98610   0.08663   0.00000  Uiso   1.00
H266   H     0.97657   0.75096   0.89866   0.00000  Uiso   1.00
H267   H     0.16517   0.11389   0.71305   0.00000  Uiso   1.00
O268   O     0.12332   0.97486   0.17282   0.00000  Uiso   1.00
O269   O     0.01314   0.97832   0.92620   0.00000  Uiso   1.00
O270   O     0.26058   0.14251   0.68268   0.00000  Uiso   1.00
N271   N     0.16086   0.13088   0.11718   0.00000  Uiso   1.00
N272   N     0.08234   0.84597   0.94145   0.00000  Uiso   1.00
N273   N     0.25866   0.25040   0.76791   0.00000  Uiso   1.00
N274   N     0.09099   0.04312   0.08728   0.00000  Uiso   1.00
N275   N     0.01247   0.75820   0.91155   0.00000  Uiso   1.00
N276   N     0.18880   0.16264   0.73801   0.00000  Uiso   1.00
C277   C     0.67344   0.58326   0.55518   0.00000  Uiso   1.00
C278   C     0.65291   0.68350   0.51499   0.00000  Uiso   1.00
C279   C     0.67455   0.71889   0.46454   0.00000  Uiso   1.00
C280   C     0.64996   0.81243   0.43382   0.00000  Uiso   1.00
C281   C     0.62485   0.95951   0.36850   0.00000  Uiso   1.00
C282   C     0.63126   0.48642   0.56341   0.00000  Uiso   1.00
C283   C     0.63471   0.35610   0.55368   0.00000  Uiso   1.00
C284   C     0.59190   0.28373   0.56373   0.00000  Uiso   1.00
C285   C     0.53319   0.12482   0.57363   0.00000  Uiso   1.00
C286   C     0.67986   0.65057   0.61123   0.00000  Uiso   1.00
C287   C     0.72417   0.65825   0.64172   0.00000  Uiso   1.00
C288   C     0.72227   0.72407   0.69205   0.00000  Uiso   1.00
C289   C     0.73902   0.82003   0.77619   0.00000  Uiso   1.00
C290   C     0.59128   0.68647   0.59035   0.00000  Uiso   1.00
C291   C     0.60828   0.73956   0.53409   0.00000  Uiso   1.00
C292   C     0.58365   0.83308   0.50345   0.00000  Uiso   1.00
C293   C     0.60526   0.86859   0.45296   0.00000  Uiso   1.00
C294   C     0.58664   0.54247   0.58251   0.00000  Uiso   1.00
C295   C     0.54381   0.47028   0.59259   0.00000  Uiso   1.00
C296   C     0.54719   0.33989   0.58287   0.00000  Uiso   1.00
C297   C     0.63523   0.70663   0.63034   0.00000  Uiso   1.00
C298   C     0.63327   0.77244   0.68063   0.00000  Uiso   1.00
C299   C     0.67756   0.78022   0.71118   0.00000  Uiso   1.00
H300   H     0.70819   0.53961   0.54031   0.00000  Uiso   1.00
H301   H     0.70908   0.67548   0.44976   0.00000  Uiso   1.00
H302   H     0.66925   0.31274   0.53890   0.00000  Uiso   1.00
H303   H     0.75869   0.61486   0.62692   0.00000  Uiso   1.00
H304   H     0.69039   0.85080   0.35780   0.00000  Uiso   1.00
H305   H     0.60641   0.08595   0.54576   0.00000  Uiso   1.00
H306   H     0.79501   0.72300   0.73138   0.00000  Uiso   1.00
H307   H     0.55654   0.73011   0.60522   0.00000  Uiso   1.00
H308   H     0.54912   0.87644   0.51824   0.00000  Uiso   1.00
H309   H     0.50928   0.51370   0.60738   0.00000  Uiso   1.00
H310   H     0.59872   0.81581   0.69540   0.00000  Uiso   1.00
H311   H     0.56055   0.01390   0.41337   0.00000  Uiso   1.00
H312   H     0.47657   0.24904   0.60134   0.00000  Uiso   1.00
H313   H     0.66517   0.88611   0.78695   0.00000  Uiso   1.00
O314   O     0.62332   0.02514   0.32718   0.00000  Uiso   1.00
O315   O     0.51314   0.02168   0.57380   0.00000  Uiso   1.00
O316   O     0.76058   0.85749   0.81732   0.00000  Uiso   1.00
N317   N     0.66086   0.86912   0.38282   0.00000  Uiso   1.00
N318   N     0.58234   0.15403   0.55855   0.00000  Uiso   1.00
N319   N     0.75866   0.74960   0.73209   0.00000  Uiso   1.00
N320   N     0.59099   0.95688   0.41272   0.00000  Uiso   1.00
N321   N     0.51247   0.24180   0.58845   0.00000  Uiso   1.00
N322   N     0.68880   0.83736   0.76199   0.00000  Uiso   1.00
C323   C     0.82656   0.41674   0.55518   0.00000  Uiso   1.00
C324   C     0.84709   0.31650   0.51499   0.00000  Uiso   1.00
C325   C     0.82545   0.28111   0.46454   0.00000  Uiso   1.00
C326   C     0.85004   0.18757   0.43382   0.00000  Uiso   1.00
C327   C     0.87515   0.04049   0.36850   0.00000  Uiso   1.00
C328   C     0.86874   0.51358   0.56341   0.00000  Uiso   1.00
C329   C     0.86529   0.64390   0.55368   0.00000  Uiso   1.00
C330   C     0.90810   0.71627   0.56373   0.00000  Uiso   1.00
C331   C     0.96681   0.87518   0.57363   0.00000  Uiso   1.00
C332   C     0.82014   0.34943   0.61123   0.00000  Uiso   1.00
C333   C     0.77583   0.34175   0.64172   0.00000  Uiso   1.00
C334   C     0.77773   0.27593   0.69205   0.00000  Uiso   1.00
C335   C     0.76098   0.17997   0.77619   0.00000  Uiso   1.00
C336   C     0.90872   0.31353   0.59035   0.00000  Uiso   1.00
C337   C     0.89172   0.26044   0.53409   0.00000  Uiso   1.00
C338   C     0.91635   0.16692   0.50345   0.00000  Uiso   1.00
C339   C     0.89474   0.13141   0.45296   0.00000  Uiso   1.00
C340   C     0.91336   0.45753   0.58251   0.00000  Uiso   1.00
C341   C     0.95619   0.52972   0.59259   0.00000  Uiso   1.00
C342   C     0.95281   0.66011   0.58287   0.00000  Uiso   1.00
C343   C     0.86477   0.29337   0.63034   0.00000  Uiso   1.00
C344   C     0.86673   0.22756   0.68063   0.00000  Uiso   1.00
C345   C     0.82244   0.21978   0.71118   0.00000  Uiso   1.00
H346   H     0.79181   0.46039   0.54031   0.00000  Uiso   1.00
H347   H     0.79092   0.32452   0.44976   0.00000  Uiso   1.00
H348   H     0.83075   0.68726   0.53890   0.00000  Uiso   1.00
H349   H     0.74131   0.38514   0.62692   0.00000  Uiso   1.00
H350   H     0.80961   0.14920   0.35780   0.00000  Uiso   1.00
H351   H     0.89359   0.91405   0.54576   0.00000  Uiso   1.00
H352   H     0.70499   0.27700   0.73138   0.00000  Uiso   1.00
H353   H     0.94346   0.26989   0.60522   0.00000  Uiso   1.00
H354   H     0.95088   0.12356   0.51824   0.00000  Uiso   1.00
H355   H     0.99072   0.48630   0.60738   0.00000  Uiso   1.00
H356   H     0.90128   0.18419   0.69540   0.00000  Uiso   1.00
H357   H     0.93945   0.98610   0.41337   0.00000  Uiso   1.00
H358   H     0.02343   0.75096   0.60134   0.00000  Uiso   1.00
H359   H     0.83483   0.11389   0.78695   0.00000  Uiso   1.00
O360   O     0.87668   0.97486   0.32718   0.00000  Uiso   1.00
O361   O     0.98686   0.97832   0.57380   0.00000  Uiso   1.00
O362   O     0.73942   0.14251   0.81732   0.00000  Uiso   1.00
N363   N     0.83914   0.13088   0.38282   0.00000  Uiso   1.00
N364   N     0.91766   0.84597   0.55855   0.00000  Uiso   1.00
N365   N     0.74134   0.25040   0.73209   0.00000  Uiso   1.00
N366   N     0.90901   0.04312   0.41272   0.00000  Uiso   1.00
N367   N     0.98753   0.75820   0.58845   0.00000  Uiso   1.00
N368   N     0.81120   0.16264   0.76199   0.00000  Uiso   1.00
