data_job_05569
_audit_creation_date              2018-12-19
_audit_creation_method            'Materials Studio'
_symmetry_space_group_name_H-M    'P1'
_symmetry_Int_Tables_number       1
_symmetry_cell_setting            triclinic
loop_
_symmetry_equiv_pos_as_xyz
  x,y,z
_cell_length_a                    13.9076
_cell_length_b                    20.3667
_cell_length_c                    21.3899
_cell_angle_alpha                 90.0000
_cell_angle_beta                  75.9352
_cell_angle_gamma                 90.0000
loop_
_atom_site_label
_atom_site_type_symbol
_atom_site_fract_x
_atom_site_fract_y
_atom_site_fract_z
_atom_site_U_iso_or_equiv
_atom_site_adp_type
_atom_site_occupancy
C1     C     0.81165   0.96252   0.31831   0.00000  Uiso   1.00
C2     C     0.72738   0.00685   0.35345   0.00000  Uiso   1.00
C3     C     0.73744   0.06222   0.38914   0.00000  Uiso   1.00
C4     C     0.65132   0.09614   0.41757   0.00000  Uiso   1.00
C5     C     0.53457   0.16811   0.47323   0.00000  Uiso   1.00
C6     C     0.78509   0.89350   0.34448   0.00000  Uiso   1.00
C7     C     0.84367   0.85357   0.37263   0.00000  Uiso   1.00
C8     C     0.80613   0.79207   0.39351   0.00000  Uiso   1.00
C9     C     0.77901   0.68804   0.43520   0.00000  Uiso   1.00
C10    C     0.80542   0.96102   0.24813   0.00000  Uiso   1.00
C11    C     0.88112   0.97783   0.19525   0.00000  Uiso   1.00
C12    C     0.86071   0.97316   0.13501   0.00000  Uiso   1.00
C13    C     0.86517   0.97396   0.02710   0.00000  Uiso   1.00
C14    C     0.64082   0.92430   0.30535   0.00000  Uiso   1.00
C15    C     0.63459   0.98609   0.34641   0.00000  Uiso   1.00
C16    C     0.54843   0.01993   0.37479   0.00000  Uiso   1.00
C17    C     0.55836   0.07534   0.41052   0.00000  Uiso   1.00
C18    C     0.69230   0.87274   0.33744   0.00000  Uiso   1.00
C19    C     0.65467   0.81128   0.35829   0.00000  Uiso   1.00
C20    C     0.71318   0.77127   0.38646   0.00000  Uiso   1.00
C21    C     0.71264   0.94026   0.24109   0.00000  Uiso   1.00
C22    C     0.69211   0.93555   0.18092   0.00000  Uiso   1.00
C23    C     0.76776   0.95236   0.12796   0.00000  Uiso   1.00
H24    H     0.88389   0.97868   0.32380   0.00000  Uiso   1.00
H25    H     0.80926   0.07827   0.39458   0.00000  Uiso   1.00
H26    H     0.91548   0.86965   0.37806   0.00000  Uiso   1.00
H27    H     0.95291   0.99390   0.20072   0.00000  Uiso   1.00
H28    H     0.68559   0.17951   0.46997   0.00000  Uiso   1.00
H29    H     0.90958   0.73961   0.43513   0.00000  Uiso   1.00
H30    H     0.98852   0.00162   0.06116   0.00000  Uiso   1.00
H31    H     0.56858   0.90813   0.29987   0.00000  Uiso   1.00
H32    H     0.47664   0.00385   0.36934   0.00000  Uiso   1.00
H33    H     0.58287   0.79523   0.35283   0.00000  Uiso   1.00
H34    H     0.62030   0.91948   0.17548   0.00000  Uiso   1.00
H35    H     0.41562   0.11911   0.44949   0.00000  Uiso   1.00
H36    H     0.63962   0.67921   0.41464   0.00000  Uiso   1.00
H37    H     0.71855   0.94122   0.04068   0.00000  Uiso   1.00
O38    O     0.49581   0.21353   0.50588   0.00000  Uiso   1.00
O39    O     0.78969   0.63640   0.46015   0.00000  Uiso   1.00
O40    O     0.89325   0.98015   0.96953   0.00000  Uiso   1.00
N41    N     0.63467   0.15216   0.45560   0.00000  Uiso   1.00
N42    N     0.84408   0.74089   0.42304   0.00000  Uiso   1.00
N43    N     0.91789   0.98583   0.07341   0.00000  Uiso   1.00
N44    N     0.48940   0.11966   0.44458   0.00000  Uiso   1.00
N45    N     0.69882   0.70839   0.41201   0.00000  Uiso   1.00
N46    N     0.77263   0.95333   0.06239   0.00000  Uiso   1.00
C47    C     0.31165   0.46252   0.31831   0.00000  Uiso   1.00
C48    C     0.22738   0.50685   0.35345   0.00000  Uiso   1.00
C49    C     0.23744   0.56222   0.38914   0.00000  Uiso   1.00
C50    C     0.15132   0.59614   0.41757   0.00000  Uiso   1.00
C51    C     0.03457   0.66811   0.47323   0.00000  Uiso   1.00
C52    C     0.28509   0.39350   0.34448   0.00000  Uiso   1.00
C53    C     0.34367   0.35357   0.37263   0.00000  Uiso   1.00
C54    C     0.30613   0.29207   0.39351   0.00000  Uiso   1.00
C55    C     0.27901   0.18804   0.43520   0.00000  Uiso   1.00
C56    C     0.30542   0.46102   0.24813   0.00000  Uiso   1.00
C57    C     0.38112   0.47783   0.19525   0.00000  Uiso   1.00
C58    C     0.36071   0.47316   0.13501   0.00000  Uiso   1.00
C59    C     0.36517   0.47396   0.02710   0.00000  Uiso   1.00
C60    C     0.14082   0.42430   0.30535   0.00000  Uiso   1.00
C61    C     0.13459   0.48609   0.34641   0.00000  Uiso   1.00
C62    C     0.04843   0.51993   0.37479   0.00000  Uiso   1.00
C63    C     0.05836   0.57534   0.41052   0.00000  Uiso   1.00
C64    C     0.19230   0.37274   0.33744   0.00000  Uiso   1.00
C65    C     0.15467   0.31128   0.35829   0.00000  Uiso   1.00
C66    C     0.21318   0.27127   0.38646   0.00000  Uiso   1.00
C67    C     0.21264   0.44026   0.24109   0.00000  Uiso   1.00
C68    C     0.19211   0.43555   0.18092   0.00000  Uiso   1.00
C69    C     0.26776   0.45236   0.12796   0.00000  Uiso   1.00
H70    H     0.38389   0.47868   0.32380   0.00000  Uiso   1.00
H71    H     0.30926   0.57827   0.39458   0.00000  Uiso   1.00
H72    H     0.41548   0.36965   0.37806   0.00000  Uiso   1.00
H73    H     0.45291   0.49390   0.20072   0.00000  Uiso   1.00
H74    H     0.18559   0.67951   0.46997   0.00000  Uiso   1.00
H75    H     0.40958   0.23961   0.43513   0.00000  Uiso   1.00
H76    H     0.48852   0.50162   0.06116   0.00000  Uiso   1.00
H77    H     0.06858   0.40813   0.29987   0.00000  Uiso   1.00
H78    H     0.97664   0.50385   0.36934   0.00000  Uiso   1.00
H79    H     0.08287   0.29523   0.35283   0.00000  Uiso   1.00
H80    H     0.12030   0.41948   0.17548   0.00000  Uiso   1.00
H81    H     0.91562   0.61911   0.44949   0.00000  Uiso   1.00
H82    H     0.13962   0.17921   0.41464   0.00000  Uiso   1.00
H83    H     0.21855   0.44122   0.04068   0.00000  Uiso   1.00
O84    O     0.99581   0.71353   0.50588   0.00000  Uiso   1.00
O85    O     0.28969   0.13640   0.46015   0.00000  Uiso   1.00
O86    O     0.39325   0.48015   0.96953   0.00000  Uiso   1.00
N87    N     0.13467   0.65216   0.45560   0.00000  Uiso   1.00
N88    N     0.34408   0.24089   0.42304   0.00000  Uiso   1.00
N89    N     0.41789   0.48583   0.07341   0.00000  Uiso   1.00
N90    N     0.98940   0.61966   0.44458   0.00000  Uiso   1.00
N91    N     0.19882   0.20839   0.41201   0.00000  Uiso   1.00
N92    N     0.27263   0.45333   0.06239   0.00000  Uiso   1.00
C93    C     0.18835   0.96252   0.18169   0.00000  Uiso   1.00
C94    C     0.27262   0.00685   0.14655   0.00000  Uiso   1.00
C95    C     0.26256   0.06222   0.11086   0.00000  Uiso   1.00
C96    C     0.34868   0.09614   0.08243   0.00000  Uiso   1.00
C97    C     0.46543   0.16811   0.02677   0.00000  Uiso   1.00
C98    C     0.21491   0.89350   0.15552   0.00000  Uiso   1.00
C99    C     0.15633   0.85357   0.12737   0.00000  Uiso   1.00
C100   C     0.19387   0.79207   0.10649   0.00000  Uiso   1.00
C101   C     0.22099   0.68804   0.06480   0.00000  Uiso   1.00
C102   C     0.19458   0.96102   0.25187   0.00000  Uiso   1.00
C103   C     0.11888   0.97783   0.30475   0.00000  Uiso   1.00
C104   C     0.13929   0.97316   0.36499   0.00000  Uiso   1.00
C105   C     0.13483   0.97396   0.47290   0.00000  Uiso   1.00
C106   C     0.35918   0.92430   0.19465   0.00000  Uiso   1.00
C107   C     0.36541   0.98609   0.15359   0.00000  Uiso   1.00
C108   C     0.45157   0.01993   0.12521   0.00000  Uiso   1.00
C109   C     0.44164   0.07534   0.08948   0.00000  Uiso   1.00
C110   C     0.30770   0.87274   0.16256   0.00000  Uiso   1.00
C111   C     0.34533   0.81128   0.14171   0.00000  Uiso   1.00
C112   C     0.28682   0.77127   0.11354   0.00000  Uiso   1.00
C113   C     0.28736   0.94026   0.25891   0.00000  Uiso   1.00
C114   C     0.30789   0.93555   0.31908   0.00000  Uiso   1.00
C115   C     0.23224   0.95236   0.37204   0.00000  Uiso   1.00
H116   H     0.11611   0.97868   0.17620   0.00000  Uiso   1.00
H117   H     0.19074   0.07827   0.10542   0.00000  Uiso   1.00
H118   H     0.08452   0.86965   0.12194   0.00000  Uiso   1.00
H119   H     0.04709   0.99390   0.29928   0.00000  Uiso   1.00
H120   H     0.31441   0.17951   0.03003   0.00000  Uiso   1.00
H121   H     0.09042   0.73961   0.06487   0.00000  Uiso   1.00
H122   H     0.01148   0.00162   0.43884   0.00000  Uiso   1.00
H123   H     0.43142   0.90813   0.20013   0.00000  Uiso   1.00
H124   H     0.52336   0.00385   0.13066   0.00000  Uiso   1.00
H125   H     0.41713   0.79523   0.14717   0.00000  Uiso   1.00
H126   H     0.37970   0.91948   0.32452   0.00000  Uiso   1.00
H127   H     0.58438   0.11911   0.05051   0.00000  Uiso   1.00
H128   H     0.36038   0.67921   0.08536   0.00000  Uiso   1.00
H129   H     0.28145   0.94122   0.45932   0.00000  Uiso   1.00
O130   O     0.50419   0.21353   0.99412   0.00000  Uiso   1.00
O131   O     0.21031   0.63640   0.03985   0.00000  Uiso   1.00
O132   O     0.10675   0.98015   0.53047   0.00000  Uiso   1.00
N133   N     0.36533   0.15216   0.04440   0.00000  Uiso   1.00
N134   N     0.15592   0.74089   0.07696   0.00000  Uiso   1.00
N135   N     0.08211   0.98583   0.42659   0.00000  Uiso   1.00
N136   N     0.51060   0.11966   0.05542   0.00000  Uiso   1.00
N137   N     0.30118   0.70839   0.08799   0.00000  Uiso   1.00
N138   N     0.22737   0.95333   0.43761   0.00000  Uiso   1.00
C139   C     0.68835   0.46252   0.18169   0.00000  Uiso   1.00
C140   C     0.77262   0.50685   0.14655   0.00000  Uiso   1.00
C141   C     0.76256   0.56222   0.11086   0.00000  Uiso   1.00
C142   C     0.84868   0.59614   0.08243   0.00000  Uiso   1.00
C143   C     0.96543   0.66811   0.02677   0.00000  Uiso   1.00
C144   C     0.71491   0.39350   0.15552   0.00000  Uiso   1.00
C145   C     0.65633   0.35357   0.12737   0.00000  Uiso   1.00
C146   C     0.69387   0.29207   0.10649   0.00000  Uiso   1.00
C147   C     0.72099   0.18804   0.06480   0.00000  Uiso   1.00
C148   C     0.69458   0.46102   0.25187   0.00000  Uiso   1.00
C149   C     0.61888   0.47783   0.30475   0.00000  Uiso   1.00
C150   C     0.63929   0.47316   0.36499   0.00000  Uiso   1.00
C151   C     0.63483   0.47396   0.47290   0.00000  Uiso   1.00
C152   C     0.85918   0.42430   0.19465   0.00000  Uiso   1.00
C153   C     0.86541   0.48609   0.15359   0.00000  Uiso   1.00
C154   C     0.95157   0.51993   0.12521   0.00000  Uiso   1.00
C155   C     0.94164   0.57534   0.08948   0.00000  Uiso   1.00
C156   C     0.80770   0.37274   0.16256   0.00000  Uiso   1.00
C157   C     0.84533   0.31128   0.14171   0.00000  Uiso   1.00
C158   C     0.78682   0.27127   0.11354   0.00000  Uiso   1.00
C159   C     0.78736   0.44026   0.25891   0.00000  Uiso   1.00
C160   C     0.80789   0.43555   0.31908   0.00000  Uiso   1.00
C161   C     0.73224   0.45236   0.37204   0.00000  Uiso   1.00
H162   H     0.61611   0.47868   0.17620   0.00000  Uiso   1.00
H163   H     0.69074   0.57827   0.10542   0.00000  Uiso   1.00
H164   H     0.58452   0.36965   0.12194   0.00000  Uiso   1.00
H165   H     0.54709   0.49390   0.29928   0.00000  Uiso   1.00
H166   H     0.81441   0.67951   0.03003   0.00000  Uiso   1.00
H167   H     0.59042   0.23961   0.06487   0.00000  Uiso   1.00
H168   H     0.51148   0.50162   0.43884   0.00000  Uiso   1.00
H169   H     0.93142   0.40813   0.20013   0.00000  Uiso   1.00
H170   H     0.02336   0.50385   0.13066   0.00000  Uiso   1.00
H171   H     0.91713   0.29523   0.14717   0.00000  Uiso   1.00
H172   H     0.87970   0.41948   0.32452   0.00000  Uiso   1.00
H173   H     0.08438   0.61911   0.05051   0.00000  Uiso   1.00
H174   H     0.86038   0.17921   0.08536   0.00000  Uiso   1.00
H175   H     0.78145   0.44122   0.45932   0.00000  Uiso   1.00
O176   O     0.00419   0.71353   0.99412   0.00000  Uiso   1.00
O177   O     0.71031   0.13640   0.03985   0.00000  Uiso   1.00
O178   O     0.60675   0.48015   0.53047   0.00000  Uiso   1.00
N179   N     0.86533   0.65216   0.04440   0.00000  Uiso   1.00
N180   N     0.65592   0.24089   0.07696   0.00000  Uiso   1.00
N181   N     0.58211   0.48583   0.42659   0.00000  Uiso   1.00
N182   N     0.01060   0.61966   0.05542   0.00000  Uiso   1.00
N183   N     0.80118   0.20839   0.08799   0.00000  Uiso   1.00
N184   N     0.72737   0.45333   0.43761   0.00000  Uiso   1.00
C185   C     0.18835   0.03748   0.68169   0.00000  Uiso   1.00
C186   C     0.27262   0.99315   0.64655   0.00000  Uiso   1.00
C187   C     0.26256   0.93778   0.61086   0.00000  Uiso   1.00
C188   C     0.34868   0.90386   0.58243   0.00000  Uiso   1.00
C189   C     0.46543   0.83189   0.52677   0.00000  Uiso   1.00
C190   C     0.21491   0.10650   0.65552   0.00000  Uiso   1.00
C191   C     0.15633   0.14643   0.62737   0.00000  Uiso   1.00
C192   C     0.19387   0.20793   0.60649   0.00000  Uiso   1.00
C193   C     0.22099   0.31196   0.56480   0.00000  Uiso   1.00
C194   C     0.19458   0.03898   0.75187   0.00000  Uiso   1.00
C195   C     0.11888   0.02217   0.80475   0.00000  Uiso   1.00
C196   C     0.13929   0.02684   0.86499   0.00000  Uiso   1.00
C197   C     0.13483   0.02604   0.97290   0.00000  Uiso   1.00
C198   C     0.35918   0.07570   0.69465   0.00000  Uiso   1.00
C199   C     0.36541   0.01391   0.65359   0.00000  Uiso   1.00
C200   C     0.45157   0.98007   0.62521   0.00000  Uiso   1.00
C201   C     0.44164   0.92466   0.58948   0.00000  Uiso   1.00
C202   C     0.30770   0.12726   0.66256   0.00000  Uiso   1.00
C203   C     0.34533   0.18872   0.64171   0.00000  Uiso   1.00
C204   C     0.28682   0.22873   0.61354   0.00000  Uiso   1.00
C205   C     0.28736   0.05974   0.75891   0.00000  Uiso   1.00
C206   C     0.30789   0.06445   0.81908   0.00000  Uiso   1.00
C207   C     0.23224   0.04764   0.87204   0.00000  Uiso   1.00
H208   H     0.11611   0.02132   0.67620   0.00000  Uiso   1.00
H209   H     0.19074   0.92173   0.60542   0.00000  Uiso   1.00
H210   H     0.08452   0.13035   0.62194   0.00000  Uiso   1.00
H211   H     0.04709   0.00610   0.79928   0.00000  Uiso   1.00
H212   H     0.31441   0.82049   0.53003   0.00000  Uiso   1.00
H213   H     0.09042   0.26039   0.56487   0.00000  Uiso   1.00
H214   H     0.01148   0.99838   0.93884   0.00000  Uiso   1.00
H215   H     0.43142   0.09187   0.70013   0.00000  Uiso   1.00
H216   H     0.52336   0.99615   0.63066   0.00000  Uiso   1.00
H217   H     0.41713   0.20477   0.64717   0.00000  Uiso   1.00
H218   H     0.37970   0.08052   0.82452   0.00000  Uiso   1.00
H219   H     0.58438   0.88089   0.55051   0.00000  Uiso   1.00
H220   H     0.36038   0.32079   0.58536   0.00000  Uiso   1.00
H221   H     0.28145   0.05878   0.95932   0.00000  Uiso   1.00
O222   O     0.50419   0.78647   0.49412   0.00000  Uiso   1.00
O223   O     0.21031   0.36360   0.53985   0.00000  Uiso   1.00
O224   O     0.10675   0.01985   0.03047   0.00000  Uiso   1.00
N225   N     0.36533   0.84784   0.54440   0.00000  Uiso   1.00
N226   N     0.15592   0.25911   0.57696   0.00000  Uiso   1.00
N227   N     0.08211   0.01417   0.92659   0.00000  Uiso   1.00
N228   N     0.51060   0.88034   0.55542   0.00000  Uiso   1.00
N229   N     0.30118   0.29161   0.58799   0.00000  Uiso   1.00
N230   N     0.22737   0.04667   0.93761   0.00000  Uiso   1.00
C231   C     0.68835   0.53748   0.68169   0.00000  Uiso   1.00
C232   C     0.77262   0.49315   0.64655   0.00000  Uiso   1.00
C233   C     0.76256   0.43778   0.61086   0.00000  Uiso   1.00
C234   C     0.84868   0.40386   0.58243   0.00000  Uiso   1.00
C235   C     0.96543   0.33189   0.52677   0.00000  Uiso   1.00
C236   C     0.71491   0.60650   0.65552   0.00000  Uiso   1.00
C237   C     0.65633   0.64643   0.62737   0.00000  Uiso   1.00
C238   C     0.69387   0.70793   0.60649   0.00000  Uiso   1.00
C239   C     0.72099   0.81196   0.56480   0.00000  Uiso   1.00
C240   C     0.69458   0.53898   0.75187   0.00000  Uiso   1.00
C241   C     0.61888   0.52217   0.80475   0.00000  Uiso   1.00
C242   C     0.63929   0.52684   0.86499   0.00000  Uiso   1.00
C243   C     0.63483   0.52604   0.97290   0.00000  Uiso   1.00
C244   C     0.85918   0.57570   0.69465   0.00000  Uiso   1.00
C245   C     0.86541   0.51391   0.65359   0.00000  Uiso   1.00
C246   C     0.95157   0.48007   0.62521   0.00000  Uiso   1.00
C247   C     0.94164   0.42466   0.58948   0.00000  Uiso   1.00
C248   C     0.80770   0.62726   0.66256   0.00000  Uiso   1.00
C249   C     0.84533   0.68872   0.64171   0.00000  Uiso   1.00
C250   C     0.78682   0.72873   0.61354   0.00000  Uiso   1.00
C251   C     0.78736   0.55974   0.75891   0.00000  Uiso   1.00
C252   C     0.80789   0.56445   0.81908   0.00000  Uiso   1.00
C253   C     0.73224   0.54764   0.87204   0.00000  Uiso   1.00
H254   H     0.61611   0.52132   0.67620   0.00000  Uiso   1.00
H255   H     0.69074   0.42173   0.60542   0.00000  Uiso   1.00
H256   H     0.58452   0.63035   0.62194   0.00000  Uiso   1.00
H257   H     0.54709   0.50610   0.79928   0.00000  Uiso   1.00
H258   H     0.81441   0.32049   0.53003   0.00000  Uiso   1.00
H259   H     0.59042   0.76039   0.56487   0.00000  Uiso   1.00
H260   H     0.51148   0.49838   0.93884   0.00000  Uiso   1.00
H261   H     0.93142   0.59187   0.70013   0.00000  Uiso   1.00
H262   H     0.02336   0.49615   0.63066   0.00000  Uiso   1.00
H263   H     0.91713   0.70477   0.64717   0.00000  Uiso   1.00
H264   H     0.87970   0.58052   0.82452   0.00000  Uiso   1.00
H265   H     0.08438   0.38089   0.55051   0.00000  Uiso   1.00
H266   H     0.86038   0.82079   0.58536   0.00000  Uiso   1.00
H267   H     0.78145   0.55878   0.95932   0.00000  Uiso   1.00
O268   O     0.00419   0.28647   0.49412   0.00000  Uiso   1.00
O269   O     0.71031   0.86360   0.53985   0.00000  Uiso   1.00
O270   O     0.60675   0.51985   0.03047   0.00000  Uiso   1.00
N271   N     0.86533   0.34784   0.54440   0.00000  Uiso   1.00
N272   N     0.65592   0.75911   0.57696   0.00000  Uiso   1.00
N273   N     0.58211   0.51417   0.92659   0.00000  Uiso   1.00
N274   N     0.01060   0.38034   0.55542   0.00000  Uiso   1.00
N275   N     0.80118   0.79161   0.58799   0.00000  Uiso   1.00
N276   N     0.72737   0.54667   0.93761   0.00000  Uiso   1.00
C277   C     0.81165   0.03748   0.81831   0.00000  Uiso   1.00
C278   C     0.72738   0.99315   0.85345   0.00000  Uiso   1.00
C279   C     0.73744   0.93778   0.88914   0.00000  Uiso   1.00
C280   C     0.65132   0.90386   0.91757   0.00000  Uiso   1.00
C281   C     0.53457   0.83189   0.97323   0.00000  Uiso   1.00
C282   C     0.78509   0.10650   0.84448   0.00000  Uiso   1.00
C283   C     0.84367   0.14643   0.87263   0.00000  Uiso   1.00
C284   C     0.80613   0.20793   0.89351   0.00000  Uiso   1.00
C285   C     0.77901   0.31196   0.93520   0.00000  Uiso   1.00
C286   C     0.80542   0.03898   0.74813   0.00000  Uiso   1.00
C287   C     0.88112   0.02217   0.69525   0.00000  Uiso   1.00
C288   C     0.86071   0.02684   0.63501   0.00000  Uiso   1.00
C289   C     0.86517   0.02604   0.52710   0.00000  Uiso   1.00
C290   C     0.64082   0.07570   0.80535   0.00000  Uiso   1.00
C291   C     0.63459   0.01391   0.84641   0.00000  Uiso   1.00
C292   C     0.54843   0.98007   0.87479   0.00000  Uiso   1.00
C293   C     0.55836   0.92466   0.91052   0.00000  Uiso   1.00
C294   C     0.69230   0.12726   0.83744   0.00000  Uiso   1.00
C295   C     0.65467   0.18872   0.85829   0.00000  Uiso   1.00
C296   C     0.71318   0.22873   0.88646   0.00000  Uiso   1.00
C297   C     0.71264   0.05974   0.74109   0.00000  Uiso   1.00
C298   C     0.69211   0.06445   0.68092   0.00000  Uiso   1.00
C299   C     0.76776   0.04764   0.62796   0.00000  Uiso   1.00
H300   H     0.88389   0.02132   0.82380   0.00000  Uiso   1.00
H301   H     0.80926   0.92173   0.89458   0.00000  Uiso   1.00
H302   H     0.91548   0.13035   0.87806   0.00000  Uiso   1.00
H303   H     0.95291   0.00610   0.70072   0.00000  Uiso   1.00
H304   H     0.68559   0.82049   0.96997   0.00000  Uiso   1.00
H305   H     0.90958   0.26039   0.93513   0.00000  Uiso   1.00
H306   H     0.98852   0.99838   0.56116   0.00000  Uiso   1.00
H307   H     0.56858   0.09187   0.79987   0.00000  Uiso   1.00
H308   H     0.47664   0.99615   0.86934   0.00000  Uiso   1.00
H309   H     0.58287   0.20477   0.85283   0.00000  Uiso   1.00
H310   H     0.62030   0.08052   0.67548   0.00000  Uiso   1.00
H311   H     0.41562   0.88089   0.94949   0.00000  Uiso   1.00
H312   H     0.63962   0.32079   0.91464   0.00000  Uiso   1.00
H313   H     0.71855   0.05878   0.54068   0.00000  Uiso   1.00
O314   O     0.49581   0.78647   0.00588   0.00000  Uiso   1.00
O315   O     0.78969   0.36360   0.96015   0.00000  Uiso   1.00
O316   O     0.89325   0.01985   0.46953   0.00000  Uiso   1.00
N317   N     0.63467   0.84784   0.95560   0.00000  Uiso   1.00
N318   N     0.84408   0.25911   0.92304   0.00000  Uiso   1.00
N319   N     0.91789   0.01417   0.57341   0.00000  Uiso   1.00
N320   N     0.48940   0.88034   0.94458   0.00000  Uiso   1.00
N321   N     0.69882   0.29161   0.91201   0.00000  Uiso   1.00
N322   N     0.77263   0.04667   0.56239   0.00000  Uiso   1.00
C323   C     0.31165   0.53748   0.81831   0.00000  Uiso   1.00
C324   C     0.22738   0.49315   0.85345   0.00000  Uiso   1.00
C325   C     0.23744   0.43778   0.88914   0.00000  Uiso   1.00
C326   C     0.15132   0.40386   0.91757   0.00000  Uiso   1.00
C327   C     0.03457   0.33189   0.97323   0.00000  Uiso   1.00
C328   C     0.28509   0.60650   0.84448   0.00000  Uiso   1.00
C329   C     0.34367   0.64643   0.87263   0.00000  Uiso   1.00
C330   C     0.30613   0.70793   0.89351   0.00000  Uiso   1.00
C331   C     0.27901   0.81196   0.93520   0.00000  Uiso   1.00
C332   C     0.30542   0.53898   0.74813   0.00000  Uiso   1.00
C333   C     0.38112   0.52217   0.69525   0.00000  Uiso   1.00
C334   C     0.36071   0.52684   0.63501   0.00000  Uiso   1.00
C335   C     0.36517   0.52604   0.52710   0.00000  Uiso   1.00
C336   C     0.14082   0.57570   0.80535   0.00000  Uiso   1.00
C337   C     0.13459   0.51391   0.84641   0.00000  Uiso   1.00
C338   C     0.04843   0.48007   0.87479   0.00000  Uiso   1.00
C339   C     0.05836   0.42466   0.91052   0.00000  Uiso   1.00
C340   C     0.19230   0.62726   0.83744   0.00000  Uiso   1.00
C341   C     0.15467   0.68872   0.85829   0.00000  Uiso   1.00
C342   C     0.21318   0.72873   0.88646   0.00000  Uiso   1.00
C343   C     0.21264   0.55974   0.74109   0.00000  Uiso   1.00
C344   C     0.19211   0.56445   0.68092   0.00000  Uiso   1.00
C345   C     0.26776   0.54764   0.62796   0.00000  Uiso   1.00
H346   H     0.38389   0.52132   0.82380   0.00000  Uiso   1.00
H347   H     0.30926   0.42173   0.89458   0.00000  Uiso   1.00
H348   H     0.41548   0.63035   0.87806   0.00000  Uiso   1.00
H349   H     0.45291   0.50610   0.70072   0.00000  Uiso   1.00
H350   H     0.18559   0.32049   0.96997   0.00000  Uiso   1.00
H351   H     0.40958   0.76039   0.93513   0.00000  Uiso   1.00
H352   H     0.48852   0.49838   0.56116   0.00000  Uiso   1.00
H353   H     0.06858   0.59187   0.79987   0.00000  Uiso   1.00
H354   H     0.97664   0.49615   0.86934   0.00000  Uiso   1.00
H355   H     0.08287   0.70477   0.85283   0.00000  Uiso   1.00
H356   H     0.12030   0.58052   0.67548   0.00000  Uiso   1.00
H357   H     0.91562   0.38089   0.94949   0.00000  Uiso   1.00
H358   H     0.13962   0.82079   0.91464   0.00000  Uiso   1.00
H359   H     0.21855   0.55878   0.54068   0.00000  Uiso   1.00
O360   O     0.99581   0.28647   0.00588   0.00000  Uiso   1.00
O361   O     0.28969   0.86360   0.96015   0.00000  Uiso   1.00
O362   O     0.39325   0.51985   0.46953   0.00000  Uiso   1.00
N363   N     0.13467   0.34784   0.95560   0.00000  Uiso   1.00
N364   N     0.34408   0.75911   0.92304   0.00000  Uiso   1.00
N365   N     0.41789   0.51417   0.57341   0.00000  Uiso   1.00
N366   N     0.98940   0.38034   0.94458   0.00000  Uiso   1.00
N367   N     0.19882   0.79161   0.91201   0.00000  Uiso   1.00
N368   N     0.27263   0.54667   0.56239   0.00000  Uiso   1.00
