data_job_02129
_audit_creation_date              2018-12-19
_audit_creation_method            'Materials Studio'
_symmetry_space_group_name_H-M    'P1'
_symmetry_Int_Tables_number       1
_symmetry_cell_setting            triclinic
loop_
_symmetry_equiv_pos_as_xyz
  x,y,z
_cell_length_a                    20.9716
_cell_length_b                    14.9817
_cell_length_c                    15.1931
_cell_angle_alpha                 90.0000
_cell_angle_beta                  90.0000
_cell_angle_gamma                 90.0000
loop_
_atom_site_label
_atom_site_type_symbol
_atom_site_fract_x
_atom_site_fract_y
_atom_site_fract_z
_atom_site_U_iso_or_equiv
_atom_site_adp_type
_atom_site_occupancy
C1     C     0.49554   0.25629   0.21466   0.00000  Uiso   1.00
C2     C     0.53000   0.28815   0.13205   0.00000  Uiso   1.00
C3     C     0.59536   0.29978   0.12356   0.00000  Uiso   1.00
C4     C     0.61755   0.32947   0.04259   0.00000  Uiso   1.00
C5     C     0.67741   0.37634   0.92497   0.00000  Uiso   1.00
C6     C     0.44668   0.32834   0.23653   0.00000  Uiso   1.00
C7     C     0.44198   0.37375   0.31589   0.00000  Uiso   1.00
C8     C     0.39403   0.43726   0.32287   0.00000  Uiso   1.00
C9     C     0.32450   0.54648   0.36748   0.00000  Uiso   1.00
C10    C     0.45729   0.17432   0.18721   0.00000  Uiso   1.00
C11    C     0.46149   0.09024   0.22511   0.00000  Uiso   1.00
C12    C     0.42246   0.02408   0.19058   0.00000  Uiso   1.00
C13    C     0.36940   0.89417   0.15861   0.00000  Uiso   1.00
C14    C     0.41872   0.28830   0.08598   0.00000  Uiso   1.00
C15    C     0.48827   0.30554   0.06216   0.00000  Uiso   1.00
C16    C     0.51037   0.33521   0.98118   0.00000  Uiso   1.00
C17    C     0.57576   0.34689   0.97257   0.00000  Uiso   1.00
C18    C     0.40496   0.34573   0.16664   0.00000  Uiso   1.00
C19    C     0.35700   0.40918   0.17351   0.00000  Uiso   1.00
C20    C     0.35223   0.45468   0.25285   0.00000  Uiso   1.00
C21    C     0.41556   0.19171   0.11731   0.00000  Uiso   1.00
C22    C     0.37651   0.12567   0.08273   0.00000  Uiso   1.00
C23    C     0.38066   0.04150   0.12056   0.00000  Uiso   1.00
H24    H     0.52801   0.24275   0.26908   0.00000  Uiso   1.00
H25    H     0.62763   0.28633   0.17767   0.00000  Uiso   1.00
H26    H     0.47427   0.36027   0.36997   0.00000  Uiso   1.00
H27    H     0.49378   0.07681   0.27920   0.00000  Uiso   1.00
H28    H     0.71967   0.34234   0.04551   0.00000  Uiso   1.00
H29    H     0.39629   0.49824   0.45099   0.00000  Uiso   1.00
H30    H     0.43743   0.90050   0.25959   0.00000  Uiso   1.00
H31    H     0.38624   0.30185   0.03156   0.00000  Uiso   1.00
H32    H     0.47808   0.34866   0.92710   0.00000  Uiso   1.00
H33    H     0.32472   0.42261   0.11941   0.00000  Uiso   1.00
H34    H     0.34423   0.13915   0.02864   0.00000  Uiso   1.00
H35    H     0.59829   0.39294   0.84214   0.00000  Uiso   1.00
H36    H     0.27491   0.54884   0.24763   0.00000  Uiso   1.00
H37    H     0.31605   0.95110   0.05623   0.00000  Uiso   1.00
O38    O     0.72195   0.39740   0.87941   0.00000  Uiso   1.00
O39    O     0.29768   0.60192   0.41139   0.00000  Uiso   1.00
O40    O     0.35166   0.81770   0.16028   0.00000  Uiso   1.00
N41    N     0.67850   0.34781   0.01197   0.00000  Uiso   1.00
N42    N     0.37617   0.49357   0.39107   0.00000  Uiso   1.00
N43    N     0.41462   0.93474   0.21215   0.00000  Uiso   1.00
N44    N     0.61319   0.37503   0.90254   0.00000  Uiso   1.00
N45    N     0.31085   0.52080   0.28164   0.00000  Uiso   1.00
N46    N     0.34930   0.96197   0.10272   0.00000  Uiso   1.00
C47    C     0.00446   0.24371   0.21466   0.00000  Uiso   1.00
C48    C     0.97000   0.21185   0.13205   0.00000  Uiso   1.00
C49    C     0.90464   0.20022   0.12356   0.00000  Uiso   1.00
C50    C     0.88245   0.17053   0.04259   0.00000  Uiso   1.00
C51    C     0.82259   0.12366   0.92497   0.00000  Uiso   1.00
C52    C     0.05332   0.17166   0.23653   0.00000  Uiso   1.00
C53    C     0.05802   0.12625   0.31589   0.00000  Uiso   1.00
C54    C     0.10597   0.06274   0.32287   0.00000  Uiso   1.00
C55    C     0.17550   0.95352   0.36748   0.00000  Uiso   1.00
C56    C     0.04271   0.32568   0.18721   0.00000  Uiso   1.00
C57    C     0.03851   0.40976   0.22511   0.00000  Uiso   1.00
C58    C     0.07754   0.47592   0.19058   0.00000  Uiso   1.00
C59    C     0.13060   0.60583   0.15861   0.00000  Uiso   1.00
C60    C     0.08128   0.21170   0.08598   0.00000  Uiso   1.00
C61    C     0.01173   0.19446   0.06216   0.00000  Uiso   1.00
C62    C     0.98963   0.16479   0.98118   0.00000  Uiso   1.00
C63    C     0.92424   0.15311   0.97257   0.00000  Uiso   1.00
C64    C     0.09504   0.15427   0.16664   0.00000  Uiso   1.00
C65    C     0.14300   0.09082   0.17351   0.00000  Uiso   1.00
C66    C     0.14777   0.04532   0.25285   0.00000  Uiso   1.00
C67    C     0.08444   0.30829   0.11731   0.00000  Uiso   1.00
C68    C     0.12349   0.37433   0.08273   0.00000  Uiso   1.00
C69    C     0.11934   0.45850   0.12056   0.00000  Uiso   1.00
H70    H     0.97199   0.25725   0.26908   0.00000  Uiso   1.00
H71    H     0.87237   0.21367   0.17767   0.00000  Uiso   1.00
H72    H     0.02573   0.13973   0.36997   0.00000  Uiso   1.00
H73    H     0.00622   0.42319   0.27920   0.00000  Uiso   1.00
H74    H     0.78033   0.15766   0.04551   0.00000  Uiso   1.00
H75    H     0.10371   0.00176   0.45099   0.00000  Uiso   1.00
H76    H     0.06257   0.59950   0.25959   0.00000  Uiso   1.00
H77    H     0.11376   0.19815   0.03156   0.00000  Uiso   1.00
H78    H     0.02192   0.15134   0.92710   0.00000  Uiso   1.00
H79    H     0.17528   0.07739   0.11941   0.00000  Uiso   1.00
H80    H     0.15577   0.36085   0.02864   0.00000  Uiso   1.00
H81    H     0.90171   0.10706   0.84214   0.00000  Uiso   1.00
H82    H     0.22509   0.95116   0.24763   0.00000  Uiso   1.00
H83    H     0.18395   0.54890   0.05623   0.00000  Uiso   1.00
O84    O     0.77805   0.10260   0.87941   0.00000  Uiso   1.00
O85    O     0.20232   0.89808   0.41139   0.00000  Uiso   1.00
O86    O     0.14834   0.68230   0.16028   0.00000  Uiso   1.00
N87    N     0.82150   0.15219   0.01197   0.00000  Uiso   1.00
N88    N     0.12383   0.00643   0.39107   0.00000  Uiso   1.00
N89    N     0.08538   0.56526   0.21215   0.00000  Uiso   1.00
N90    N     0.88681   0.12497   0.90254   0.00000  Uiso   1.00
N91    N     0.18915   0.97920   0.28164   0.00000  Uiso   1.00
N92    N     0.15070   0.53803   0.10272   0.00000  Uiso   1.00
C93    C     0.50446   0.75629   0.28534   0.00000  Uiso   1.00
C94    C     0.47000   0.78815   0.36795   0.00000  Uiso   1.00
C95    C     0.40464   0.79978   0.37644   0.00000  Uiso   1.00
C96    C     0.38245   0.82947   0.45741   0.00000  Uiso   1.00
C97    C     0.32259   0.87634   0.57503   0.00000  Uiso   1.00
C98    C     0.55332   0.82834   0.26347   0.00000  Uiso   1.00
C99    C     0.55802   0.87375   0.18411   0.00000  Uiso   1.00
C100   C     0.60597   0.93726   0.17713   0.00000  Uiso   1.00
C101   C     0.67550   0.04648   0.13252   0.00000  Uiso   1.00
C102   C     0.54271   0.67432   0.31279   0.00000  Uiso   1.00
C103   C     0.53851   0.59024   0.27489   0.00000  Uiso   1.00
C104   C     0.57754   0.52408   0.30942   0.00000  Uiso   1.00
C105   C     0.63060   0.39417   0.34139   0.00000  Uiso   1.00
C106   C     0.58128   0.78830   0.41402   0.00000  Uiso   1.00
C107   C     0.51173   0.80554   0.43784   0.00000  Uiso   1.00
C108   C     0.48963   0.83521   0.51882   0.00000  Uiso   1.00
C109   C     0.42424   0.84689   0.52743   0.00000  Uiso   1.00
C110   C     0.59504   0.84573   0.33336   0.00000  Uiso   1.00
C111   C     0.64300   0.90918   0.32649   0.00000  Uiso   1.00
C112   C     0.64777   0.95468   0.24715   0.00000  Uiso   1.00
C113   C     0.58444   0.69171   0.38269   0.00000  Uiso   1.00
C114   C     0.62349   0.62567   0.41727   0.00000  Uiso   1.00
C115   C     0.61934   0.54150   0.37944   0.00000  Uiso   1.00
H116   H     0.47199   0.74275   0.23092   0.00000  Uiso   1.00
H117   H     0.37237   0.78633   0.32233   0.00000  Uiso   1.00
H118   H     0.52573   0.86027   0.13003   0.00000  Uiso   1.00
H119   H     0.50622   0.57681   0.22080   0.00000  Uiso   1.00
H120   H     0.28033   0.84234   0.45449   0.00000  Uiso   1.00
H121   H     0.60371   0.99824   0.04901   0.00000  Uiso   1.00
H122   H     0.56257   0.40050   0.24041   0.00000  Uiso   1.00
H123   H     0.61376   0.80185   0.46844   0.00000  Uiso   1.00
H124   H     0.52192   0.84866   0.57290   0.00000  Uiso   1.00
H125   H     0.67528   0.92261   0.38059   0.00000  Uiso   1.00
H126   H     0.65577   0.63915   0.47136   0.00000  Uiso   1.00
H127   H     0.40171   0.89294   0.65786   0.00000  Uiso   1.00
H128   H     0.72509   0.04884   0.25237   0.00000  Uiso   1.00
H129   H     0.68395   0.45110   0.44377   0.00000  Uiso   1.00
O130   O     0.27805   0.89740   0.62059   0.00000  Uiso   1.00
O131   O     0.70232   0.10192   0.08861   0.00000  Uiso   1.00
O132   O     0.64834   0.31770   0.33972   0.00000  Uiso   1.00
N133   N     0.32150   0.84781   0.48803   0.00000  Uiso   1.00
N134   N     0.62383   0.99357   0.10893   0.00000  Uiso   1.00
N135   N     0.58538   0.43474   0.28785   0.00000  Uiso   1.00
N136   N     0.38681   0.87503   0.59746   0.00000  Uiso   1.00
N137   N     0.68915   0.02080   0.21836   0.00000  Uiso   1.00
N138   N     0.65070   0.46197   0.39728   0.00000  Uiso   1.00
C139   C     0.99554   0.74371   0.28534   0.00000  Uiso   1.00
C140   C     0.03000   0.71185   0.36795   0.00000  Uiso   1.00
C141   C     0.09536   0.70022   0.37644   0.00000  Uiso   1.00
C142   C     0.11755   0.67053   0.45741   0.00000  Uiso   1.00
C143   C     0.17741   0.62366   0.57503   0.00000  Uiso   1.00
C144   C     0.94668   0.67166   0.26347   0.00000  Uiso   1.00
C145   C     0.94198   0.62625   0.18411   0.00000  Uiso   1.00
C146   C     0.89403   0.56274   0.17713   0.00000  Uiso   1.00
C147   C     0.82450   0.45352   0.13252   0.00000  Uiso   1.00
C148   C     0.95729   0.82568   0.31279   0.00000  Uiso   1.00
C149   C     0.96149   0.90976   0.27489   0.00000  Uiso   1.00
C150   C     0.92246   0.97592   0.30942   0.00000  Uiso   1.00
C151   C     0.86940   0.10583   0.34139   0.00000  Uiso   1.00
C152   C     0.91872   0.71170   0.41402   0.00000  Uiso   1.00
C153   C     0.98827   0.69446   0.43784   0.00000  Uiso   1.00
C154   C     0.01037   0.66479   0.51882   0.00000  Uiso   1.00
C155   C     0.07576   0.65311   0.52743   0.00000  Uiso   1.00
C156   C     0.90496   0.65427   0.33336   0.00000  Uiso   1.00
C157   C     0.85700   0.59082   0.32649   0.00000  Uiso   1.00
C158   C     0.85223   0.54532   0.24715   0.00000  Uiso   1.00
C159   C     0.91556   0.80829   0.38269   0.00000  Uiso   1.00
C160   C     0.87651   0.87433   0.41727   0.00000  Uiso   1.00
C161   C     0.88066   0.95850   0.37944   0.00000  Uiso   1.00
H162   H     0.02801   0.75725   0.23092   0.00000  Uiso   1.00
H163   H     0.12763   0.71367   0.32233   0.00000  Uiso   1.00
H164   H     0.97427   0.63973   0.13003   0.00000  Uiso   1.00
H165   H     0.99378   0.92319   0.22080   0.00000  Uiso   1.00
H166   H     0.21967   0.65766   0.45449   0.00000  Uiso   1.00
H167   H     0.89629   0.50176   0.04901   0.00000  Uiso   1.00
H168   H     0.93743   0.09950   0.24041   0.00000  Uiso   1.00
H169   H     0.88624   0.69815   0.46844   0.00000  Uiso   1.00
H170   H     0.97808   0.65134   0.57290   0.00000  Uiso   1.00
H171   H     0.82472   0.57739   0.38059   0.00000  Uiso   1.00
H172   H     0.84423   0.86085   0.47136   0.00000  Uiso   1.00
H173   H     0.09829   0.60706   0.65786   0.00000  Uiso   1.00
H174   H     0.77491   0.45116   0.25237   0.00000  Uiso   1.00
H175   H     0.81605   0.04890   0.44377   0.00000  Uiso   1.00
O176   O     0.22195   0.60260   0.62059   0.00000  Uiso   1.00
O177   O     0.79768   0.39808   0.08861   0.00000  Uiso   1.00
O178   O     0.85166   0.18230   0.33972   0.00000  Uiso   1.00
N179   N     0.17850   0.65219   0.48803   0.00000  Uiso   1.00
N180   N     0.87617   0.50643   0.10893   0.00000  Uiso   1.00
N181   N     0.91462   0.06526   0.28785   0.00000  Uiso   1.00
N182   N     0.11319   0.62497   0.59746   0.00000  Uiso   1.00
N183   N     0.81085   0.47920   0.21836   0.00000  Uiso   1.00
N184   N     0.84930   0.03803   0.39728   0.00000  Uiso   1.00
C185   C     0.50446   0.74371   0.78534   0.00000  Uiso   1.00
C186   C     0.47000   0.71185   0.86795   0.00000  Uiso   1.00
C187   C     0.40464   0.70022   0.87644   0.00000  Uiso   1.00
C188   C     0.38245   0.67053   0.95741   0.00000  Uiso   1.00
C189   C     0.32259   0.62366   0.07503   0.00000  Uiso   1.00
C190   C     0.55332   0.67166   0.76347   0.00000  Uiso   1.00
C191   C     0.55802   0.62625   0.68411   0.00000  Uiso   1.00
C192   C     0.60597   0.56274   0.67713   0.00000  Uiso   1.00
C193   C     0.67550   0.45352   0.63252   0.00000  Uiso   1.00
C194   C     0.54271   0.82568   0.81279   0.00000  Uiso   1.00
C195   C     0.53851   0.90976   0.77489   0.00000  Uiso   1.00
C196   C     0.57754   0.97592   0.80942   0.00000  Uiso   1.00
C197   C     0.63060   0.10583   0.84139   0.00000  Uiso   1.00
C198   C     0.58128   0.71170   0.91402   0.00000  Uiso   1.00
C199   C     0.51173   0.69446   0.93784   0.00000  Uiso   1.00
C200   C     0.48963   0.66479   0.01882   0.00000  Uiso   1.00
C201   C     0.42424   0.65311   0.02743   0.00000  Uiso   1.00
C202   C     0.59504   0.65427   0.83336   0.00000  Uiso   1.00
C203   C     0.64300   0.59082   0.82649   0.00000  Uiso   1.00
C204   C     0.64777   0.54532   0.74715   0.00000  Uiso   1.00
C205   C     0.58444   0.80829   0.88269   0.00000  Uiso   1.00
C206   C     0.62349   0.87433   0.91727   0.00000  Uiso   1.00
C207   C     0.61934   0.95850   0.87944   0.00000  Uiso   1.00
H208   H     0.47199   0.75725   0.73092   0.00000  Uiso   1.00
H209   H     0.37237   0.71367   0.82233   0.00000  Uiso   1.00
H210   H     0.52573   0.63973   0.63003   0.00000  Uiso   1.00
H211   H     0.50622   0.92319   0.72080   0.00000  Uiso   1.00
H212   H     0.28033   0.65766   0.95449   0.00000  Uiso   1.00
H213   H     0.60371   0.50176   0.54901   0.00000  Uiso   1.00
H214   H     0.56257   0.09950   0.74041   0.00000  Uiso   1.00
H215   H     0.61376   0.69815   0.96844   0.00000  Uiso   1.00
H216   H     0.52192   0.65134   0.07290   0.00000  Uiso   1.00
H217   H     0.67528   0.57739   0.88059   0.00000  Uiso   1.00
H218   H     0.65577   0.86085   0.97136   0.00000  Uiso   1.00
H219   H     0.40171   0.60706   0.15786   0.00000  Uiso   1.00
H220   H     0.72509   0.45116   0.75237   0.00000  Uiso   1.00
H221   H     0.68395   0.04890   0.94377   0.00000  Uiso   1.00
O222   O     0.27805   0.60260   0.12059   0.00000  Uiso   1.00
O223   O     0.70232   0.39808   0.58861   0.00000  Uiso   1.00
O224   O     0.64834   0.18230   0.83972   0.00000  Uiso   1.00
N225   N     0.32150   0.65219   0.98803   0.00000  Uiso   1.00
N226   N     0.62383   0.50643   0.60893   0.00000  Uiso   1.00
N227   N     0.58538   0.06526   0.78785   0.00000  Uiso   1.00
N228   N     0.38681   0.62497   0.09746   0.00000  Uiso   1.00
N229   N     0.68915   0.47920   0.71836   0.00000  Uiso   1.00
N230   N     0.65070   0.03803   0.89728   0.00000  Uiso   1.00
C231   C     0.99554   0.75629   0.78534   0.00000  Uiso   1.00
C232   C     0.03000   0.78815   0.86795   0.00000  Uiso   1.00
C233   C     0.09536   0.79978   0.87644   0.00000  Uiso   1.00
C234   C     0.11755   0.82947   0.95741   0.00000  Uiso   1.00
C235   C     0.17741   0.87634   0.07503   0.00000  Uiso   1.00
C236   C     0.94668   0.82834   0.76347   0.00000  Uiso   1.00
C237   C     0.94198   0.87375   0.68411   0.00000  Uiso   1.00
C238   C     0.89403   0.93726   0.67713   0.00000  Uiso   1.00
C239   C     0.82450   0.04648   0.63252   0.00000  Uiso   1.00
C240   C     0.95729   0.67432   0.81279   0.00000  Uiso   1.00
C241   C     0.96149   0.59024   0.77489   0.00000  Uiso   1.00
C242   C     0.92246   0.52408   0.80942   0.00000  Uiso   1.00
C243   C     0.86940   0.39417   0.84139   0.00000  Uiso   1.00
C244   C     0.91872   0.78830   0.91402   0.00000  Uiso   1.00
C245   C     0.98827   0.80554   0.93784   0.00000  Uiso   1.00
C246   C     0.01037   0.83521   0.01882   0.00000  Uiso   1.00
C247   C     0.07576   0.84689   0.02743   0.00000  Uiso   1.00
C248   C     0.90496   0.84573   0.83336   0.00000  Uiso   1.00
C249   C     0.85700   0.90918   0.82649   0.00000  Uiso   1.00
C250   C     0.85223   0.95468   0.74715   0.00000  Uiso   1.00
C251   C     0.91556   0.69171   0.88269   0.00000  Uiso   1.00
C252   C     0.87651   0.62567   0.91727   0.00000  Uiso   1.00
C253   C     0.88066   0.54150   0.87944   0.00000  Uiso   1.00
H254   H     0.02801   0.74275   0.73092   0.00000  Uiso   1.00
H255   H     0.12763   0.78633   0.82233   0.00000  Uiso   1.00
H256   H     0.97427   0.86027   0.63003   0.00000  Uiso   1.00
H257   H     0.99378   0.57681   0.72080   0.00000  Uiso   1.00
H258   H     0.21967   0.84234   0.95449   0.00000  Uiso   1.00
H259   H     0.89629   0.99824   0.54901   0.00000  Uiso   1.00
H260   H     0.93743   0.40050   0.74041   0.00000  Uiso   1.00
H261   H     0.88624   0.80185   0.96844   0.00000  Uiso   1.00
H262   H     0.97808   0.84866   0.07290   0.00000  Uiso   1.00
H263   H     0.82472   0.92261   0.88059   0.00000  Uiso   1.00
H264   H     0.84423   0.63915   0.97136   0.00000  Uiso   1.00
H265   H     0.09829   0.89294   0.15786   0.00000  Uiso   1.00
H266   H     0.77491   0.04884   0.75237   0.00000  Uiso   1.00
H267   H     0.81605   0.45110   0.94377   0.00000  Uiso   1.00
O268   O     0.22195   0.89740   0.12059   0.00000  Uiso   1.00
O269   O     0.79768   0.10192   0.58861   0.00000  Uiso   1.00
O270   O     0.85166   0.31770   0.83972   0.00000  Uiso   1.00
N271   N     0.17850   0.84781   0.98803   0.00000  Uiso   1.00
N272   N     0.87617   0.99357   0.60893   0.00000  Uiso   1.00
N273   N     0.91462   0.43474   0.78785   0.00000  Uiso   1.00
N274   N     0.11319   0.87503   0.09746   0.00000  Uiso   1.00
N275   N     0.81085   0.02080   0.71836   0.00000  Uiso   1.00
N276   N     0.84930   0.46197   0.89728   0.00000  Uiso   1.00
C277   C     0.49554   0.24371   0.71466   0.00000  Uiso   1.00
C278   C     0.53000   0.21185   0.63205   0.00000  Uiso   1.00
C279   C     0.59536   0.20022   0.62356   0.00000  Uiso   1.00
C280   C     0.61755   0.17053   0.54259   0.00000  Uiso   1.00
C281   C     0.67741   0.12366   0.42497   0.00000  Uiso   1.00
C282   C     0.44668   0.17166   0.73653   0.00000  Uiso   1.00
C283   C     0.44198   0.12625   0.81589   0.00000  Uiso   1.00
C284   C     0.39403   0.06274   0.82287   0.00000  Uiso   1.00
C285   C     0.32450   0.95352   0.86748   0.00000  Uiso   1.00
C286   C     0.45729   0.32568   0.68721   0.00000  Uiso   1.00
C287   C     0.46149   0.40976   0.72511   0.00000  Uiso   1.00
C288   C     0.42246   0.47592   0.69058   0.00000  Uiso   1.00
C289   C     0.36940   0.60583   0.65861   0.00000  Uiso   1.00
C290   C     0.41872   0.21170   0.58598   0.00000  Uiso   1.00
C291   C     0.48827   0.19446   0.56216   0.00000  Uiso   1.00
C292   C     0.51037   0.16479   0.48118   0.00000  Uiso   1.00
C293   C     0.57576   0.15311   0.47257   0.00000  Uiso   1.00
C294   C     0.40496   0.15427   0.66664   0.00000  Uiso   1.00
C295   C     0.35700   0.09082   0.67351   0.00000  Uiso   1.00
C296   C     0.35223   0.04532   0.75285   0.00000  Uiso   1.00
C297   C     0.41556   0.30829   0.61731   0.00000  Uiso   1.00
C298   C     0.37651   0.37433   0.58273   0.00000  Uiso   1.00
C299   C     0.38066   0.45850   0.62056   0.00000  Uiso   1.00
H300   H     0.52801   0.25725   0.76908   0.00000  Uiso   1.00
H301   H     0.62763   0.21367   0.67767   0.00000  Uiso   1.00
H302   H     0.47427   0.13973   0.86997   0.00000  Uiso   1.00
H303   H     0.49378   0.42319   0.77920   0.00000  Uiso   1.00
H304   H     0.71967   0.15766   0.54551   0.00000  Uiso   1.00
H305   H     0.39629   0.00176   0.95099   0.00000  Uiso   1.00
H306   H     0.43743   0.59950   0.75959   0.00000  Uiso   1.00
H307   H     0.38624   0.19815   0.53156   0.00000  Uiso   1.00
H308   H     0.47808   0.15134   0.42710   0.00000  Uiso   1.00
H309   H     0.32472   0.07739   0.61941   0.00000  Uiso   1.00
H310   H     0.34423   0.36085   0.52864   0.00000  Uiso   1.00
H311   H     0.59829   0.10706   0.34214   0.00000  Uiso   1.00
H312   H     0.27491   0.95116   0.74763   0.00000  Uiso   1.00
H313   H     0.31605   0.54890   0.55623   0.00000  Uiso   1.00
O314   O     0.72195   0.10260   0.37941   0.00000  Uiso   1.00
O315   O     0.29768   0.89808   0.91139   0.00000  Uiso   1.00
O316   O     0.35166   0.68230   0.66028   0.00000  Uiso   1.00
N317   N     0.67850   0.15219   0.51197   0.00000  Uiso   1.00
N318   N     0.37617   0.00643   0.89107   0.00000  Uiso   1.00
N319   N     0.41462   0.56526   0.71215   0.00000  Uiso   1.00
N320   N     0.61319   0.12497   0.40254   0.00000  Uiso   1.00
N321   N     0.31085   0.97920   0.78164   0.00000  Uiso   1.00
N322   N     0.34930   0.53803   0.60272   0.00000  Uiso   1.00
C323   C     0.00446   0.25629   0.71466   0.00000  Uiso   1.00
C324   C     0.97000   0.28815   0.63205   0.00000  Uiso   1.00
C325   C     0.90464   0.29978   0.62356   0.00000  Uiso   1.00
C326   C     0.88245   0.32947   0.54259   0.00000  Uiso   1.00
C327   C     0.82259   0.37634   0.42497   0.00000  Uiso   1.00
C328   C     0.05332   0.32834   0.73653   0.00000  Uiso   1.00
C329   C     0.05802   0.37375   0.81589   0.00000  Uiso   1.00
C330   C     0.10597   0.43726   0.82287   0.00000  Uiso   1.00
C331   C     0.17550   0.54648   0.86748   0.00000  Uiso   1.00
C332   C     0.04271   0.17432   0.68721   0.00000  Uiso   1.00
C333   C     0.03851   0.09024   0.72511   0.00000  Uiso   1.00
C334   C     0.07754   0.02408   0.69058   0.00000  Uiso   1.00
C335   C     0.13060   0.89417   0.65861   0.00000  Uiso   1.00
C336   C     0.08128   0.28830   0.58598   0.00000  Uiso   1.00
C337   C     0.01173   0.30554   0.56216   0.00000  Uiso   1.00
C338   C     0.98963   0.33521   0.48118   0.00000  Uiso   1.00
C339   C     0.92424   0.34689   0.47257   0.00000  Uiso   1.00
C340   C     0.09504   0.34573   0.66664   0.00000  Uiso   1.00
C341   C     0.14300   0.40918   0.67351   0.00000  Uiso   1.00
C342   C     0.14777   0.45468   0.75285   0.00000  Uiso   1.00
C343   C     0.08444   0.19171   0.61731   0.00000  Uiso   1.00
C344   C     0.12349   0.12567   0.58273   0.00000  Uiso   1.00
C345   C     0.11934   0.04150   0.62056   0.00000  Uiso   1.00
H346   H     0.97199   0.24275   0.76908   0.00000  Uiso   1.00
H347   H     0.87237   0.28633   0.67767   0.00000  Uiso   1.00
H348   H     0.02573   0.36027   0.86997   0.00000  Uiso   1.00
H349   H     0.00622   0.07681   0.77920   0.00000  Uiso   1.00
H350   H     0.78033   0.34234   0.54551   0.00000  Uiso   1.00
H351   H     0.10371   0.49824   0.95099   0.00000  Uiso   1.00
H352   H     0.06257   0.90050   0.75959   0.00000  Uiso   1.00
H353   H     0.11376   0.30185   0.53156   0.00000  Uiso   1.00
H354   H     0.02192   0.34866   0.42710   0.00000  Uiso   1.00
H355   H     0.17528   0.42261   0.61941   0.00000  Uiso   1.00
H356   H     0.15577   0.13915   0.52864   0.00000  Uiso   1.00
H357   H     0.90171   0.39294   0.34214   0.00000  Uiso   1.00
H358   H     0.22509   0.54884   0.74763   0.00000  Uiso   1.00
H359   H     0.18395   0.95110   0.55623   0.00000  Uiso   1.00
O360   O     0.77805   0.39740   0.37941   0.00000  Uiso   1.00
O361   O     0.20232   0.60192   0.91139   0.00000  Uiso   1.00
O362   O     0.14834   0.81770   0.66028   0.00000  Uiso   1.00
N363   N     0.82150   0.34781   0.51197   0.00000  Uiso   1.00
N364   N     0.12383   0.49357   0.89107   0.00000  Uiso   1.00
N365   N     0.08538   0.93474   0.71215   0.00000  Uiso   1.00
N366   N     0.88681   0.37503   0.40254   0.00000  Uiso   1.00
N367   N     0.18915   0.52080   0.78164   0.00000  Uiso   1.00
N368   N     0.15070   0.96197   0.60272   0.00000  Uiso   1.00
