data_job_04119
_audit_creation_date              2018-12-19
_audit_creation_method            'Materials Studio'
_symmetry_space_group_name_H-M    'P1'
_symmetry_Int_Tables_number       1
_symmetry_cell_setting            triclinic
loop_
_symmetry_equiv_pos_as_xyz
  x,y,z
_cell_length_a                    14.0260
_cell_length_b                    14.0260
_cell_length_c                    61.7989
_cell_angle_alpha                 90.0000
_cell_angle_beta                  90.0000
_cell_angle_gamma                 120.0000
loop_
_atom_site_label
_atom_site_type_symbol
_atom_site_fract_x
_atom_site_fract_y
_atom_site_fract_z
_atom_site_U_iso_or_equiv
_atom_site_adp_type
_atom_site_occupancy
C1     C     0.28195   0.52343   0.05300   0.00000  Uiso   1.00
C2     C     0.31371   0.59513   0.03277   0.00000  Uiso   1.00
C3     C     0.40137   0.70196   0.03104   0.00000  Uiso   1.00
C4     C     0.41667   0.75361   0.01114   0.00000  Uiso   1.00
C5     C     0.47660   0.87309   0.98240   0.00000  Uiso   1.00
C6     C     0.16235   0.48935   0.05771   0.00000  Uiso   1.00
C7     C     0.12274   0.50722   0.07696   0.00000  Uiso   1.00
C8     C     0.01062   0.46980   0.07806   0.00000  Uiso   1.00
C9     C     0.83554   0.42497   0.08805   0.00000  Uiso   1.00
C10    C     0.28158   0.41849   0.04641   0.00000  Uiso   1.00
C11    C     0.34221   0.37676   0.05615   0.00000  Uiso   1.00
C12    C     0.33045   0.27966   0.04774   0.00000  Uiso   1.00
C13    C     0.34050   0.12481   0.04017   0.00000  Uiso   1.00
C14    C     0.15326   0.42518   0.02073   0.00000  Uiso   1.00
C15    C     0.24381   0.54177   0.01524   0.00000  Uiso   1.00
C16    C     0.25899   0.59326   0.99534   0.00000  Uiso   1.00
C17    C     0.34665   0.70015   0.99358   0.00000  Uiso   1.00
C18    C     0.09245   0.43598   0.04018   0.00000  Uiso   1.00
C19    C     0.98036   0.39852   0.04126   0.00000  Uiso   1.00
C20    C     0.94059   0.41634   0.06050   0.00000  Uiso   1.00
C21    C     0.21169   0.36512   0.02888   0.00000  Uiso   1.00
C22    C     0.19983   0.26806   0.02045   0.00000  Uiso   1.00
C23    C     0.26043   0.22620   0.03018   0.00000  Uiso   1.00
H24    H     0.33636   0.56498   0.06665   0.00000  Uiso   1.00
H25    H     0.45544   0.74324   0.04461   0.00000  Uiso   1.00
H26    H     0.17685   0.54851   0.09053   0.00000  Uiso   1.00
H27    H     0.39629   0.41808   0.06972   0.00000  Uiso   1.00
H28    H     0.55661   0.91736   0.01245   0.00000  Uiso   1.00
H29    H     0.96919   0.50673   0.10927   0.00000  Uiso   1.00
H30    H     0.43191   0.23168   0.06539   0.00000  Uiso   1.00
H31    H     0.09883   0.38363   0.00708   0.00000  Uiso   1.00
H32    H     0.20488   0.55194   0.98177   0.00000  Uiso   1.00
H33    H     0.92629   0.35722   0.02769   0.00000  Uiso   1.00
H34    H     0.14573   0.22679   0.00688   0.00000  Uiso   1.00
H35    H     0.35324   0.76210   0.96145   0.00000  Uiso   1.00
H36    H     0.76582   0.35147   0.05827   0.00000  Uiso   1.00
H37    H     0.22854   0.07642   0.01439   0.00000  Uiso   1.00
O38    O     0.52895   0.95373   0.97138   0.00000  Uiso   1.00
O39    O     0.75828   0.41499   0.09840   0.00000  Uiso   1.00
O40    O     0.36536   0.05414   0.04084   0.00000  Uiso   1.00
N41    N     0.49421   0.85771   0.00392   0.00000  Uiso   1.00
N42    N     0.94500   0.47382   0.09444   0.00000  Uiso   1.00
N43    N     0.37759   0.21665   0.05342   0.00000  Uiso   1.00
N44    N     0.38478   0.77416   0.97648   0.00000  Uiso   1.00
N45    N     0.83558   0.39027   0.06699   0.00000  Uiso   1.00
N46    N     0.26816   0.13311   0.02598   0.00000  Uiso   1.00
C47    C     0.47657   0.75852   0.71967   0.00000  Uiso   1.00
C48    C     0.40487   0.71858   0.69943   0.00000  Uiso   1.00
C49    C     0.29804   0.69940   0.69771   0.00000  Uiso   1.00
C50    C     0.24639   0.66306   0.67781   0.00000  Uiso   1.00
C51    C     0.12691   0.60351   0.64906   0.00000  Uiso   1.00
C52    C     0.51065   0.67300   0.72438   0.00000  Uiso   1.00
C53    C     0.49278   0.61552   0.74363   0.00000  Uiso   1.00
C54    C     0.53020   0.54082   0.74473   0.00000  Uiso   1.00
C55    C     0.57503   0.41057   0.75472   0.00000  Uiso   1.00
C56    C     0.58151   0.86310   0.71307   0.00000  Uiso   1.00
C57    C     0.62324   0.96545   0.72282   0.00000  Uiso   1.00
C58    C     0.72034   0.05079   0.71441   0.00000  Uiso   1.00
C59    C     0.87519   0.21569   0.70684   0.00000  Uiso   1.00
C60    C     0.57482   0.72808   0.68739   0.00000  Uiso   1.00
C61    C     0.45823   0.70204   0.68190   0.00000  Uiso   1.00
C62    C     0.40674   0.66573   0.66200   0.00000  Uiso   1.00
C63    C     0.29985   0.64650   0.66025   0.00000  Uiso   1.00
C64    C     0.56402   0.65647   0.70685   0.00000  Uiso   1.00
C65    C     0.60148   0.58184   0.70792   0.00000  Uiso   1.00
C66    C     0.58366   0.52425   0.72717   0.00000  Uiso   1.00
C67    C     0.63488   0.84657   0.69554   0.00000  Uiso   1.00
C68    C     0.73194   0.93177   0.68711   0.00000  Uiso   1.00
C69    C     0.77380   0.03423   0.69684   0.00000  Uiso   1.00
H70    H     0.43502   0.77139   0.73332   0.00000  Uiso   1.00
H71    H     0.25676   0.71220   0.71128   0.00000  Uiso   1.00
H72    H     0.45149   0.62834   0.75719   0.00000  Uiso   1.00
H73    H     0.58192   0.97821   0.73639   0.00000  Uiso   1.00
H74    H     0.08264   0.63925   0.67912   0.00000  Uiso   1.00
H75    H     0.49327   0.46245   0.77594   0.00000  Uiso   1.00
H76    H     0.76832   0.20023   0.73206   0.00000  Uiso   1.00
H77    H     0.61637   0.71520   0.67375   0.00000  Uiso   1.00
H78    H     0.44806   0.65294   0.64844   0.00000  Uiso   1.00
H79    H     0.64278   0.56907   0.69436   0.00000  Uiso   1.00
H80    H     0.77321   0.91894   0.67355   0.00000  Uiso   1.00
H81    H     0.23790   0.59114   0.62812   0.00000  Uiso   1.00
H82    H     0.64853   0.41435   0.72493   0.00000  Uiso   1.00
H83    H     0.92358   0.15212   0.68106   0.00000  Uiso   1.00
O84    O     0.04627   0.57522   0.63805   0.00000  Uiso   1.00
O85    O     0.58501   0.34328   0.76507   0.00000  Uiso   1.00
O86    O     0.94586   0.31122   0.70750   0.00000  Uiso   1.00
N87    N     0.14229   0.63650   0.67059   0.00000  Uiso   1.00
N88    N     0.52618   0.47119   0.76110   0.00000  Uiso   1.00
N89    N     0.78335   0.16094   0.72009   0.00000  Uiso   1.00
N90    N     0.22584   0.61061   0.64314   0.00000  Uiso   1.00
N91    N     0.60973   0.44530   0.73366   0.00000  Uiso   1.00
N92    N     0.86689   0.13505   0.69264   0.00000  Uiso   1.00
C93    C     0.24148   0.71805   0.38633   0.00000  Uiso   1.00
C94    C     0.28142   0.68629   0.36610   0.00000  Uiso   1.00
C95    C     0.30060   0.59863   0.36438   0.00000  Uiso   1.00
C96    C     0.33694   0.58333   0.34448   0.00000  Uiso   1.00
C97    C     0.39649   0.52340   0.31573   0.00000  Uiso   1.00
C98    C     0.32700   0.83765   0.39105   0.00000  Uiso   1.00
C99    C     0.38448   0.87726   0.41030   0.00000  Uiso   1.00
C100   C     0.45918   0.98938   0.41140   0.00000  Uiso   1.00
C101   C     0.58943   0.16446   0.42139   0.00000  Uiso   1.00
C102   C     0.13690   0.71842   0.37974   0.00000  Uiso   1.00
C103   C     0.03455   0.65779   0.38949   0.00000  Uiso   1.00
C104   C     0.94921   0.66955   0.38107   0.00000  Uiso   1.00
C105   C     0.78431   0.65950   0.37350   0.00000  Uiso   1.00
C106   C     0.27192   0.84674   0.35406   0.00000  Uiso   1.00
C107   C     0.29796   0.75619   0.34857   0.00000  Uiso   1.00
C108   C     0.33427   0.74101   0.32867   0.00000  Uiso   1.00
C109   C     0.35350   0.65335   0.32691   0.00000  Uiso   1.00
C110   C     0.34353   0.90755   0.37352   0.00000  Uiso   1.00
C111   C     0.41816   0.01964   0.37459   0.00000  Uiso   1.00
C112   C     0.47575   0.05941   0.39384   0.00000  Uiso   1.00
C113   C     0.15343   0.78831   0.36221   0.00000  Uiso   1.00
C114   C     0.06823   0.80017   0.35378   0.00000  Uiso   1.00
C115   C     0.96577   0.73957   0.36351   0.00000  Uiso   1.00
H116   H     0.22861   0.66364   0.39998   0.00000  Uiso   1.00
H117   H     0.28780   0.54456   0.37795   0.00000  Uiso   1.00
H118   H     0.37166   0.82315   0.42386   0.00000  Uiso   1.00
H119   H     0.02179   0.60371   0.40305   0.00000  Uiso   1.00
H120   H     0.36075   0.44339   0.34579   0.00000  Uiso   1.00
H121   H     0.53755   0.03081   0.44260   0.00000  Uiso   1.00
H122   H     0.79977   0.56809   0.39873   0.00000  Uiso   1.00
H123   H     0.28480   0.90117   0.34041   0.00000  Uiso   1.00
H124   H     0.34706   0.79512   0.31511   0.00000  Uiso   1.00
H125   H     0.43093   0.07371   0.36102   0.00000  Uiso   1.00
H126   H     0.08106   0.85427   0.34021   0.00000  Uiso   1.00
H127   H     0.40886   0.64676   0.29478   0.00000  Uiso   1.00
H128   H     0.58565   0.23418   0.39160   0.00000  Uiso   1.00
H129   H     0.84788   0.77146   0.34772   0.00000  Uiso   1.00
O130   O     0.42478   0.47105   0.30472   0.00000  Uiso   1.00
O131   O     0.65672   0.24172   0.43174   0.00000  Uiso   1.00
O132   O     0.68878   0.63464   0.37417   0.00000  Uiso   1.00
N133   N     0.36350   0.50579   0.33725   0.00000  Uiso   1.00
N134   N     0.52881   0.05500   0.42777   0.00000  Uiso   1.00
N135   N     0.83906   0.62241   0.38675   0.00000  Uiso   1.00
N136   N     0.38939   0.61522   0.30981   0.00000  Uiso   1.00
N137   N     0.55470   0.16442   0.40033   0.00000  Uiso   1.00
N138   N     0.86495   0.73184   0.35931   0.00000  Uiso   1.00
C139   C     0.71805   0.47657   0.55300   0.00000  Uiso   1.00
C140   C     0.68629   0.40487   0.53277   0.00000  Uiso   1.00
C141   C     0.59863   0.29804   0.53104   0.00000  Uiso   1.00
C142   C     0.58333   0.24639   0.51114   0.00000  Uiso   1.00
C143   C     0.52340   0.12691   0.48240   0.00000  Uiso   1.00
C144   C     0.83765   0.51065   0.55771   0.00000  Uiso   1.00
C145   C     0.87726   0.49278   0.57696   0.00000  Uiso   1.00
C146   C     0.98938   0.53020   0.57806   0.00000  Uiso   1.00
C147   C     0.16446   0.57503   0.58805   0.00000  Uiso   1.00
C148   C     0.71842   0.58151   0.54641   0.00000  Uiso   1.00
C149   C     0.65779   0.62324   0.55615   0.00000  Uiso   1.00
C150   C     0.66955   0.72034   0.54774   0.00000  Uiso   1.00
C151   C     0.65950   0.87519   0.54017   0.00000  Uiso   1.00
C152   C     0.84674   0.57482   0.52073   0.00000  Uiso   1.00
C153   C     0.75619   0.45823   0.51524   0.00000  Uiso   1.00
C154   C     0.74101   0.40674   0.49534   0.00000  Uiso   1.00
C155   C     0.65335   0.29985   0.49358   0.00000  Uiso   1.00
C156   C     0.90755   0.56402   0.54018   0.00000  Uiso   1.00
C157   C     0.01964   0.60148   0.54126   0.00000  Uiso   1.00
C158   C     0.05941   0.58366   0.56050   0.00000  Uiso   1.00
C159   C     0.78831   0.63488   0.52888   0.00000  Uiso   1.00
C160   C     0.80017   0.73194   0.52045   0.00000  Uiso   1.00
C161   C     0.73957   0.77380   0.53018   0.00000  Uiso   1.00
H162   H     0.66364   0.43502   0.56665   0.00000  Uiso   1.00
H163   H     0.54456   0.25676   0.54461   0.00000  Uiso   1.00
H164   H     0.82315   0.45149   0.59053   0.00000  Uiso   1.00
H165   H     0.60371   0.58192   0.56972   0.00000  Uiso   1.00
H166   H     0.44339   0.08264   0.51245   0.00000  Uiso   1.00
H167   H     0.03081   0.49327   0.60927   0.00000  Uiso   1.00
H168   H     0.56809   0.76832   0.56539   0.00000  Uiso   1.00
H169   H     0.90117   0.61637   0.50708   0.00000  Uiso   1.00
H170   H     0.79512   0.44806   0.48177   0.00000  Uiso   1.00
H171   H     0.07371   0.64278   0.52769   0.00000  Uiso   1.00
H172   H     0.85427   0.77321   0.50688   0.00000  Uiso   1.00
H173   H     0.64676   0.23790   0.46145   0.00000  Uiso   1.00
H174   H     0.23418   0.64853   0.55827   0.00000  Uiso   1.00
H175   H     0.77146   0.92358   0.51439   0.00000  Uiso   1.00
O176   O     0.47105   0.04627   0.47138   0.00000  Uiso   1.00
O177   O     0.24172   0.58501   0.59840   0.00000  Uiso   1.00
O178   O     0.63464   0.94586   0.54084   0.00000  Uiso   1.00
N179   N     0.50579   0.14229   0.50392   0.00000  Uiso   1.00
N180   N     0.05500   0.52618   0.59444   0.00000  Uiso   1.00
N181   N     0.62241   0.78335   0.55342   0.00000  Uiso   1.00
N182   N     0.61522   0.22584   0.47648   0.00000  Uiso   1.00
N183   N     0.16442   0.60973   0.56699   0.00000  Uiso   1.00
N184   N     0.73184   0.86689   0.52598   0.00000  Uiso   1.00
C185   C     0.52343   0.24148   0.21967   0.00000  Uiso   1.00
C186   C     0.59513   0.28142   0.19943   0.00000  Uiso   1.00
C187   C     0.70196   0.30060   0.19771   0.00000  Uiso   1.00
C188   C     0.75361   0.33694   0.17781   0.00000  Uiso   1.00
C189   C     0.87309   0.39649   0.14906   0.00000  Uiso   1.00
C190   C     0.48935   0.32700   0.22438   0.00000  Uiso   1.00
C191   C     0.50722   0.38448   0.24363   0.00000  Uiso   1.00
C192   C     0.46980   0.45918   0.24473   0.00000  Uiso   1.00
C193   C     0.42497   0.58943   0.25472   0.00000  Uiso   1.00
C194   C     0.41849   0.13690   0.21307   0.00000  Uiso   1.00
C195   C     0.37676   0.03455   0.22282   0.00000  Uiso   1.00
C196   C     0.27966   0.94921   0.21441   0.00000  Uiso   1.00
C197   C     0.12481   0.78431   0.20684   0.00000  Uiso   1.00
C198   C     0.42518   0.27192   0.18739   0.00000  Uiso   1.00
C199   C     0.54177   0.29796   0.18190   0.00000  Uiso   1.00
C200   C     0.59326   0.33427   0.16200   0.00000  Uiso   1.00
C201   C     0.70015   0.35350   0.16025   0.00000  Uiso   1.00
C202   C     0.43598   0.34353   0.20685   0.00000  Uiso   1.00
C203   C     0.39852   0.41816   0.20792   0.00000  Uiso   1.00
C204   C     0.41634   0.47575   0.22717   0.00000  Uiso   1.00
C205   C     0.36512   0.15343   0.19554   0.00000  Uiso   1.00
C206   C     0.26806   0.06823   0.18711   0.00000  Uiso   1.00
C207   C     0.22620   0.96577   0.19684   0.00000  Uiso   1.00
H208   H     0.56498   0.22861   0.23332   0.00000  Uiso   1.00
H209   H     0.74324   0.28780   0.21128   0.00000  Uiso   1.00
H210   H     0.54851   0.37166   0.25719   0.00000  Uiso   1.00
H211   H     0.41808   0.02179   0.23639   0.00000  Uiso   1.00
H212   H     0.91736   0.36075   0.17912   0.00000  Uiso   1.00
H213   H     0.50673   0.53755   0.27594   0.00000  Uiso   1.00
H214   H     0.23168   0.79977   0.23206   0.00000  Uiso   1.00
H215   H     0.38363   0.28480   0.17375   0.00000  Uiso   1.00
H216   H     0.55194   0.34706   0.14844   0.00000  Uiso   1.00
H217   H     0.35722   0.43093   0.19436   0.00000  Uiso   1.00
H218   H     0.22679   0.08106   0.17355   0.00000  Uiso   1.00
H219   H     0.76210   0.40886   0.12812   0.00000  Uiso   1.00
H220   H     0.35147   0.58565   0.22493   0.00000  Uiso   1.00
H221   H     0.07642   0.84788   0.18106   0.00000  Uiso   1.00
O222   O     0.95373   0.42478   0.13805   0.00000  Uiso   1.00
O223   O     0.41499   0.65672   0.26507   0.00000  Uiso   1.00
O224   O     0.05414   0.68878   0.20750   0.00000  Uiso   1.00
N225   N     0.85771   0.36350   0.17059   0.00000  Uiso   1.00
N226   N     0.47382   0.52881   0.26110   0.00000  Uiso   1.00
N227   N     0.21665   0.83906   0.22009   0.00000  Uiso   1.00
N228   N     0.77416   0.38939   0.14314   0.00000  Uiso   1.00
N229   N     0.39027   0.55470   0.23366   0.00000  Uiso   1.00
N230   N     0.13311   0.86495   0.19264   0.00000  Uiso   1.00
C231   C     0.75852   0.28195   0.88633   0.00000  Uiso   1.00
C232   C     0.71858   0.31371   0.86610   0.00000  Uiso   1.00
C233   C     0.69940   0.40137   0.86438   0.00000  Uiso   1.00
C234   C     0.66306   0.41667   0.84448   0.00000  Uiso   1.00
C235   C     0.60351   0.47660   0.81573   0.00000  Uiso   1.00
C236   C     0.67300   0.16235   0.89105   0.00000  Uiso   1.00
C237   C     0.61552   0.12274   0.91030   0.00000  Uiso   1.00
C238   C     0.54082   0.01062   0.91140   0.00000  Uiso   1.00
C239   C     0.41057   0.83554   0.92139   0.00000  Uiso   1.00
C240   C     0.86310   0.28158   0.87974   0.00000  Uiso   1.00
C241   C     0.96545   0.34221   0.88949   0.00000  Uiso   1.00
C242   C     0.05079   0.33045   0.88107   0.00000  Uiso   1.00
C243   C     0.21569   0.34050   0.87350   0.00000  Uiso   1.00
C244   C     0.72808   0.15326   0.85406   0.00000  Uiso   1.00
C245   C     0.70204   0.24381   0.84857   0.00000  Uiso   1.00
C246   C     0.66573   0.25899   0.82867   0.00000  Uiso   1.00
C247   C     0.64650   0.34665   0.82691   0.00000  Uiso   1.00
C248   C     0.65647   0.09245   0.87352   0.00000  Uiso   1.00
C249   C     0.58184   0.98036   0.87459   0.00000  Uiso   1.00
C250   C     0.52425   0.94059   0.89384   0.00000  Uiso   1.00
C251   C     0.84657   0.21169   0.86221   0.00000  Uiso   1.00
C252   C     0.93177   0.19983   0.85378   0.00000  Uiso   1.00
C253   C     0.03423   0.26043   0.86351   0.00000  Uiso   1.00
H254   H     0.77139   0.33636   0.89998   0.00000  Uiso   1.00
H255   H     0.71220   0.45544   0.87795   0.00000  Uiso   1.00
H256   H     0.62834   0.17685   0.92386   0.00000  Uiso   1.00
H257   H     0.97821   0.39629   0.90305   0.00000  Uiso   1.00
H258   H     0.63925   0.55661   0.84579   0.00000  Uiso   1.00
H259   H     0.46245   0.96919   0.94260   0.00000  Uiso   1.00
H260   H     0.20023   0.43191   0.89873   0.00000  Uiso   1.00
H261   H     0.71520   0.09883   0.84041   0.00000  Uiso   1.00
H262   H     0.65294   0.20488   0.81511   0.00000  Uiso   1.00
H263   H     0.56907   0.92629   0.86102   0.00000  Uiso   1.00
H264   H     0.91894   0.14573   0.84021   0.00000  Uiso   1.00
H265   H     0.59114   0.35324   0.79478   0.00000  Uiso   1.00
H266   H     0.41435   0.76582   0.89160   0.00000  Uiso   1.00
H267   H     0.15212   0.22854   0.84772   0.00000  Uiso   1.00
O268   O     0.57522   0.52895   0.80472   0.00000  Uiso   1.00
O269   O     0.34328   0.75828   0.93174   0.00000  Uiso   1.00
O270   O     0.31122   0.36536   0.87417   0.00000  Uiso   1.00
N271   N     0.63650   0.49421   0.83725   0.00000  Uiso   1.00
N272   N     0.47119   0.94500   0.92777   0.00000  Uiso   1.00
N273   N     0.16094   0.37759   0.88675   0.00000  Uiso   1.00
N274   N     0.61061   0.38478   0.80981   0.00000  Uiso   1.00
N275   N     0.44530   0.83558   0.90033   0.00000  Uiso   1.00
N276   N     0.13505   0.26816   0.85931   0.00000  Uiso   1.00
C277   C     0.52343   0.28195   0.61367   0.00000  Uiso   1.00
C278   C     0.59513   0.31371   0.63390   0.00000  Uiso   1.00
C279   C     0.70196   0.40137   0.63562   0.00000  Uiso   1.00
C280   C     0.75361   0.41667   0.65552   0.00000  Uiso   1.00
C281   C     0.87309   0.47660   0.68427   0.00000  Uiso   1.00
C282   C     0.48935   0.16235   0.60895   0.00000  Uiso   1.00
C283   C     0.50722   0.12274   0.58970   0.00000  Uiso   1.00
C284   C     0.46980   0.01062   0.58860   0.00000  Uiso   1.00
C285   C     0.42497   0.83554   0.57861   0.00000  Uiso   1.00
C286   C     0.41849   0.28158   0.62026   0.00000  Uiso   1.00
C287   C     0.37676   0.34221   0.61051   0.00000  Uiso   1.00
C288   C     0.27966   0.33045   0.61893   0.00000  Uiso   1.00
C289   C     0.12481   0.34050   0.62650   0.00000  Uiso   1.00
C290   C     0.42518   0.15326   0.64594   0.00000  Uiso   1.00
C291   C     0.54177   0.24381   0.65143   0.00000  Uiso   1.00
C292   C     0.59326   0.25899   0.67133   0.00000  Uiso   1.00
C293   C     0.70015   0.34665   0.67309   0.00000  Uiso   1.00
C294   C     0.43598   0.09245   0.62648   0.00000  Uiso   1.00
C295   C     0.39852   0.98036   0.62541   0.00000  Uiso   1.00
C296   C     0.41634   0.94059   0.60616   0.00000  Uiso   1.00
C297   C     0.36512   0.21169   0.63779   0.00000  Uiso   1.00
C298   C     0.26806   0.19983   0.64622   0.00000  Uiso   1.00
C299   C     0.22620   0.26043   0.63649   0.00000  Uiso   1.00
H300   H     0.56498   0.33636   0.60002   0.00000  Uiso   1.00
H301   H     0.74324   0.45544   0.62205   0.00000  Uiso   1.00
H302   H     0.54851   0.17685   0.57614   0.00000  Uiso   1.00
H303   H     0.41808   0.39629   0.59695   0.00000  Uiso   1.00
H304   H     0.91736   0.55661   0.65421   0.00000  Uiso   1.00
H305   H     0.50673   0.96919   0.55740   0.00000  Uiso   1.00
H306   H     0.23168   0.43191   0.60127   0.00000  Uiso   1.00
H307   H     0.38363   0.09883   0.65959   0.00000  Uiso   1.00
H308   H     0.55194   0.20488   0.68489   0.00000  Uiso   1.00
H309   H     0.35722   0.92629   0.63898   0.00000  Uiso   1.00
H310   H     0.22679   0.14573   0.65979   0.00000  Uiso   1.00
H311   H     0.76210   0.35324   0.70522   0.00000  Uiso   1.00
H312   H     0.35147   0.76582   0.60840   0.00000  Uiso   1.00
H313   H     0.07642   0.22854   0.65228   0.00000  Uiso   1.00
O314   O     0.95373   0.52895   0.69528   0.00000  Uiso   1.00
O315   O     0.41499   0.75828   0.56826   0.00000  Uiso   1.00
O316   O     0.05414   0.36536   0.62583   0.00000  Uiso   1.00
N317   N     0.85771   0.49421   0.66275   0.00000  Uiso   1.00
N318   N     0.47382   0.94500   0.57223   0.00000  Uiso   1.00
N319   N     0.21665   0.37759   0.61325   0.00000  Uiso   1.00
N320   N     0.77416   0.38478   0.69019   0.00000  Uiso   1.00
N321   N     0.39027   0.83558   0.59967   0.00000  Uiso   1.00
N322   N     0.13311   0.26816   0.64069   0.00000  Uiso   1.00
C323   C     0.75852   0.47657   0.94700   0.00000  Uiso   1.00
C324   C     0.71858   0.40487   0.96723   0.00000  Uiso   1.00
C325   C     0.69940   0.29804   0.96896   0.00000  Uiso   1.00
C326   C     0.66306   0.24639   0.98886   0.00000  Uiso   1.00
C327   C     0.60351   0.12691   0.01760   0.00000  Uiso   1.00
C328   C     0.67300   0.51065   0.94229   0.00000  Uiso   1.00
C329   C     0.61552   0.49278   0.92304   0.00000  Uiso   1.00
C330   C     0.54082   0.53020   0.92194   0.00000  Uiso   1.00
C331   C     0.41057   0.57503   0.91195   0.00000  Uiso   1.00
C332   C     0.86310   0.58151   0.95359   0.00000  Uiso   1.00
C333   C     0.96545   0.62324   0.94385   0.00000  Uiso   1.00
C334   C     0.05079   0.72034   0.95226   0.00000  Uiso   1.00
C335   C     0.21569   0.87519   0.95983   0.00000  Uiso   1.00
C336   C     0.72808   0.57482   0.97927   0.00000  Uiso   1.00
C337   C     0.70204   0.45823   0.98476   0.00000  Uiso   1.00
C338   C     0.66573   0.40674   0.00466   0.00000  Uiso   1.00
C339   C     0.64650   0.29985   0.00642   0.00000  Uiso   1.00
C340   C     0.65647   0.56402   0.95982   0.00000  Uiso   1.00
C341   C     0.58184   0.60148   0.95874   0.00000  Uiso   1.00
C342   C     0.52425   0.58366   0.93950   0.00000  Uiso   1.00
C343   C     0.84657   0.63488   0.97112   0.00000  Uiso   1.00
C344   C     0.93177   0.73194   0.97955   0.00000  Uiso   1.00
C345   C     0.03423   0.77380   0.96982   0.00000  Uiso   1.00
H346   H     0.77139   0.43502   0.93335   0.00000  Uiso   1.00
H347   H     0.71220   0.25676   0.95539   0.00000  Uiso   1.00
H348   H     0.62834   0.45149   0.90947   0.00000  Uiso   1.00
H349   H     0.97821   0.58192   0.93028   0.00000  Uiso   1.00
H350   H     0.63925   0.08264   0.98755   0.00000  Uiso   1.00
H351   H     0.46245   0.49327   0.89073   0.00000  Uiso   1.00
H352   H     0.20023   0.76832   0.93461   0.00000  Uiso   1.00
H353   H     0.71520   0.61637   0.99292   0.00000  Uiso   1.00
H354   H     0.65294   0.44806   0.01823   0.00000  Uiso   1.00
H355   H     0.56907   0.64278   0.97231   0.00000  Uiso   1.00
H356   H     0.91894   0.77321   0.99312   0.00000  Uiso   1.00
H357   H     0.59114   0.23790   0.03855   0.00000  Uiso   1.00
H358   H     0.41435   0.64853   0.94173   0.00000  Uiso   1.00
H359   H     0.15212   0.92358   0.98561   0.00000  Uiso   1.00
O360   O     0.57522   0.04627   0.02862   0.00000  Uiso   1.00
O361   O     0.34328   0.58501   0.90160   0.00000  Uiso   1.00
O362   O     0.31122   0.94586   0.95916   0.00000  Uiso   1.00
N363   N     0.63650   0.14229   0.99608   0.00000  Uiso   1.00
N364   N     0.47119   0.52618   0.90556   0.00000  Uiso   1.00
N365   N     0.16094   0.78335   0.94658   0.00000  Uiso   1.00
N366   N     0.61061   0.22584   0.02352   0.00000  Uiso   1.00
N367   N     0.44530   0.60973   0.93301   0.00000  Uiso   1.00
N368   N     0.13505   0.86689   0.97402   0.00000  Uiso   1.00
C369   C     0.71805   0.24148   0.28033   0.00000  Uiso   1.00
C370   C     0.68629   0.28142   0.30057   0.00000  Uiso   1.00
C371   C     0.59863   0.30060   0.30229   0.00000  Uiso   1.00
C372   C     0.58333   0.33694   0.32219   0.00000  Uiso   1.00
C373   C     0.52340   0.39649   0.35094   0.00000  Uiso   1.00
C374   C     0.83765   0.32700   0.27562   0.00000  Uiso   1.00
C375   C     0.87726   0.38448   0.25637   0.00000  Uiso   1.00
C376   C     0.98938   0.45918   0.25527   0.00000  Uiso   1.00
C377   C     0.16446   0.58943   0.24528   0.00000  Uiso   1.00
C378   C     0.71842   0.13690   0.28693   0.00000  Uiso   1.00
C379   C     0.65779   0.03455   0.27718   0.00000  Uiso   1.00
C380   C     0.66955   0.94921   0.28559   0.00000  Uiso   1.00
C381   C     0.65950   0.78431   0.29316   0.00000  Uiso   1.00
C382   C     0.84674   0.27192   0.31261   0.00000  Uiso   1.00
C383   C     0.75619   0.29796   0.31810   0.00000  Uiso   1.00
C384   C     0.74101   0.33427   0.33800   0.00000  Uiso   1.00
C385   C     0.65335   0.35350   0.33975   0.00000  Uiso   1.00
C386   C     0.90755   0.34353   0.29315   0.00000  Uiso   1.00
C387   C     0.01964   0.41816   0.29208   0.00000  Uiso   1.00
C388   C     0.05941   0.47575   0.27283   0.00000  Uiso   1.00
C389   C     0.78831   0.15343   0.30446   0.00000  Uiso   1.00
C390   C     0.80017   0.06823   0.31289   0.00000  Uiso   1.00
C391   C     0.73957   0.96577   0.30316   0.00000  Uiso   1.00
H392   H     0.66364   0.22861   0.26668   0.00000  Uiso   1.00
H393   H     0.54456   0.28780   0.28872   0.00000  Uiso   1.00
H394   H     0.82315   0.37166   0.24281   0.00000  Uiso   1.00
H395   H     0.60371   0.02179   0.26361   0.00000  Uiso   1.00
H396   H     0.44339   0.36075   0.32088   0.00000  Uiso   1.00
H397   H     0.03081   0.53755   0.22406   0.00000  Uiso   1.00
H398   H     0.56809   0.79977   0.26794   0.00000  Uiso   1.00
H399   H     0.90117   0.28480   0.32625   0.00000  Uiso   1.00
H400   H     0.79512   0.34706   0.35156   0.00000  Uiso   1.00
H401   H     0.07371   0.43093   0.30564   0.00000  Uiso   1.00
H402   H     0.85427   0.08106   0.32645   0.00000  Uiso   1.00
H403   H     0.64676   0.40886   0.37188   0.00000  Uiso   1.00
H404   H     0.23418   0.58565   0.27507   0.00000  Uiso   1.00
H405   H     0.77146   0.84788   0.31894   0.00000  Uiso   1.00
O406   O     0.47105   0.42478   0.36195   0.00000  Uiso   1.00
O407   O     0.24172   0.65672   0.23493   0.00000  Uiso   1.00
O408   O     0.63464   0.68878   0.29250   0.00000  Uiso   1.00
N409   N     0.50579   0.36350   0.32941   0.00000  Uiso   1.00
N410   N     0.05500   0.52881   0.23890   0.00000  Uiso   1.00
N411   N     0.62241   0.83906   0.27991   0.00000  Uiso   1.00
N412   N     0.61522   0.38939   0.35686   0.00000  Uiso   1.00
N413   N     0.16442   0.55470   0.26634   0.00000  Uiso   1.00
N414   N     0.73184   0.86495   0.30736   0.00000  Uiso   1.00
C415   C     0.47657   0.71805   0.11367   0.00000  Uiso   1.00
C416   C     0.40487   0.68629   0.13390   0.00000  Uiso   1.00
C417   C     0.29804   0.59863   0.13562   0.00000  Uiso   1.00
C418   C     0.24639   0.58333   0.15552   0.00000  Uiso   1.00
C419   C     0.12691   0.52340   0.18427   0.00000  Uiso   1.00
C420   C     0.51065   0.83765   0.10895   0.00000  Uiso   1.00
C421   C     0.49278   0.87726   0.08970   0.00000  Uiso   1.00
C422   C     0.53020   0.98938   0.08860   0.00000  Uiso   1.00
C423   C     0.57503   0.16446   0.07861   0.00000  Uiso   1.00
C424   C     0.58151   0.71842   0.12026   0.00000  Uiso   1.00
C425   C     0.62324   0.65779   0.11051   0.00000  Uiso   1.00
C426   C     0.72034   0.66955   0.11893   0.00000  Uiso   1.00
C427   C     0.87519   0.65950   0.12650   0.00000  Uiso   1.00
C428   C     0.57482   0.84674   0.14594   0.00000  Uiso   1.00
C429   C     0.45823   0.75619   0.15143   0.00000  Uiso   1.00
C430   C     0.40674   0.74101   0.17133   0.00000  Uiso   1.00
C431   C     0.29985   0.65335   0.17309   0.00000  Uiso   1.00
C432   C     0.56402   0.90755   0.12648   0.00000  Uiso   1.00
C433   C     0.60148   0.01964   0.12541   0.00000  Uiso   1.00
C434   C     0.58366   0.05941   0.10616   0.00000  Uiso   1.00
C435   C     0.63488   0.78831   0.13779   0.00000  Uiso   1.00
C436   C     0.73194   0.80017   0.14622   0.00000  Uiso   1.00
C437   C     0.77380   0.73957   0.13649   0.00000  Uiso   1.00
H438   H     0.43502   0.66364   0.10002   0.00000  Uiso   1.00
H439   H     0.25676   0.54456   0.12205   0.00000  Uiso   1.00
H440   H     0.45149   0.82315   0.07614   0.00000  Uiso   1.00
H441   H     0.58192   0.60371   0.09695   0.00000  Uiso   1.00
H442   H     0.08264   0.44339   0.15421   0.00000  Uiso   1.00
H443   H     0.49327   0.03081   0.05740   0.00000  Uiso   1.00
H444   H     0.76832   0.56809   0.10127   0.00000  Uiso   1.00
H445   H     0.61637   0.90117   0.15959   0.00000  Uiso   1.00
H446   H     0.44806   0.79512   0.18489   0.00000  Uiso   1.00
H447   H     0.64278   0.07371   0.13898   0.00000  Uiso   1.00
H448   H     0.77321   0.85427   0.15979   0.00000  Uiso   1.00
H449   H     0.23790   0.64676   0.20522   0.00000  Uiso   1.00
H450   H     0.64853   0.23418   0.10840   0.00000  Uiso   1.00
H451   H     0.92358   0.77146   0.15228   0.00000  Uiso   1.00
O452   O     0.04627   0.47105   0.19528   0.00000  Uiso   1.00
O453   O     0.58501   0.24172   0.06826   0.00000  Uiso   1.00
O454   O     0.94586   0.63464   0.12583   0.00000  Uiso   1.00
N455   N     0.14229   0.50579   0.16275   0.00000  Uiso   1.00
N456   N     0.52618   0.05500   0.07223   0.00000  Uiso   1.00
N457   N     0.78335   0.62241   0.11325   0.00000  Uiso   1.00
N458   N     0.22584   0.61522   0.19019   0.00000  Uiso   1.00
N459   N     0.60973   0.16442   0.09967   0.00000  Uiso   1.00
N460   N     0.86689   0.73184   0.14069   0.00000  Uiso   1.00
C461   C     0.24148   0.52343   0.44700   0.00000  Uiso   1.00
C462   C     0.28142   0.59513   0.46723   0.00000  Uiso   1.00
C463   C     0.30060   0.70196   0.46896   0.00000  Uiso   1.00
C464   C     0.33694   0.75361   0.48886   0.00000  Uiso   1.00
C465   C     0.39649   0.87309   0.51760   0.00000  Uiso   1.00
C466   C     0.32700   0.48935   0.44229   0.00000  Uiso   1.00
C467   C     0.38448   0.50722   0.42304   0.00000  Uiso   1.00
C468   C     0.45918   0.46980   0.42194   0.00000  Uiso   1.00
C469   C     0.58943   0.42497   0.41195   0.00000  Uiso   1.00
C470   C     0.13690   0.41849   0.45359   0.00000  Uiso   1.00
C471   C     0.03455   0.37676   0.44385   0.00000  Uiso   1.00
C472   C     0.94921   0.27966   0.45226   0.00000  Uiso   1.00
C473   C     0.78431   0.12481   0.45983   0.00000  Uiso   1.00
C474   C     0.27192   0.42518   0.47927   0.00000  Uiso   1.00
C475   C     0.29796   0.54177   0.48476   0.00000  Uiso   1.00
C476   C     0.33427   0.59326   0.50466   0.00000  Uiso   1.00
C477   C     0.35350   0.70015   0.50642   0.00000  Uiso   1.00
C478   C     0.34353   0.43598   0.45982   0.00000  Uiso   1.00
C479   C     0.41816   0.39852   0.45874   0.00000  Uiso   1.00
C480   C     0.47575   0.41634   0.43950   0.00000  Uiso   1.00
C481   C     0.15343   0.36512   0.47112   0.00000  Uiso   1.00
C482   C     0.06823   0.26806   0.47955   0.00000  Uiso   1.00
C483   C     0.96577   0.22620   0.46982   0.00000  Uiso   1.00
H484   H     0.22861   0.56498   0.43335   0.00000  Uiso   1.00
H485   H     0.28780   0.74324   0.45539   0.00000  Uiso   1.00
H486   H     0.37166   0.54851   0.40947   0.00000  Uiso   1.00
H487   H     0.02179   0.41808   0.43028   0.00000  Uiso   1.00
H488   H     0.36075   0.91736   0.48755   0.00000  Uiso   1.00
H489   H     0.53755   0.50673   0.39073   0.00000  Uiso   1.00
H490   H     0.79977   0.23168   0.43461   0.00000  Uiso   1.00
H491   H     0.28480   0.38363   0.49292   0.00000  Uiso   1.00
H492   H     0.34706   0.55194   0.51823   0.00000  Uiso   1.00
H493   H     0.43093   0.35722   0.47231   0.00000  Uiso   1.00
H494   H     0.08106   0.22679   0.49312   0.00000  Uiso   1.00
H495   H     0.40886   0.76210   0.53855   0.00000  Uiso   1.00
H496   H     0.58565   0.35147   0.44173   0.00000  Uiso   1.00
H497   H     0.84788   0.07642   0.48561   0.00000  Uiso   1.00
O498   O     0.42478   0.95373   0.52862   0.00000  Uiso   1.00
O499   O     0.65672   0.41499   0.40160   0.00000  Uiso   1.00
O500   O     0.68878   0.05414   0.45916   0.00000  Uiso   1.00
N501   N     0.36350   0.85771   0.49608   0.00000  Uiso   1.00
N502   N     0.52881   0.47382   0.40556   0.00000  Uiso   1.00
N503   N     0.83906   0.21665   0.44658   0.00000  Uiso   1.00
N504   N     0.38939   0.77416   0.52352   0.00000  Uiso   1.00
N505   N     0.55470   0.39027   0.43301   0.00000  Uiso   1.00
N506   N     0.86495   0.13311   0.47402   0.00000  Uiso   1.00
C507   C     0.28195   0.75852   0.78033   0.00000  Uiso   1.00
C508   C     0.31371   0.71858   0.80057   0.00000  Uiso   1.00
C509   C     0.40137   0.69940   0.80229   0.00000  Uiso   1.00
C510   C     0.41667   0.66306   0.82219   0.00000  Uiso   1.00
C511   C     0.47660   0.60351   0.85094   0.00000  Uiso   1.00
C512   C     0.16235   0.67300   0.77562   0.00000  Uiso   1.00
C513   C     0.12274   0.61552   0.75637   0.00000  Uiso   1.00
C514   C     0.01062   0.54082   0.75527   0.00000  Uiso   1.00
C515   C     0.83554   0.41057   0.74528   0.00000  Uiso   1.00
C516   C     0.28158   0.86310   0.78693   0.00000  Uiso   1.00
C517   C     0.34221   0.96545   0.77718   0.00000  Uiso   1.00
C518   C     0.33045   0.05079   0.78559   0.00000  Uiso   1.00
C519   C     0.34050   0.21569   0.79316   0.00000  Uiso   1.00
C520   C     0.15326   0.72808   0.81261   0.00000  Uiso   1.00
C521   C     0.24381   0.70204   0.81810   0.00000  Uiso   1.00
C522   C     0.25899   0.66573   0.83800   0.00000  Uiso   1.00
C523   C     0.34665   0.64650   0.83975   0.00000  Uiso   1.00
C524   C     0.09245   0.65647   0.79315   0.00000  Uiso   1.00
C525   C     0.98036   0.58184   0.79208   0.00000  Uiso   1.00
C526   C     0.94059   0.52425   0.77283   0.00000  Uiso   1.00
C527   C     0.21169   0.84657   0.80446   0.00000  Uiso   1.00
C528   C     0.19983   0.93177   0.81289   0.00000  Uiso   1.00
C529   C     0.26043   0.03423   0.80316   0.00000  Uiso   1.00
H530   H     0.33636   0.77139   0.76668   0.00000  Uiso   1.00
H531   H     0.45544   0.71220   0.78872   0.00000  Uiso   1.00
H532   H     0.17685   0.62834   0.74281   0.00000  Uiso   1.00
H533   H     0.39629   0.97821   0.76361   0.00000  Uiso   1.00
H534   H     0.55661   0.63925   0.82088   0.00000  Uiso   1.00
H535   H     0.96919   0.46245   0.72406   0.00000  Uiso   1.00
H536   H     0.43191   0.20023   0.76794   0.00000  Uiso   1.00
H537   H     0.09883   0.71520   0.82625   0.00000  Uiso   1.00
H538   H     0.20488   0.65294   0.85156   0.00000  Uiso   1.00
H539   H     0.92629   0.56907   0.80564   0.00000  Uiso   1.00
H540   H     0.14573   0.91894   0.82645   0.00000  Uiso   1.00
H541   H     0.35324   0.59114   0.87188   0.00000  Uiso   1.00
H542   H     0.76582   0.41435   0.77507   0.00000  Uiso   1.00
H543   H     0.22854   0.15212   0.81894   0.00000  Uiso   1.00
O544   O     0.52895   0.57522   0.86195   0.00000  Uiso   1.00
O545   O     0.75828   0.34328   0.73493   0.00000  Uiso   1.00
O546   O     0.36536   0.31122   0.79250   0.00000  Uiso   1.00
N547   N     0.49421   0.63650   0.82941   0.00000  Uiso   1.00
N548   N     0.94500   0.47119   0.73890   0.00000  Uiso   1.00
N549   N     0.37759   0.16094   0.77991   0.00000  Uiso   1.00
N550   N     0.38478   0.61061   0.85686   0.00000  Uiso   1.00
N551   N     0.83558   0.44530   0.76634   0.00000  Uiso   1.00
N552   N     0.26816   0.13505   0.80736   0.00000  Uiso   1.00
