data_job_03132
_audit_creation_date              2018-12-19
_audit_creation_method            'Materials Studio'
_symmetry_space_group_name_H-M    'P1'
_symmetry_Int_Tables_number       1
_symmetry_cell_setting            triclinic
loop_
_symmetry_equiv_pos_as_xyz
  x,y,z
_cell_length_a                    23.1756
_cell_length_b                    23.1756
_cell_length_c                    12.0551
_cell_angle_alpha                 90.0000
_cell_angle_beta                  90.0000
_cell_angle_gamma                 120.0000
loop_
_atom_site_label
_atom_site_type_symbol
_atom_site_fract_x
_atom_site_fract_y
_atom_site_fract_z
_atom_site_U_iso_or_equiv
_atom_site_adp_type
_atom_site_occupancy
C1     C     0.40082   0.82879   0.56323   0.00000  Uiso   1.00
C2     C     0.39939   0.84829   0.44288   0.00000  Uiso   1.00
C3     C     0.45357   0.87703   0.37144   0.00000  Uiso   1.00
C4     C     0.44199   0.89115   0.26455   0.00000  Uiso   1.00
C5     C     0.44944   0.92361   0.08288   0.00000  Uiso   1.00
C6     C     0.37378   0.86532   0.63192   0.00000  Uiso   1.00
C7     C     0.40645   0.90836   0.71944   0.00000  Uiso   1.00
C8     C     0.37330   0.93681   0.77169   0.00000  Uiso   1.00
C9     C     0.34099   0.99567   0.88357   0.00000  Uiso   1.00
C10    C     0.34914   0.75493   0.57185   0.00000  Uiso   1.00
C11    C     0.36108   0.70515   0.60889   0.00000  Uiso   1.00
C12    C     0.30718   0.64065   0.61059   0.00000  Uiso   1.00
C13    C     0.23660   0.52811   0.62920   0.00000  Uiso   1.00
C14    C     0.28388   0.80277   0.50041   0.00000  Uiso   1.00
C15    C     0.33587   0.83416   0.40876   0.00000  Uiso   1.00
C16    C     0.32419   0.84824   0.30194   0.00000  Uiso   1.00
C17    C     0.37836   0.87699   0.23036   0.00000  Uiso   1.00
C18    C     0.31027   0.85119   0.59780   0.00000  Uiso   1.00
C19    C     0.27707   0.87958   0.64994   0.00000  Uiso   1.00
C20    C     0.30967   0.92265   0.73751   0.00000  Uiso   1.00
C21    C     0.28562   0.74079   0.53773   0.00000  Uiso   1.00
C22    C     0.23170   0.67636   0.53938   0.00000  Uiso   1.00
C23    C     0.24355   0.62649   0.57641   0.00000  Uiso   1.00
H24    H     0.45027   0.83979   0.58980   0.00000  Uiso   1.00
H25    H     0.50272   0.88796   0.39788   0.00000  Uiso   1.00
H26    H     0.45560   0.91929   0.74583   0.00000  Uiso   1.00
H27    H     0.41024   0.71610   0.63529   0.00000  Uiso   1.00
H28    H     0.53288   0.93516   0.17007   0.00000  Uiso   1.00
H29    H     0.43350   0.00119   0.90377   0.00000  Uiso   1.00
H30    H     0.33785   0.57273   0.67067   0.00000  Uiso   1.00
H31    H     0.23442   0.79177   0.47385   0.00000  Uiso   1.00
H32    H     0.27504   0.83730   0.27557   0.00000  Uiso   1.00
H33    H     0.22791   0.86862   0.62352   0.00000  Uiso   1.00
H34    H     0.18255   0.66544   0.51298   0.00000  Uiso   1.00
H35    H     0.34808   0.89404   0.07080   0.00000  Uiso   1.00
H36    H     0.24870   0.96007   0.80450   0.00000  Uiso   1.00
H37    H     0.15305   0.53161   0.57140   0.00000  Uiso   1.00
O38    O     0.47109   0.94544   0.99210   0.00000  Uiso   1.00
O39    O     0.34071   0.03205   0.95469   0.00000  Uiso   1.00
O40    O     0.21522   0.46994   0.64887   0.00000  Uiso   1.00
N41    N     0.48381   0.91922   0.17391   0.00000  Uiso   1.00
N42    N     0.39090   0.98096   0.85986   0.00000  Uiso   1.00
N43    N     0.30147   0.58040   0.64197   0.00000  Uiso   1.00
N44    N     0.38437   0.89709   0.12050   0.00000  Uiso   1.00
N45    N     0.29146   0.95883   0.80644   0.00000  Uiso   1.00
N46    N     0.20203   0.55827   0.58855   0.00000  Uiso   1.00
C47    C     0.17121   0.57203   0.22989   0.00000  Uiso   1.00
C48    C     0.15171   0.55109   0.10954   0.00000  Uiso   1.00
C49    C     0.12297   0.57655   0.03811   0.00000  Uiso   1.00
C50    C     0.10885   0.55084   0.93122   0.00000  Uiso   1.00
C51    C     0.07639   0.52582   0.74954   0.00000  Uiso   1.00
C52    C     0.13468   0.50846   0.29858   0.00000  Uiso   1.00
C53    C     0.09164   0.49808   0.38611   0.00000  Uiso   1.00
C54    C     0.06319   0.43649   0.43836   0.00000  Uiso   1.00
C55    C     0.00433   0.34531   0.55023   0.00000  Uiso   1.00
C56    C     0.24507   0.59421   0.23852   0.00000  Uiso   1.00
C57    C     0.29485   0.65593   0.27556   0.00000  Uiso   1.00
C58    C     0.35935   0.66653   0.27726   0.00000  Uiso   1.00
C59    C     0.47189   0.70849   0.29587   0.00000  Uiso   1.00
C60    C     0.19723   0.48111   0.16708   0.00000  Uiso   1.00
C61    C     0.16584   0.50171   0.07543   0.00000  Uiso   1.00
C62    C     0.15176   0.47596   0.96861   0.00000  Uiso   1.00
C63    C     0.12301   0.50137   0.89703   0.00000  Uiso   1.00
C64    C     0.14881   0.45908   0.26447   0.00000  Uiso   1.00
C65    C     0.12042   0.39749   0.31661   0.00000  Uiso   1.00
C66    C     0.07735   0.38702   0.40418   0.00000  Uiso   1.00
C67    C     0.25921   0.54483   0.20440   0.00000  Uiso   1.00
C68    C     0.32364   0.55534   0.20605   0.00000  Uiso   1.00
C69    C     0.37351   0.61706   0.24308   0.00000  Uiso   1.00
H70    H     0.16021   0.61047   0.25646   0.00000  Uiso   1.00
H71    H     0.11204   0.61476   0.06455   0.00000  Uiso   1.00
H72    H     0.08071   0.53631   0.41250   0.00000  Uiso   1.00
H73    H     0.28390   0.69413   0.30195   0.00000  Uiso   1.00
H74    H     0.06484   0.59772   0.83674   0.00000  Uiso   1.00
H75    H     0.99881   0.43231   0.57043   0.00000  Uiso   1.00
H76    H     0.42727   0.76512   0.33734   0.00000  Uiso   1.00
H77    H     0.20823   0.44266   0.14052   0.00000  Uiso   1.00
H78    H     0.16270   0.43774   0.94223   0.00000  Uiso   1.00
H79    H     0.13138   0.35929   0.29019   0.00000  Uiso   1.00
H80    H     0.33456   0.51711   0.17964   0.00000  Uiso   1.00
H81    H     0.10596   0.45404   0.73747   0.00000  Uiso   1.00
H82    H     0.03993   0.28864   0.47117   0.00000  Uiso   1.00
H83    H     0.46839   0.62144   0.23807   0.00000  Uiso   1.00
O84    O     0.05456   0.52566   0.65877   0.00000  Uiso   1.00
O85    O     0.96795   0.30866   0.62136   0.00000  Uiso   1.00
O86    O     0.53006   0.74528   0.31554   0.00000  Uiso   1.00
N87    N     0.08078   0.56459   0.84058   0.00000  Uiso   1.00
N88    N     0.01904   0.40994   0.52653   0.00000  Uiso   1.00
N89    N     0.41960   0.72108   0.30864   0.00000  Uiso   1.00
N90    N     0.10291   0.48728   0.78716   0.00000  Uiso   1.00
N91    N     0.04117   0.33263   0.47311   0.00000  Uiso   1.00
N92    N     0.44173   0.64376   0.25522   0.00000  Uiso   1.00
C93    C     0.42797   0.59918   0.89656   0.00000  Uiso   1.00
C94    C     0.44891   0.60061   0.77621   0.00000  Uiso   1.00
C95    C     0.42345   0.54643   0.70478   0.00000  Uiso   1.00
C96    C     0.44916   0.55801   0.59788   0.00000  Uiso   1.00
C97    C     0.47418   0.55056   0.41621   0.00000  Uiso   1.00
C98    C     0.49154   0.62622   0.96525   0.00000  Uiso   1.00
C99    C     0.50192   0.59355   0.05277   0.00000  Uiso   1.00
C100   C     0.56351   0.62670   0.10502   0.00000  Uiso   1.00
C101   C     0.65469   0.65901   0.21690   0.00000  Uiso   1.00
C102   C     0.40579   0.65086   0.90518   0.00000  Uiso   1.00
C103   C     0.34407   0.63892   0.94223   0.00000  Uiso   1.00
C104   C     0.33347   0.69282   0.94393   0.00000  Uiso   1.00
C105   C     0.29151   0.76340   0.96253   0.00000  Uiso   1.00
C106   C     0.51889   0.71612   0.83375   0.00000  Uiso   1.00
C107   C     0.49829   0.66413   0.74209   0.00000  Uiso   1.00
C108   C     0.52404   0.67581   0.63528   0.00000  Uiso   1.00
C109   C     0.49863   0.62164   0.56370   0.00000  Uiso   1.00
C110   C     0.54092   0.68973   0.93114   0.00000  Uiso   1.00
C111   C     0.60251   0.72293   0.98328   0.00000  Uiso   1.00
C112   C     0.61298   0.69033   0.07085   0.00000  Uiso   1.00
C113   C     0.45517   0.71438   0.87106   0.00000  Uiso   1.00
C114   C     0.44466   0.76830   0.87272   0.00000  Uiso   1.00
C115   C     0.38294   0.75645   0.90975   0.00000  Uiso   1.00
H116   H     0.38953   0.54973   0.92313   0.00000  Uiso   1.00
H117   H     0.38524   0.49728   0.73122   0.00000  Uiso   1.00
H118   H     0.46369   0.54440   0.07916   0.00000  Uiso   1.00
H119   H     0.30587   0.58976   0.96862   0.00000  Uiso   1.00
H120   H     0.40228   0.46712   0.50341   0.00000  Uiso   1.00
H121   H     0.56769   0.56650   0.23710   0.00000  Uiso   1.00
H122   H     0.23488   0.66215   0.00401   0.00000  Uiso   1.00
H123   H     0.55734   0.76558   0.80719   0.00000  Uiso   1.00
H124   H     0.56226   0.72496   0.60890   0.00000  Uiso   1.00
H125   H     0.64071   0.77209   0.95685   0.00000  Uiso   1.00
H126   H     0.48289   0.81745   0.84631   0.00000  Uiso   1.00
H127   H     0.54596   0.65192   0.40413   0.00000  Uiso   1.00
H128   H     0.71136   0.75130   0.13783   0.00000  Uiso   1.00
H129   H     0.37856   0.84695   0.90473   0.00000  Uiso   1.00
O130   O     0.47434   0.52891   0.32544   0.00000  Uiso   1.00
O131   O     0.69134   0.65929   0.28803   0.00000  Uiso   1.00
O132   O     0.25472   0.78478   0.98221   0.00000  Uiso   1.00
N133   N     0.43541   0.51619   0.50725   0.00000  Uiso   1.00
N134   N     0.59006   0.60910   0.19320   0.00000  Uiso   1.00
N135   N     0.27892   0.69853   0.97530   0.00000  Uiso   1.00
N136   N     0.51272   0.61563   0.45383   0.00000  Uiso   1.00
N137   N     0.66737   0.70854   0.13978   0.00000  Uiso   1.00
N138   N     0.35624   0.79797   0.92188   0.00000  Uiso   1.00
C139   C     0.82879   0.40082   0.43677   0.00000  Uiso   1.00
C140   C     0.84829   0.39939   0.55712   0.00000  Uiso   1.00
C141   C     0.87703   0.45357   0.62856   0.00000  Uiso   1.00
C142   C     0.89115   0.44199   0.73545   0.00000  Uiso   1.00
C143   C     0.92361   0.44944   0.91712   0.00000  Uiso   1.00
C144   C     0.86532   0.37378   0.36808   0.00000  Uiso   1.00
C145   C     0.90836   0.40645   0.28056   0.00000  Uiso   1.00
C146   C     0.93681   0.37330   0.22831   0.00000  Uiso   1.00
C147   C     0.99567   0.34099   0.11643   0.00000  Uiso   1.00
C148   C     0.75493   0.34914   0.42815   0.00000  Uiso   1.00
C149   C     0.70515   0.36108   0.39111   0.00000  Uiso   1.00
C150   C     0.64065   0.30718   0.38941   0.00000  Uiso   1.00
C151   C     0.52811   0.23660   0.37080   0.00000  Uiso   1.00
C152   C     0.80277   0.28388   0.49959   0.00000  Uiso   1.00
C153   C     0.83416   0.33587   0.59124   0.00000  Uiso   1.00
C154   C     0.84824   0.32419   0.69806   0.00000  Uiso   1.00
C155   C     0.87699   0.37836   0.76964   0.00000  Uiso   1.00
C156   C     0.85119   0.31027   0.40220   0.00000  Uiso   1.00
C157   C     0.87958   0.27707   0.35006   0.00000  Uiso   1.00
C158   C     0.92265   0.30967   0.26249   0.00000  Uiso   1.00
C159   C     0.74079   0.28562   0.46227   0.00000  Uiso   1.00
C160   C     0.67636   0.23170   0.46062   0.00000  Uiso   1.00
C161   C     0.62649   0.24355   0.42359   0.00000  Uiso   1.00
H162   H     0.83979   0.45027   0.41020   0.00000  Uiso   1.00
H163   H     0.88796   0.50272   0.60212   0.00000  Uiso   1.00
H164   H     0.91929   0.45560   0.25417   0.00000  Uiso   1.00
H165   H     0.71610   0.41024   0.36471   0.00000  Uiso   1.00
H166   H     0.93516   0.53288   0.82993   0.00000  Uiso   1.00
H167   H     0.00119   0.43350   0.09623   0.00000  Uiso   1.00
H168   H     0.57273   0.33785   0.32933   0.00000  Uiso   1.00
H169   H     0.79177   0.23442   0.52615   0.00000  Uiso   1.00
H170   H     0.83730   0.27504   0.72443   0.00000  Uiso   1.00
H171   H     0.86862   0.22791   0.37648   0.00000  Uiso   1.00
H172   H     0.66544   0.18255   0.48702   0.00000  Uiso   1.00
H173   H     0.89404   0.34808   0.92920   0.00000  Uiso   1.00
H174   H     0.96007   0.24870   0.19550   0.00000  Uiso   1.00
H175   H     0.53161   0.15305   0.42860   0.00000  Uiso   1.00
O176   O     0.94544   0.47109   0.00790   0.00000  Uiso   1.00
O177   O     0.03205   0.34071   0.04531   0.00000  Uiso   1.00
O178   O     0.46994   0.21522   0.35113   0.00000  Uiso   1.00
N179   N     0.91922   0.48381   0.82609   0.00000  Uiso   1.00
N180   N     0.98096   0.39090   0.14014   0.00000  Uiso   1.00
N181   N     0.58040   0.30147   0.35803   0.00000  Uiso   1.00
N182   N     0.89709   0.38437   0.87950   0.00000  Uiso   1.00
N183   N     0.95883   0.29146   0.19356   0.00000  Uiso   1.00
N184   N     0.55827   0.20203   0.41145   0.00000  Uiso   1.00
C185   C     0.57203   0.17121   0.77011   0.00000  Uiso   1.00
C186   C     0.55109   0.15171   0.89046   0.00000  Uiso   1.00
C187   C     0.57655   0.12297   0.96189   0.00000  Uiso   1.00
C188   C     0.55084   0.10885   0.06878   0.00000  Uiso   1.00
C189   C     0.52582   0.07639   0.25046   0.00000  Uiso   1.00
C190   C     0.50846   0.13468   0.70142   0.00000  Uiso   1.00
C191   C     0.49808   0.09164   0.61389   0.00000  Uiso   1.00
C192   C     0.43649   0.06319   0.56164   0.00000  Uiso   1.00
C193   C     0.34531   0.00433   0.44977   0.00000  Uiso   1.00
C194   C     0.59421   0.24507   0.76148   0.00000  Uiso   1.00
C195   C     0.65593   0.29485   0.72444   0.00000  Uiso   1.00
C196   C     0.66653   0.35935   0.72274   0.00000  Uiso   1.00
C197   C     0.70849   0.47189   0.70413   0.00000  Uiso   1.00
C198   C     0.48111   0.19723   0.83292   0.00000  Uiso   1.00
C199   C     0.50171   0.16584   0.92457   0.00000  Uiso   1.00
C200   C     0.47596   0.15176   0.03139   0.00000  Uiso   1.00
C201   C     0.50137   0.12301   0.10297   0.00000  Uiso   1.00
C202   C     0.45908   0.14881   0.73553   0.00000  Uiso   1.00
C203   C     0.39749   0.12042   0.68339   0.00000  Uiso   1.00
C204   C     0.38702   0.07735   0.59582   0.00000  Uiso   1.00
C205   C     0.54483   0.25921   0.79560   0.00000  Uiso   1.00
C206   C     0.55534   0.32364   0.79395   0.00000  Uiso   1.00
C207   C     0.61706   0.37351   0.75692   0.00000  Uiso   1.00
H208   H     0.61047   0.16021   0.74354   0.00000  Uiso   1.00
H209   H     0.61476   0.11204   0.93545   0.00000  Uiso   1.00
H210   H     0.53631   0.08071   0.58750   0.00000  Uiso   1.00
H211   H     0.69413   0.28390   0.69805   0.00000  Uiso   1.00
H212   H     0.59772   0.06484   0.16326   0.00000  Uiso   1.00
H213   H     0.43231   0.99881   0.42957   0.00000  Uiso   1.00
H214   H     0.76512   0.42727   0.66266   0.00000  Uiso   1.00
H215   H     0.44266   0.20823   0.85948   0.00000  Uiso   1.00
H216   H     0.43774   0.16270   0.05777   0.00000  Uiso   1.00
H217   H     0.35929   0.13138   0.70981   0.00000  Uiso   1.00
H218   H     0.51711   0.33456   0.82036   0.00000  Uiso   1.00
H219   H     0.45404   0.10596   0.26253   0.00000  Uiso   1.00
H220   H     0.28864   0.03993   0.52883   0.00000  Uiso   1.00
H221   H     0.62144   0.46839   0.76193   0.00000  Uiso   1.00
O222   O     0.52566   0.05456   0.34123   0.00000  Uiso   1.00
O223   O     0.30866   0.96795   0.37864   0.00000  Uiso   1.00
O224   O     0.74528   0.53006   0.68446   0.00000  Uiso   1.00
N225   N     0.56459   0.08078   0.15942   0.00000  Uiso   1.00
N226   N     0.40994   0.01904   0.47347   0.00000  Uiso   1.00
N227   N     0.72108   0.41960   0.69136   0.00000  Uiso   1.00
N228   N     0.48728   0.10291   0.21284   0.00000  Uiso   1.00
N229   N     0.33263   0.04117   0.52689   0.00000  Uiso   1.00
N230   N     0.64376   0.44173   0.74478   0.00000  Uiso   1.00
C231   C     0.59918   0.42797   0.10344   0.00000  Uiso   1.00
C232   C     0.60061   0.44891   0.22379   0.00000  Uiso   1.00
C233   C     0.54643   0.42345   0.29522   0.00000  Uiso   1.00
C234   C     0.55801   0.44916   0.40212   0.00000  Uiso   1.00
C235   C     0.55056   0.47418   0.58379   0.00000  Uiso   1.00
C236   C     0.62622   0.49154   0.03475   0.00000  Uiso   1.00
C237   C     0.59355   0.50192   0.94723   0.00000  Uiso   1.00
C238   C     0.62670   0.56351   0.89498   0.00000  Uiso   1.00
C239   C     0.65901   0.65469   0.78310   0.00000  Uiso   1.00
C240   C     0.65086   0.40579   0.09482   0.00000  Uiso   1.00
C241   C     0.63892   0.34407   0.05777   0.00000  Uiso   1.00
C242   C     0.69282   0.33347   0.05607   0.00000  Uiso   1.00
C243   C     0.76340   0.29151   0.03747   0.00000  Uiso   1.00
C244   C     0.71612   0.51889   0.16625   0.00000  Uiso   1.00
C245   C     0.66413   0.49829   0.25791   0.00000  Uiso   1.00
C246   C     0.67581   0.52404   0.36472   0.00000  Uiso   1.00
C247   C     0.62164   0.49863   0.43630   0.00000  Uiso   1.00
C248   C     0.68973   0.54092   0.06886   0.00000  Uiso   1.00
C249   C     0.72293   0.60251   0.01672   0.00000  Uiso   1.00
C250   C     0.69033   0.61298   0.92915   0.00000  Uiso   1.00
C251   C     0.71438   0.45517   0.12894   0.00000  Uiso   1.00
C252   C     0.76830   0.44466   0.12728   0.00000  Uiso   1.00
C253   C     0.75645   0.38294   0.09025   0.00000  Uiso   1.00
H254   H     0.54973   0.38953   0.07687   0.00000  Uiso   1.00
H255   H     0.49728   0.38524   0.26878   0.00000  Uiso   1.00
H256   H     0.54440   0.46369   0.92084   0.00000  Uiso   1.00
H257   H     0.58976   0.30587   0.03138   0.00000  Uiso   1.00
H258   H     0.46712   0.40228   0.49659   0.00000  Uiso   1.00
H259   H     0.56650   0.56769   0.76290   0.00000  Uiso   1.00
H260   H     0.66215   0.23488   0.99599   0.00000  Uiso   1.00
H261   H     0.76558   0.55734   0.19281   0.00000  Uiso   1.00
H262   H     0.72496   0.56226   0.39110   0.00000  Uiso   1.00
H263   H     0.77209   0.64071   0.04315   0.00000  Uiso   1.00
H264   H     0.81745   0.48289   0.15369   0.00000  Uiso   1.00
H265   H     0.65192   0.54596   0.59587   0.00000  Uiso   1.00
H266   H     0.75130   0.71136   0.86217   0.00000  Uiso   1.00
H267   H     0.84695   0.37856   0.09527   0.00000  Uiso   1.00
O268   O     0.52891   0.47434   0.67456   0.00000  Uiso   1.00
O269   O     0.65929   0.69134   0.71197   0.00000  Uiso   1.00
O270   O     0.78478   0.25472   0.01779   0.00000  Uiso   1.00
N271   N     0.51619   0.43541   0.49275   0.00000  Uiso   1.00
N272   N     0.60910   0.59006   0.80680   0.00000  Uiso   1.00
N273   N     0.69853   0.27892   0.02470   0.00000  Uiso   1.00
N274   N     0.61563   0.51272   0.54617   0.00000  Uiso   1.00
N275   N     0.70854   0.66737   0.86022   0.00000  Uiso   1.00
N276   N     0.79797   0.35624   0.07812   0.00000  Uiso   1.00
