data_job_05653
_audit_creation_date              2018-12-19
_audit_creation_method            'Materials Studio'
_symmetry_space_group_name_H-M    'P1'
_symmetry_Int_Tables_number       1
_symmetry_cell_setting            triclinic
loop_
_symmetry_equiv_pos_as_xyz
  x,y,z
_cell_length_a                    12.2611
_cell_length_b                    17.0528
_cell_length_c                    21.8453
_cell_angle_alpha                 90.0000
_cell_angle_beta                  90.0000
_cell_angle_gamma                 90.0000
loop_
_atom_site_label
_atom_site_type_symbol
_atom_site_fract_x
_atom_site_fract_y
_atom_site_fract_z
_atom_site_U_iso_or_equiv
_atom_site_adp_type
_atom_site_occupancy
C1     C     0.73295   0.98705   0.78317   0.00000  Uiso   1.00
C2     C     0.70050   0.91277   0.74883   0.00000  Uiso   1.00
C3     C     0.70483   0.90233   0.68588   0.00000  Uiso   1.00
C4     C     0.67157   0.83005   0.66336   0.00000  Uiso   1.00
C5     C     0.62666   0.72379   0.60409   0.00000  Uiso   1.00
C6     C     0.63326   0.01097   0.82050   0.00000  Uiso   1.00
C7     C     0.58106   0.08310   0.81781   0.00000  Uiso   1.00
C8     C     0.49121   0.09349   0.85564   0.00000  Uiso   1.00
C9     C     0.34196   0.13971   0.90768   0.00000  Uiso   1.00
C10    C     0.81932   0.96217   0.82948   0.00000  Uiso   1.00
C11    C     0.92355   0.99328   0.83435   0.00000  Uiso   1.00
C12    C     0.99034   0.96259   0.87974   0.00000  Uiso   1.00
C13    C     0.12996   0.93304   0.94572   0.00000  Uiso   1.00
C14    C     0.66620   0.87724   0.85513   0.00000  Uiso   1.00
C15    C     0.66425   0.85312   0.78792   0.00000  Uiso   1.00
C16    C     0.63098   0.78084   0.76549   0.00000  Uiso   1.00
C17    C     0.63526   0.77029   0.70251   0.00000  Uiso   1.00
C18    C     0.59701   0.95133   0.85959   0.00000  Uiso   1.00
C19    C     0.50722   0.96161   0.89743   0.00000  Uiso   1.00
C20    C     0.45490   0.03373   0.89480   0.00000  Uiso   1.00
C21    C     0.78307   0.90252   0.86857   0.00000  Uiso   1.00
C22    C     0.84971   0.87178   0.91396   0.00000  Uiso   1.00
C23    C     0.95402   0.90283   0.91890   0.00000  Uiso   1.00
H24    H     0.76116   0.03349   0.75274   0.00000  Uiso   1.00
H25    H     0.73288   0.94851   0.65564   0.00000  Uiso   1.00
H26    H     0.60914   0.12925   0.78757   0.00000  Uiso   1.00
H27    H     0.95157   0.03944   0.80409   0.00000  Uiso   1.00
H28    H     0.68549   0.82799   0.56523   0.00000  Uiso   1.00
H29    H     0.42461   0.20911   0.84341   0.00000  Uiso   1.00
H30    H     0.14670   0.01972   0.87827   0.00000  Uiso   1.00
H31    H     0.63798   0.83080   0.88556   0.00000  Uiso   1.00
H32    H     0.60293   0.73469   0.79575   0.00000  Uiso   1.00
H33    H     0.47920   0.91544   0.92767   0.00000  Uiso   1.00
H34    H     0.82163   0.82562   0.94420   0.00000  Uiso   1.00
H35    H     0.58002   0.65445   0.67894   0.00000  Uiso   1.00
H36    H     0.31914   0.03557   0.95713   0.00000  Uiso   1.00
H37    H     0.04123   0.84618   0.99199   0.00000  Uiso   1.00
O38    O     0.61189   0.68166   0.56061   0.00000  Uiso   1.00
O39    O     0.26964   0.18168   0.92558   0.00000  Uiso   1.00
O40    O     0.21700   0.93320   0.97131   0.00000  Uiso   1.00
N41    N     0.66550   0.80033   0.60432   0.00000  Uiso   1.00
N42    N     0.42158   0.15665   0.86440   0.00000  Uiso   1.00
N43    N     0.09666   0.97960   0.89699   0.00000  Uiso   1.00
N44    N     0.60875   0.70695   0.66551   0.00000  Uiso   1.00
N45    N     0.36483   0.06327   0.92559   0.00000  Uiso   1.00
N46    N     0.03991   0.88622   0.95819   0.00000  Uiso   1.00
C47    C     0.23295   0.48705   0.78317   0.00000  Uiso   1.00
C48    C     0.20050   0.41277   0.74883   0.00000  Uiso   1.00
C49    C     0.20483   0.40233   0.68588   0.00000  Uiso   1.00
C50    C     0.17157   0.33005   0.66336   0.00000  Uiso   1.00
C51    C     0.12666   0.22379   0.60409   0.00000  Uiso   1.00
C52    C     0.13326   0.51097   0.82050   0.00000  Uiso   1.00
C53    C     0.08106   0.58310   0.81781   0.00000  Uiso   1.00
C54    C     0.99121   0.59349   0.85564   0.00000  Uiso   1.00
C55    C     0.84196   0.63971   0.90768   0.00000  Uiso   1.00
C56    C     0.31932   0.46217   0.82948   0.00000  Uiso   1.00
C57    C     0.42355   0.49328   0.83435   0.00000  Uiso   1.00
C58    C     0.49034   0.46259   0.87974   0.00000  Uiso   1.00
C59    C     0.62996   0.43304   0.94572   0.00000  Uiso   1.00
C60    C     0.16620   0.37724   0.85513   0.00000  Uiso   1.00
C61    C     0.16425   0.35312   0.78792   0.00000  Uiso   1.00
C62    C     0.13098   0.28084   0.76549   0.00000  Uiso   1.00
C63    C     0.13526   0.27029   0.70251   0.00000  Uiso   1.00
C64    C     0.09701   0.45133   0.85959   0.00000  Uiso   1.00
C65    C     0.00722   0.46161   0.89743   0.00000  Uiso   1.00
C66    C     0.95490   0.53373   0.89480   0.00000  Uiso   1.00
C67    C     0.28307   0.40252   0.86857   0.00000  Uiso   1.00
C68    C     0.34971   0.37178   0.91396   0.00000  Uiso   1.00
C69    C     0.45402   0.40283   0.91890   0.00000  Uiso   1.00
H70    H     0.26116   0.53349   0.75274   0.00000  Uiso   1.00
H71    H     0.23288   0.44851   0.65564   0.00000  Uiso   1.00
H72    H     0.10914   0.62925   0.78757   0.00000  Uiso   1.00
H73    H     0.45157   0.53944   0.80409   0.00000  Uiso   1.00
H74    H     0.18549   0.32799   0.56523   0.00000  Uiso   1.00
H75    H     0.92461   0.70911   0.84341   0.00000  Uiso   1.00
H76    H     0.64670   0.51972   0.87827   0.00000  Uiso   1.00
H77    H     0.13798   0.33080   0.88556   0.00000  Uiso   1.00
H78    H     0.10293   0.23469   0.79575   0.00000  Uiso   1.00
H79    H     0.97920   0.41544   0.92767   0.00000  Uiso   1.00
H80    H     0.32163   0.32562   0.94420   0.00000  Uiso   1.00
H81    H     0.08002   0.15445   0.67894   0.00000  Uiso   1.00
H82    H     0.81914   0.53557   0.95713   0.00000  Uiso   1.00
H83    H     0.54123   0.34618   0.99199   0.00000  Uiso   1.00
O84    O     0.11189   0.18166   0.56061   0.00000  Uiso   1.00
O85    O     0.76964   0.68168   0.92558   0.00000  Uiso   1.00
O86    O     0.71700   0.43320   0.97131   0.00000  Uiso   1.00
N87    N     0.16550   0.30033   0.60432   0.00000  Uiso   1.00
N88    N     0.92158   0.65665   0.86440   0.00000  Uiso   1.00
N89    N     0.59666   0.47960   0.89699   0.00000  Uiso   1.00
N90    N     0.10875   0.20695   0.66551   0.00000  Uiso   1.00
N91    N     0.86483   0.56327   0.92559   0.00000  Uiso   1.00
N92    N     0.53991   0.38622   0.95819   0.00000  Uiso   1.00
C93    C     0.26705   0.01295   0.28317   0.00000  Uiso   1.00
C94    C     0.29950   0.08723   0.24883   0.00000  Uiso   1.00
C95    C     0.29517   0.09767   0.18588   0.00000  Uiso   1.00
C96    C     0.32843   0.16995   0.16336   0.00000  Uiso   1.00
C97    C     0.37334   0.27621   0.10409   0.00000  Uiso   1.00
C98    C     0.36674   0.98903   0.32050   0.00000  Uiso   1.00
C99    C     0.41894   0.91690   0.31781   0.00000  Uiso   1.00
C100   C     0.50879   0.90651   0.35564   0.00000  Uiso   1.00
C101   C     0.65804   0.86029   0.40768   0.00000  Uiso   1.00
C102   C     0.18068   0.03783   0.32948   0.00000  Uiso   1.00
C103   C     0.07645   0.00672   0.33435   0.00000  Uiso   1.00
C104   C     0.00966   0.03741   0.37974   0.00000  Uiso   1.00
C105   C     0.87004   0.06696   0.44572   0.00000  Uiso   1.00
C106   C     0.33380   0.12276   0.35513   0.00000  Uiso   1.00
C107   C     0.33575   0.14688   0.28792   0.00000  Uiso   1.00
C108   C     0.36902   0.21916   0.26549   0.00000  Uiso   1.00
C109   C     0.36474   0.22971   0.20251   0.00000  Uiso   1.00
C110   C     0.40299   0.04867   0.35959   0.00000  Uiso   1.00
C111   C     0.49278   0.03839   0.39743   0.00000  Uiso   1.00
C112   C     0.54510   0.96627   0.39480   0.00000  Uiso   1.00
C113   C     0.21693   0.09748   0.36857   0.00000  Uiso   1.00
C114   C     0.15029   0.12822   0.41396   0.00000  Uiso   1.00
C115   C     0.04598   0.09717   0.41890   0.00000  Uiso   1.00
H116   H     0.23884   0.96651   0.25274   0.00000  Uiso   1.00
H117   H     0.26712   0.05149   0.15564   0.00000  Uiso   1.00
H118   H     0.39086   0.87075   0.28757   0.00000  Uiso   1.00
H119   H     0.04843   0.96056   0.30409   0.00000  Uiso   1.00
H120   H     0.31451   0.17201   0.06523   0.00000  Uiso   1.00
H121   H     0.57539   0.79089   0.34341   0.00000  Uiso   1.00
H122   H     0.85330   0.98028   0.37827   0.00000  Uiso   1.00
H123   H     0.36202   0.16920   0.38556   0.00000  Uiso   1.00
H124   H     0.39707   0.26531   0.29575   0.00000  Uiso   1.00
H125   H     0.52080   0.08456   0.42767   0.00000  Uiso   1.00
H126   H     0.17837   0.17438   0.44420   0.00000  Uiso   1.00
H127   H     0.41998   0.34555   0.17894   0.00000  Uiso   1.00
H128   H     0.68086   0.96443   0.45713   0.00000  Uiso   1.00
H129   H     0.95877   0.15382   0.49199   0.00000  Uiso   1.00
O130   O     0.38811   0.31834   0.06061   0.00000  Uiso   1.00
O131   O     0.73036   0.81832   0.42558   0.00000  Uiso   1.00
O132   O     0.78300   0.06680   0.47131   0.00000  Uiso   1.00
N133   N     0.33450   0.19967   0.10432   0.00000  Uiso   1.00
N134   N     0.57842   0.84335   0.36440   0.00000  Uiso   1.00
N135   N     0.90334   0.02040   0.39699   0.00000  Uiso   1.00
N136   N     0.39125   0.29305   0.16551   0.00000  Uiso   1.00
N137   N     0.63517   0.93673   0.42559   0.00000  Uiso   1.00
N138   N     0.96009   0.11378   0.45819   0.00000  Uiso   1.00
C139   C     0.76705   0.51295   0.28317   0.00000  Uiso   1.00
C140   C     0.79950   0.58723   0.24883   0.00000  Uiso   1.00
C141   C     0.79517   0.59767   0.18588   0.00000  Uiso   1.00
C142   C     0.82843   0.66995   0.16336   0.00000  Uiso   1.00
C143   C     0.87334   0.77621   0.10409   0.00000  Uiso   1.00
C144   C     0.86674   0.48903   0.32050   0.00000  Uiso   1.00
C145   C     0.91894   0.41690   0.31781   0.00000  Uiso   1.00
C146   C     0.00879   0.40651   0.35564   0.00000  Uiso   1.00
C147   C     0.15804   0.36029   0.40768   0.00000  Uiso   1.00
C148   C     0.68068   0.53783   0.32948   0.00000  Uiso   1.00
C149   C     0.57645   0.50672   0.33435   0.00000  Uiso   1.00
C150   C     0.50966   0.53741   0.37974   0.00000  Uiso   1.00
C151   C     0.37004   0.56696   0.44572   0.00000  Uiso   1.00
C152   C     0.83380   0.62276   0.35513   0.00000  Uiso   1.00
C153   C     0.83575   0.64688   0.28792   0.00000  Uiso   1.00
C154   C     0.86902   0.71916   0.26549   0.00000  Uiso   1.00
C155   C     0.86474   0.72971   0.20251   0.00000  Uiso   1.00
C156   C     0.90299   0.54867   0.35959   0.00000  Uiso   1.00
C157   C     0.99278   0.53839   0.39743   0.00000  Uiso   1.00
C158   C     0.04510   0.46627   0.39480   0.00000  Uiso   1.00
C159   C     0.71693   0.59748   0.36857   0.00000  Uiso   1.00
C160   C     0.65029   0.62822   0.41396   0.00000  Uiso   1.00
C161   C     0.54598   0.59717   0.41890   0.00000  Uiso   1.00
H162   H     0.73884   0.46651   0.25274   0.00000  Uiso   1.00
H163   H     0.76712   0.55149   0.15564   0.00000  Uiso   1.00
H164   H     0.89086   0.37075   0.28757   0.00000  Uiso   1.00
H165   H     0.54843   0.46056   0.30409   0.00000  Uiso   1.00
H166   H     0.81451   0.67201   0.06523   0.00000  Uiso   1.00
H167   H     0.07539   0.29089   0.34341   0.00000  Uiso   1.00
H168   H     0.35330   0.48028   0.37827   0.00000  Uiso   1.00
H169   H     0.86202   0.66920   0.38556   0.00000  Uiso   1.00
H170   H     0.89707   0.76531   0.29575   0.00000  Uiso   1.00
H171   H     0.02080   0.58456   0.42767   0.00000  Uiso   1.00
H172   H     0.67837   0.67438   0.44420   0.00000  Uiso   1.00
H173   H     0.91998   0.84555   0.17894   0.00000  Uiso   1.00
H174   H     0.18086   0.46443   0.45713   0.00000  Uiso   1.00
H175   H     0.45877   0.65382   0.49199   0.00000  Uiso   1.00
O176   O     0.88811   0.81834   0.06061   0.00000  Uiso   1.00
O177   O     0.23036   0.31832   0.42558   0.00000  Uiso   1.00
O178   O     0.28300   0.56680   0.47131   0.00000  Uiso   1.00
N179   N     0.83450   0.69967   0.10432   0.00000  Uiso   1.00
N180   N     0.07842   0.34335   0.36440   0.00000  Uiso   1.00
N181   N     0.40334   0.52040   0.39699   0.00000  Uiso   1.00
N182   N     0.89125   0.79305   0.16551   0.00000  Uiso   1.00
N183   N     0.13517   0.43673   0.42559   0.00000  Uiso   1.00
N184   N     0.46009   0.61378   0.45819   0.00000  Uiso   1.00
C185   C     0.26705   0.98705   0.71683   0.00000  Uiso   1.00
C186   C     0.29950   0.91277   0.75117   0.00000  Uiso   1.00
C187   C     0.29517   0.90233   0.81412   0.00000  Uiso   1.00
C188   C     0.32843   0.83005   0.83664   0.00000  Uiso   1.00
C189   C     0.37334   0.72379   0.89591   0.00000  Uiso   1.00
C190   C     0.36674   0.01097   0.67950   0.00000  Uiso   1.00
C191   C     0.41894   0.08310   0.68219   0.00000  Uiso   1.00
C192   C     0.50879   0.09349   0.64436   0.00000  Uiso   1.00
C193   C     0.65804   0.13971   0.59232   0.00000  Uiso   1.00
C194   C     0.18068   0.96217   0.67052   0.00000  Uiso   1.00
C195   C     0.07645   0.99328   0.66565   0.00000  Uiso   1.00
C196   C     0.00966   0.96259   0.62026   0.00000  Uiso   1.00
C197   C     0.87004   0.93304   0.55428   0.00000  Uiso   1.00
C198   C     0.33380   0.87724   0.64487   0.00000  Uiso   1.00
C199   C     0.33575   0.85312   0.71208   0.00000  Uiso   1.00
C200   C     0.36902   0.78084   0.73451   0.00000  Uiso   1.00
C201   C     0.36474   0.77029   0.79749   0.00000  Uiso   1.00
C202   C     0.40299   0.95133   0.64041   0.00000  Uiso   1.00
C203   C     0.49278   0.96161   0.60257   0.00000  Uiso   1.00
C204   C     0.54510   0.03373   0.60520   0.00000  Uiso   1.00
C205   C     0.21693   0.90252   0.63143   0.00000  Uiso   1.00
C206   C     0.15029   0.87178   0.58604   0.00000  Uiso   1.00
C207   C     0.04598   0.90283   0.58110   0.00000  Uiso   1.00
H208   H     0.23884   0.03349   0.74726   0.00000  Uiso   1.00
H209   H     0.26712   0.94851   0.84436   0.00000  Uiso   1.00
H210   H     0.39086   0.12925   0.71243   0.00000  Uiso   1.00
H211   H     0.04843   0.03944   0.69591   0.00000  Uiso   1.00
H212   H     0.31451   0.82799   0.93477   0.00000  Uiso   1.00
H213   H     0.57539   0.20911   0.65659   0.00000  Uiso   1.00
H214   H     0.85330   0.01972   0.62173   0.00000  Uiso   1.00
H215   H     0.36202   0.83080   0.61444   0.00000  Uiso   1.00
H216   H     0.39707   0.73469   0.70425   0.00000  Uiso   1.00
H217   H     0.52080   0.91544   0.57233   0.00000  Uiso   1.00
H218   H     0.17837   0.82562   0.55580   0.00000  Uiso   1.00
H219   H     0.41998   0.65445   0.82106   0.00000  Uiso   1.00
H220   H     0.68086   0.03557   0.54287   0.00000  Uiso   1.00
H221   H     0.95877   0.84618   0.50801   0.00000  Uiso   1.00
O222   O     0.38811   0.68166   0.93939   0.00000  Uiso   1.00
O223   O     0.73036   0.18168   0.57442   0.00000  Uiso   1.00
O224   O     0.78300   0.93320   0.52869   0.00000  Uiso   1.00
N225   N     0.33450   0.80033   0.89568   0.00000  Uiso   1.00
N226   N     0.57842   0.15665   0.63560   0.00000  Uiso   1.00
N227   N     0.90334   0.97960   0.60301   0.00000  Uiso   1.00
N228   N     0.39125   0.70695   0.83449   0.00000  Uiso   1.00
N229   N     0.63517   0.06327   0.57441   0.00000  Uiso   1.00
N230   N     0.96009   0.88622   0.54181   0.00000  Uiso   1.00
C231   C     0.76705   0.48705   0.71683   0.00000  Uiso   1.00
C232   C     0.79950   0.41277   0.75117   0.00000  Uiso   1.00
C233   C     0.79517   0.40233   0.81412   0.00000  Uiso   1.00
C234   C     0.82843   0.33005   0.83664   0.00000  Uiso   1.00
C235   C     0.87334   0.22379   0.89591   0.00000  Uiso   1.00
C236   C     0.86674   0.51097   0.67950   0.00000  Uiso   1.00
C237   C     0.91894   0.58310   0.68219   0.00000  Uiso   1.00
C238   C     0.00879   0.59349   0.64436   0.00000  Uiso   1.00
C239   C     0.15804   0.63971   0.59232   0.00000  Uiso   1.00
C240   C     0.68068   0.46217   0.67052   0.00000  Uiso   1.00
C241   C     0.57645   0.49328   0.66565   0.00000  Uiso   1.00
C242   C     0.50966   0.46259   0.62026   0.00000  Uiso   1.00
C243   C     0.37004   0.43304   0.55428   0.00000  Uiso   1.00
C244   C     0.83380   0.37724   0.64487   0.00000  Uiso   1.00
C245   C     0.83575   0.35312   0.71208   0.00000  Uiso   1.00
C246   C     0.86902   0.28084   0.73451   0.00000  Uiso   1.00
C247   C     0.86474   0.27029   0.79749   0.00000  Uiso   1.00
C248   C     0.90299   0.45133   0.64041   0.00000  Uiso   1.00
C249   C     0.99278   0.46161   0.60257   0.00000  Uiso   1.00
C250   C     0.04510   0.53373   0.60520   0.00000  Uiso   1.00
C251   C     0.71693   0.40252   0.63143   0.00000  Uiso   1.00
C252   C     0.65029   0.37178   0.58604   0.00000  Uiso   1.00
C253   C     0.54598   0.40283   0.58110   0.00000  Uiso   1.00
H254   H     0.73884   0.53349   0.74726   0.00000  Uiso   1.00
H255   H     0.76712   0.44851   0.84436   0.00000  Uiso   1.00
H256   H     0.89086   0.62925   0.71243   0.00000  Uiso   1.00
H257   H     0.54843   0.53944   0.69591   0.00000  Uiso   1.00
H258   H     0.81451   0.32799   0.93477   0.00000  Uiso   1.00
H259   H     0.07539   0.70911   0.65659   0.00000  Uiso   1.00
H260   H     0.35330   0.51972   0.62173   0.00000  Uiso   1.00
H261   H     0.86202   0.33080   0.61444   0.00000  Uiso   1.00
H262   H     0.89707   0.23469   0.70425   0.00000  Uiso   1.00
H263   H     0.02080   0.41544   0.57233   0.00000  Uiso   1.00
H264   H     0.67837   0.32562   0.55580   0.00000  Uiso   1.00
H265   H     0.91998   0.15445   0.82106   0.00000  Uiso   1.00
H266   H     0.18086   0.53557   0.54287   0.00000  Uiso   1.00
H267   H     0.45877   0.34618   0.50801   0.00000  Uiso   1.00
O268   O     0.88811   0.18166   0.93939   0.00000  Uiso   1.00
O269   O     0.23036   0.68168   0.57442   0.00000  Uiso   1.00
O270   O     0.28300   0.43320   0.52869   0.00000  Uiso   1.00
N271   N     0.83450   0.30033   0.89568   0.00000  Uiso   1.00
N272   N     0.07842   0.65665   0.63560   0.00000  Uiso   1.00
N273   N     0.40334   0.47960   0.60301   0.00000  Uiso   1.00
N274   N     0.89125   0.20695   0.83449   0.00000  Uiso   1.00
N275   N     0.13517   0.56327   0.57441   0.00000  Uiso   1.00
N276   N     0.46009   0.38622   0.54181   0.00000  Uiso   1.00
C277   C     0.73295   0.01295   0.21683   0.00000  Uiso   1.00
C278   C     0.70050   0.08723   0.25117   0.00000  Uiso   1.00
C279   C     0.70483   0.09767   0.31412   0.00000  Uiso   1.00
C280   C     0.67157   0.16995   0.33664   0.00000  Uiso   1.00
C281   C     0.62666   0.27621   0.39591   0.00000  Uiso   1.00
C282   C     0.63326   0.98903   0.17950   0.00000  Uiso   1.00
C283   C     0.58106   0.91690   0.18219   0.00000  Uiso   1.00
C284   C     0.49121   0.90651   0.14436   0.00000  Uiso   1.00
C285   C     0.34196   0.86029   0.09232   0.00000  Uiso   1.00
C286   C     0.81932   0.03783   0.17052   0.00000  Uiso   1.00
C287   C     0.92355   0.00672   0.16565   0.00000  Uiso   1.00
C288   C     0.99034   0.03741   0.12026   0.00000  Uiso   1.00
C289   C     0.12996   0.06696   0.05428   0.00000  Uiso   1.00
C290   C     0.66620   0.12276   0.14487   0.00000  Uiso   1.00
C291   C     0.66425   0.14688   0.21208   0.00000  Uiso   1.00
C292   C     0.63098   0.21916   0.23451   0.00000  Uiso   1.00
C293   C     0.63526   0.22971   0.29749   0.00000  Uiso   1.00
C294   C     0.59701   0.04867   0.14041   0.00000  Uiso   1.00
C295   C     0.50722   0.03839   0.10257   0.00000  Uiso   1.00
C296   C     0.45490   0.96627   0.10520   0.00000  Uiso   1.00
C297   C     0.78307   0.09748   0.13143   0.00000  Uiso   1.00
C298   C     0.84971   0.12822   0.08604   0.00000  Uiso   1.00
C299   C     0.95402   0.09717   0.08110   0.00000  Uiso   1.00
H300   H     0.76116   0.96651   0.24726   0.00000  Uiso   1.00
H301   H     0.73288   0.05149   0.34436   0.00000  Uiso   1.00
H302   H     0.60914   0.87075   0.21243   0.00000  Uiso   1.00
H303   H     0.95157   0.96056   0.19591   0.00000  Uiso   1.00
H304   H     0.68549   0.17201   0.43477   0.00000  Uiso   1.00
H305   H     0.42461   0.79089   0.15659   0.00000  Uiso   1.00
H306   H     0.14670   0.98028   0.12173   0.00000  Uiso   1.00
H307   H     0.63798   0.16920   0.11444   0.00000  Uiso   1.00
H308   H     0.60293   0.26531   0.20425   0.00000  Uiso   1.00
H309   H     0.47920   0.08456   0.07233   0.00000  Uiso   1.00
H310   H     0.82163   0.17438   0.05580   0.00000  Uiso   1.00
H311   H     0.58002   0.34555   0.32106   0.00000  Uiso   1.00
H312   H     0.31914   0.96443   0.04287   0.00000  Uiso   1.00
H313   H     0.04123   0.15382   0.00801   0.00000  Uiso   1.00
O314   O     0.61189   0.31834   0.43939   0.00000  Uiso   1.00
O315   O     0.26964   0.81832   0.07442   0.00000  Uiso   1.00
O316   O     0.21700   0.06680   0.02869   0.00000  Uiso   1.00
N317   N     0.66550   0.19967   0.39568   0.00000  Uiso   1.00
N318   N     0.42158   0.84335   0.13560   0.00000  Uiso   1.00
N319   N     0.09666   0.02040   0.10301   0.00000  Uiso   1.00
N320   N     0.60875   0.29305   0.33449   0.00000  Uiso   1.00
N321   N     0.36483   0.93673   0.07441   0.00000  Uiso   1.00
N322   N     0.03991   0.11378   0.04181   0.00000  Uiso   1.00
C323   C     0.23295   0.51295   0.21683   0.00000  Uiso   1.00
C324   C     0.20050   0.58723   0.25117   0.00000  Uiso   1.00
C325   C     0.20483   0.59767   0.31412   0.00000  Uiso   1.00
C326   C     0.17157   0.66995   0.33664   0.00000  Uiso   1.00
C327   C     0.12666   0.77621   0.39591   0.00000  Uiso   1.00
C328   C     0.13326   0.48903   0.17950   0.00000  Uiso   1.00
C329   C     0.08106   0.41690   0.18219   0.00000  Uiso   1.00
C330   C     0.99121   0.40651   0.14436   0.00000  Uiso   1.00
C331   C     0.84196   0.36029   0.09232   0.00000  Uiso   1.00
C332   C     0.31932   0.53783   0.17052   0.00000  Uiso   1.00
C333   C     0.42355   0.50672   0.16565   0.00000  Uiso   1.00
C334   C     0.49034   0.53741   0.12026   0.00000  Uiso   1.00
C335   C     0.62996   0.56696   0.05428   0.00000  Uiso   1.00
C336   C     0.16620   0.62276   0.14487   0.00000  Uiso   1.00
C337   C     0.16425   0.64688   0.21208   0.00000  Uiso   1.00
C338   C     0.13098   0.71916   0.23451   0.00000  Uiso   1.00
C339   C     0.13526   0.72971   0.29749   0.00000  Uiso   1.00
C340   C     0.09701   0.54867   0.14041   0.00000  Uiso   1.00
C341   C     0.00722   0.53839   0.10257   0.00000  Uiso   1.00
C342   C     0.95490   0.46627   0.10520   0.00000  Uiso   1.00
C343   C     0.28307   0.59748   0.13143   0.00000  Uiso   1.00
C344   C     0.34971   0.62822   0.08604   0.00000  Uiso   1.00
C345   C     0.45402   0.59717   0.08110   0.00000  Uiso   1.00
H346   H     0.26116   0.46651   0.24726   0.00000  Uiso   1.00
H347   H     0.23288   0.55149   0.34436   0.00000  Uiso   1.00
H348   H     0.10914   0.37075   0.21243   0.00000  Uiso   1.00
H349   H     0.45157   0.46056   0.19591   0.00000  Uiso   1.00
H350   H     0.18549   0.67201   0.43477   0.00000  Uiso   1.00
H351   H     0.92461   0.29089   0.15659   0.00000  Uiso   1.00
H352   H     0.64670   0.48028   0.12173   0.00000  Uiso   1.00
H353   H     0.13798   0.66920   0.11444   0.00000  Uiso   1.00
H354   H     0.10293   0.76531   0.20425   0.00000  Uiso   1.00
H355   H     0.97920   0.58456   0.07233   0.00000  Uiso   1.00
H356   H     0.32163   0.67438   0.05580   0.00000  Uiso   1.00
H357   H     0.08002   0.84555   0.32106   0.00000  Uiso   1.00
H358   H     0.81914   0.46443   0.04287   0.00000  Uiso   1.00
H359   H     0.54123   0.65382   0.00801   0.00000  Uiso   1.00
O360   O     0.11189   0.81834   0.43939   0.00000  Uiso   1.00
O361   O     0.76964   0.31832   0.07442   0.00000  Uiso   1.00
O362   O     0.71700   0.56680   0.02869   0.00000  Uiso   1.00
N363   N     0.16550   0.69967   0.39568   0.00000  Uiso   1.00
N364   N     0.92158   0.34335   0.13560   0.00000  Uiso   1.00
N365   N     0.59666   0.52040   0.10301   0.00000  Uiso   1.00
N366   N     0.10875   0.79305   0.33449   0.00000  Uiso   1.00
N367   N     0.86483   0.43673   0.07441   0.00000  Uiso   1.00
N368   N     0.53991   0.61378   0.04181   0.00000  Uiso   1.00
