data_job_07074
_audit_creation_date              2018-12-19
_audit_creation_method            'Materials Studio'
_symmetry_space_group_name_H-M    'P1'
_symmetry_Int_Tables_number       1
_symmetry_cell_setting            triclinic
loop_
_symmetry_equiv_pos_as_xyz
  x,y,z
_cell_length_a                    22.0064
_cell_length_b                    20.2520
_cell_length_c                    21.9738
_cell_angle_alpha                 77.3917
_cell_angle_beta                  73.5141
_cell_angle_gamma                 71.9044
loop_
_atom_site_label
_atom_site_type_symbol
_atom_site_fract_x
_atom_site_fract_y
_atom_site_fract_z
_atom_site_U_iso_or_equiv
_atom_site_adp_type
_atom_site_occupancy
C1     C     0.90524   0.38363   0.18275   0.00000  Uiso   1.00
C2     C     0.84768   0.44664   0.20107   0.00000  Uiso   1.00
C3     C     0.78533   0.44378   0.23710   0.00000  Uiso   1.00
C4     C     0.73948   0.50729   0.24865   0.00000  Uiso   1.00
C5     C     0.64766   0.59538   0.28067   0.00000  Uiso   1.00
C6     C     0.92702   0.39563   0.10979   0.00000  Uiso   1.00
C7     C     0.93138   0.34988   0.06907   0.00000  Uiso   1.00
C8     C     0.95234   0.37045   0.00378   0.00000  Uiso   1.00
C9     C     0.98375   0.37933   0.89408   0.00000  Uiso   1.00
C10    C     0.96121   0.38941   0.20754   0.00000  Uiso   1.00
C11    C     0.99433   0.33842   0.24899   0.00000  Uiso   1.00
C12    C     0.04408   0.35375   0.26598   0.00000  Uiso   1.00
C13    C     0.12856   0.35297   0.30805   0.00000  Uiso   1.00
C14    C     0.93471   0.50151   0.13919   0.00000  Uiso   1.00
C15    C     0.86369   0.51066   0.17741   0.00000  Uiso   1.00
C16    C     0.81793   0.57420   0.18891   0.00000  Uiso   1.00
C17    C     0.75552   0.57143   0.22495   0.00000  Uiso   1.00
C18    C     0.94303   0.45966   0.08613   0.00000  Uiso   1.00
C19    C     0.96399   0.48030   0.02088   0.00000  Uiso   1.00
C20    C     0.96837   0.43459   0.98007   0.00000  Uiso   1.00
C21    C     0.97721   0.45344   0.18388   0.00000  Uiso   1.00
C22    C     0.02693   0.46884   0.20080   0.00000  Uiso   1.00
C23    C     0.06011   0.41789   0.24227   0.00000  Uiso   1.00
H24    H     0.89278   0.33379   0.20117   0.00000  Uiso   1.00
H25    H     0.77296   0.39422   0.25540   0.00000  Uiso   1.00
H26    H     0.91900   0.30033   0.08740   0.00000  Uiso   1.00
H27    H     0.98193   0.28888   0.26729   0.00000  Uiso   1.00
H28    H     0.64716   0.48946   0.30507   0.00000  Uiso   1.00
H29    H     0.95512   0.29148   0.95083   0.00000  Uiso   1.00
H30    H     0.08782   0.26733   0.33017   0.00000  Uiso   1.00
H31    H     0.94717   0.55136   0.12076   0.00000  Uiso   1.00
H32    H     0.83033   0.62374   0.17059   0.00000  Uiso   1.00
H33    H     0.97637   0.52985   0.00258   0.00000  Uiso   1.00
H34    H     0.03930   0.51839   0.18248   0.00000  Uiso   1.00
H35    H     0.69373   0.67574   0.23623   0.00000  Uiso   1.00
H36    H     0.00169   0.47776   0.88199   0.00000  Uiso   1.00
H37    H     0.13439   0.45361   0.26133   0.00000  Uiso   1.00
O38    O     0.59260   0.62628   0.30486   0.00000  Uiso   1.00
O39    O     0.99664   0.36654   0.84011   0.00000  Uiso   1.00
O40    O     0.17073   0.33485   0.33780   0.00000  Uiso   1.00
N41    N     0.67416   0.52337   0.28204   0.00000  Uiso   1.00
N42    N     0.96207   0.33828   0.95085   0.00000  Uiso   1.00
N43    N     0.08615   0.31569   0.30549   0.00000  Uiso   1.00
N44    N     0.69922   0.62360   0.24500   0.00000  Uiso   1.00
N45    N     0.98713   0.43852   0.91381   0.00000  Uiso   1.00
N46    N     0.11121   0.41592   0.26844   0.00000  Uiso   1.00
C47    C     0.13399   0.69974   0.41399   0.00000  Uiso   1.00
C48    C     0.19368   0.68359   0.44224   0.00000  Uiso   1.00
C49    C     0.23300   0.61717   0.45833   0.00000  Uiso   1.00
C50    C     0.28529   0.61348   0.48355   0.00000  Uiso   1.00
C51    C     0.37607   0.57918   0.52611   0.00000  Uiso   1.00
C52    C     0.07673   0.74288   0.45928   0.00000  Uiso   1.00
C53    C     0.01771   0.72632   0.48969   0.00000  Uiso   1.00
C54    C     0.97155   0.77255   0.52926   0.00000  Uiso   1.00
C55    C     0.88074   0.83033   0.59824   0.00000  Uiso   1.00
C56    C     0.14727   0.74919   0.35155   0.00000  Uiso   1.00
C57    C     0.14754   0.73795   0.29138   0.00000  Uiso   1.00
C58    C     0.16074   0.78950   0.24025   0.00000  Uiso   1.00
C59    C     0.17945   0.85708   0.14197   0.00000  Uiso   1.00
C60    C     0.15694   0.81129   0.43018   0.00000  Uiso   1.00
C61    C     0.20615   0.74418   0.45103   0.00000  Uiso   1.00
C62    C     0.25840   0.74059   0.47624   0.00000  Uiso   1.00
C63    C     0.29778   0.67418   0.49236   0.00000  Uiso   1.00
C64    C     0.08920   0.80347   0.46808   0.00000  Uiso   1.00
C65    C     0.04311   0.84974   0.50761   0.00000  Uiso   1.00
C66    C     0.98404   0.83325   0.53807   0.00000  Uiso   1.00
C67    C     0.15974   0.80979   0.36034   0.00000  Uiso   1.00
C68    C     0.17294   0.86137   0.30930   0.00000  Uiso   1.00
C69    C     0.17323   0.85020   0.24906   0.00000  Uiso   1.00
H70    H     0.12427   0.65257   0.40714   0.00000  Uiso   1.00
H71    H     0.22333   0.57029   0.45152   0.00000  Uiso   1.00
H72    H     0.00808   0.67943   0.48287   0.00000  Uiso   1.00
H73    H     0.13788   0.69105   0.28460   0.00000  Uiso   1.00
H74    H     0.33863   0.50579   0.50461   0.00000  Uiso   1.00
H75    H     0.88476   0.73592   0.57071   0.00000  Uiso   1.00
H76    H     0.15848   0.76044   0.15261   0.00000  Uiso   1.00
H77    H     0.16665   0.85847   0.43703   0.00000  Uiso   1.00
H78    H     0.26803   0.78749   0.48304   0.00000  Uiso   1.00
H79    H     0.05278   0.89663   0.51440   0.00000  Uiso   1.00
H80    H     0.18259   0.90825   0.31612   0.00000  Uiso   1.00
H81    H     0.37491   0.68208   0.53020   0.00000  Uiso   1.00
H82    H     0.92103   0.91221   0.59630   0.00000  Uiso   1.00
H83    H     0.19476   0.93673   0.17819   0.00000  Uiso   1.00
O84    O     0.42269   0.54353   0.54716   0.00000  Uiso   1.00
O85    O     0.82721   0.84546   0.63386   0.00000  Uiso   1.00
O86    O     0.18633   0.87762   0.08532   0.00000  Uiso   1.00
N87    N     0.33327   0.55702   0.50431   0.00000  Uiso   1.00
N88    N     0.90892   0.77218   0.56612   0.00000  Uiso   1.00
N89    N     0.16481   0.79511   0.17522   0.00000  Uiso   1.00
N90    N     0.35279   0.65188   0.51808   0.00000  Uiso   1.00
N91    N     0.92844   0.86704   0.57988   0.00000  Uiso   1.00
N92    N     0.18433   0.88997   0.18899   0.00000  Uiso   1.00
C93    C     0.61246   0.07683   0.69798   0.00000  Uiso   1.00
C94    C     0.64941   0.13317   0.68201   0.00000  Uiso   1.00
C95    C     0.67719   0.16153   0.62083   0.00000  Uiso   1.00
C96    C     0.70892   0.21251   0.61634   0.00000  Uiso   1.00
C97    C     0.76574   0.29665   0.58322   0.00000  Uiso   1.00
C98    C     0.64773   0.01703   0.74175   0.00000  Uiso   1.00
C99    C     0.67409   0.94774   0.73080   0.00000  Uiso   1.00
C100   C     0.70439   0.90096   0.77661   0.00000  Uiso   1.00
C101   C     0.75856   0.80477   0.83625   0.00000  Uiso   1.00
C102   C     0.54502   0.10778   0.73928   0.00000  Uiso   1.00
C103   C     0.48502   0.11478   0.72625   0.00000  Uiso   1.00
C104   C     0.42885   0.14439   0.76998   0.00000  Uiso   1.00
C105   C     0.32354   0.18911   0.82578   0.00000  Uiso   1.00
C106   C     0.61940   0.11695   0.79882   0.00000  Uiso   1.00
C107   C     0.65318   0.15496   0.73679   0.00000  Uiso   1.00
C108   C     0.68487   0.20591   0.73239   0.00000  Uiso   1.00
C109   C     0.71269   0.23434   0.67121   0.00000  Uiso   1.00
C110   C     0.65149   0.03881   0.79652   0.00000  Uiso   1.00
C111   C     0.68176   0.99212   0.84236   0.00000  Uiso   1.00
C112   C     0.70817   0.92278   0.83148   0.00000  Uiso   1.00
C113   C     0.54878   0.12957   0.79405   0.00000  Uiso   1.00
C114   C     0.49270   0.15917   0.83781   0.00000  Uiso   1.00
C115   C     0.43262   0.16621   0.82485   0.00000  Uiso   1.00
H116   H     0.60953   0.05987   0.65534   0.00000  Uiso   1.00
H117   H     0.67427   0.14465   0.57845   0.00000  Uiso   1.00
H118   H     0.67116   0.93089   0.68841   0.00000  Uiso   1.00
H119   H     0.48212   0.09791   0.68386   0.00000  Uiso   1.00
H120   H     0.74773   0.24824   0.51736   0.00000  Uiso   1.00
H121   H     0.74114   0.79752   0.74923   0.00000  Uiso   1.00
H122   H     0.34252   0.14971   0.73963   0.00000  Uiso   1.00
H123   H     0.62234   0.13391   0.84146   0.00000  Uiso   1.00
H124   H     0.68778   0.22276   0.77478   0.00000  Uiso   1.00
H125   H     0.68467   0.00900   0.88474   0.00000  Uiso   1.00
H126   H     0.49563   0.17602   0.88019   0.00000  Uiso   1.00
H127   H     0.75870   0.31163   0.67671   0.00000  Uiso   1.00
H128   H     0.75211   0.86091   0.90858   0.00000  Uiso   1.00
H129   H     0.35349   0.21310   0.89898   0.00000  Uiso   1.00
O130   O     0.79605   0.33703   0.54982   0.00000  Uiso   1.00
O131   O     0.78740   0.74570   0.85402   0.00000  Uiso   1.00
O132   O     0.26442   0.20777   0.84142   0.00000  Uiso   1.00
N133   N     0.74132   0.25098   0.56401   0.00000  Uiso   1.00
N134   N     0.73517   0.82958   0.78079   0.00000  Uiso   1.00
N135   N     0.36249   0.15883   0.77183   0.00000  Uiso   1.00
N136   N     0.74722   0.28509   0.64976   0.00000  Uiso   1.00
N137   N     0.74107   0.86369   0.86653   0.00000  Uiso   1.00
N138   N     0.36839   0.19294   0.85757   0.00000  Uiso   1.00
C139   C     0.30952   0.68836   0.77937   0.00000  Uiso   1.00
C140   C     0.26841   0.73511   0.83035   0.00000  Uiso   1.00
C141   C     0.20384   0.77485   0.83407   0.00000  Uiso   1.00
C142   C     0.17486   0.81411   0.88433   0.00000  Uiso   1.00
C143   C     0.10578   0.88675   0.95668   0.00000  Uiso   1.00
C144   C     0.33246   0.61534   0.81559   0.00000  Uiso   1.00
C145   C     0.32174   0.55437   0.80689   0.00000  Uiso   1.00
C146   C     0.34668   0.49282   0.84472   0.00000  Uiso   1.00
C147   C     0.37707   0.37950   0.89411   0.00000  Uiso   1.00
C148   C     0.37110   0.71399   0.74881   0.00000  Uiso   1.00
C149   C     0.39289   0.73596   0.68397   0.00000  Uiso   1.00
C150   C     0.45037   0.75744   0.66558   0.00000  Uiso   1.00
C151   C     0.54077   0.79730   0.61130   0.00000  Uiso   1.00
C152   C     0.37287   0.68744   0.86201   0.00000  Uiso   1.00
C153   C     0.30282   0.73461   0.87524   0.00000  Uiso   1.00
C154   C     0.27393   0.77383   0.92551   0.00000  Uiso   1.00
C155   C     0.20933   0.81362   0.92930   0.00000  Uiso   1.00
C156   C     0.36686   0.61484   0.86047   0.00000  Uiso   1.00
C157   C     0.39183   0.55336   0.89832   0.00000  Uiso   1.00
C158   C     0.38115   0.49232   0.88969   0.00000  Uiso   1.00
C159   C     0.40551   0.71350   0.79370   0.00000  Uiso   1.00
C160   C     0.46297   0.73494   0.77541   0.00000  Uiso   1.00
C161   C     0.48484   0.75694   0.71055   0.00000  Uiso   1.00
H162   H     0.28273   0.68874   0.74442   0.00000  Uiso   1.00
H163   H     0.17723   0.77521   0.79933   0.00000  Uiso   1.00
H164   H     0.29512   0.55478   0.77214   0.00000  Uiso   1.00
H165   H     0.36625   0.73634   0.64925   0.00000  Uiso   1.00
H166   H     0.07542   0.87084   0.88001   0.00000  Uiso   1.00
H167   H     0.32401   0.40603   0.82267   0.00000  Uiso   1.00
H168   H     0.47402   0.78888   0.56352   0.00000  Uiso   1.00
H169   H     0.39966   0.68705   0.89696   0.00000  Uiso   1.00
H170   H     0.30057   0.77343   0.96024   0.00000  Uiso   1.00
H171   H     0.41846   0.55299   0.93305   0.00000  Uiso   1.00
H172   H     0.48959   0.73455   0.81016   0.00000  Uiso   1.00
H173   H     0.17553   0.86939   0.01061   0.00000  Uiso   1.00
H174   H     0.42412   0.40458   0.95327   0.00000  Uiso   1.00
H175   H     0.57412   0.78744   0.69412   0.00000  Uiso   1.00
O176   O     0.05817   0.92695   0.98419   0.00000  Uiso   1.00
O177   O     0.38432   0.31714   0.90896   0.00000  Uiso   1.00
O178   O     0.58112   0.81944   0.56896   0.00000  Uiso   1.00
N179   N     0.11259   0.85865   0.90205   0.00000  Uiso   1.00
N180   N     0.34499   0.42409   0.84845   0.00000  Uiso   1.00
N181   N     0.48524   0.78201   0.60617   0.00000  Uiso   1.00
N182   N     0.16645   0.85788   0.97233   0.00000  Uiso   1.00
N183   N     0.39886   0.42331   0.91873   0.00000  Uiso   1.00
N184   N     0.53911   0.78123   0.67644   0.00000  Uiso   1.00
C185   C     0.58665   0.81449   0.29796   0.00000  Uiso   1.00
C186   C     0.61873   0.84860   0.23275   0.00000  Uiso   1.00
C187   C     0.64936   0.81572   0.17860   0.00000  Uiso   1.00
C188   C     0.67567   0.85598   0.12357   0.00000  Uiso   1.00
C189   C     0.72608   0.89821   0.02242   0.00000  Uiso   1.00
C190   C     0.51587   0.85934   0.31413   0.00000  Uiso   1.00
C191   C     0.46003   0.83548   0.32841   0.00000  Uiso   1.00
C192   C     0.39975   0.88478   0.34190   0.00000  Uiso   1.00
C193   C     0.29048   0.94367   0.36715   0.00000  Uiso   1.00
C194   C     0.62004   0.82461   0.34602   0.00000  Uiso   1.00
C195   C     0.65176   0.77156   0.38712   0.00000  Uiso   1.00
C196   C     0.67917   0.79162   0.42747   0.00000  Uiso   1.00
C197   C     0.73163   0.79660   0.50222   0.00000  Uiso   1.00
C198   C     0.57889   0.94448   0.29653   0.00000  Uiso   1.00
C199   C     0.61451   0.91921   0.23198   0.00000  Uiso   1.00
C200   C     0.64078   0.95953   0.17701   0.00000  Uiso   1.00
C201   C     0.67145   0.92671   0.12279   0.00000  Uiso   1.00
C202   C     0.51165   0.92994   0.31336   0.00000  Uiso   1.00
C203   C     0.45144   0.97929   0.32683   0.00000  Uiso   1.00
C204   C     0.39552   0.95551   0.34112   0.00000  Uiso   1.00
C205   C     0.61582   0.89522   0.34524   0.00000  Uiso   1.00
C206   C     0.64318   0.91537   0.38554   0.00000  Uiso   1.00
C207   C     0.67494   0.86235   0.42669   0.00000  Uiso   1.00
H208   H     0.58993   0.75953   0.29857   0.00000  Uiso   1.00
H209   H     0.65261   0.76108   0.17921   0.00000  Uiso   1.00
H210   H     0.46331   0.78084   0.32901   0.00000  Uiso   1.00
H211   H     0.65501   0.71693   0.38771   0.00000  Uiso   1.00
H212   H     0.72022   0.79394   0.04654   0.00000  Uiso   1.00
H213   H     0.32106   0.83559   0.36242   0.00000  Uiso   1.00
H214   H     0.72531   0.70083   0.48620   0.00000  Uiso   1.00
H215   H     0.57561   0.99945   0.29593   0.00000  Uiso   1.00
H216   H     0.63751   0.01417   0.17643   0.00000  Uiso   1.00
H217   H     0.44820   0.03392   0.32623   0.00000  Uiso   1.00
H218   H     0.63991   0.97001   0.38492   0.00000  Uiso   1.00
H219   H     0.70796   0.99936   0.04428   0.00000  Uiso   1.00
H220   H     0.30880   0.04101   0.36017   0.00000  Uiso   1.00
H221   H     0.71305   0.90624   0.48394   0.00000  Uiso   1.00
O222   O     0.75505   0.90201   0.96684   0.00000  Uiso   1.00
O223   O     0.23137   0.95665   0.38128   0.00000  Uiso   1.00
O224   O     0.76174   0.77984   0.54367   0.00000  Uiso   1.00
N225   N     0.70885   0.84026   0.06241   0.00000  Uiso   1.00
N226   N     0.33566   0.87921   0.35773   0.00000  Uiso   1.00
N227   N     0.71359   0.75321   0.47347   0.00000  Uiso   1.00
N228   N     0.70226   0.95079   0.06119   0.00000  Uiso   1.00
N229   N     0.32907   0.98974   0.35652   0.00000  Uiso   1.00
N230   N     0.70699   0.86374   0.47225   0.00000  Uiso   1.00
C231   C     0.04083   0.28347   0.54269   0.00000  Uiso   1.00
C232   C     0.06152   0.20463   0.56455   0.00000  Uiso   1.00
C233   C     0.06547   0.15261   0.53054   0.00000  Uiso   1.00
C234   C     0.08542   0.08355   0.55877   0.00000  Uiso   1.00
C235   C     0.11523   0.96362   0.58356   0.00000  Uiso   1.00
C236   C     0.09727   0.31151   0.54372   0.00000  Uiso   1.00
C237   C     0.13127   0.34937   0.49220   0.00000  Uiso   1.00
C238   C     0.18131   0.37031   0.50289   0.00000  Uiso   1.00
C239   C     0.26659   0.41636   0.49536   0.00000  Uiso   1.00
C240   C     0.98318   0.31363   0.59559   0.00000  Uiso   1.00
C241   C     0.92125   0.35328   0.58767   0.00000  Uiso   1.00
C242   C     0.87524   0.37600   0.64203   0.00000  Uiso   1.00
C243   C     0.78337   0.42533   0.71502   0.00000  Uiso   1.00
C244   C     0.06924   0.25334   0.65329   0.00000  Uiso   1.00
C245   C     0.07695   0.18826   0.62463   0.00000  Uiso   1.00
C246   C     0.09690   0.11927   0.65291   0.00000  Uiso   1.00
C247   C     0.10087   0.06715   0.61895   0.00000  Uiso   1.00
C248   C     0.11270   0.29515   0.60380   0.00000  Uiso   1.00
C249   C     0.16270   0.31603   0.61457   0.00000  Uiso   1.00
C250   C     0.19677   0.35391   0.56308   0.00000  Uiso   1.00
C251   C     0.99861   0.29726   0.65566   0.00000  Uiso   1.00
C252   C     0.95268   0.31993   0.71004   0.00000  Uiso   1.00
C253   C     0.89070   0.35960   0.70221   0.00000  Uiso   1.00
H254   H     0.02883   0.29622   0.49592   0.00000  Uiso   1.00
H255   H     0.05353   0.16530   0.48405   0.00000  Uiso   1.00
H256   H     0.11932   0.36204   0.44572   0.00000  Uiso   1.00
H257   H     0.90933   0.36593   0.54117   0.00000  Uiso   1.00
H258   H     0.08775   0.01293   0.49737   0.00000  Uiso   1.00
H259   H     0.22645   0.42779   0.41655   0.00000  Uiso   1.00
H260   H     0.78366   0.43601   0.61784   0.00000  Uiso   1.00
H261   H     0.08125   0.24060   0.70007   0.00000  Uiso   1.00
H262   H     0.10883   0.10662   0.69940   0.00000  Uiso   1.00
H263   H     0.17462   0.30336   0.66107   0.00000  Uiso   1.00
H264   H     0.96464   0.30725   0.75652   0.00000  Uiso   1.00
H265   H     0.13264   0.96530   0.67216   0.00000  Uiso   1.00
H266   H     0.27134   0.38016   0.59134   0.00000  Uiso   1.00
H267   H     0.82854   0.38838   0.79263   0.00000  Uiso   1.00
O268   O     0.12741   0.90198   0.58064   0.00000  Uiso   1.00
O269   O     0.30937   0.44627   0.47460   0.00000  Uiso   1.00
O270   O     0.72844   0.45705   0.73869   0.00000  Uiso   1.00
N271   N     0.09452   0.02010   0.53861   0.00000  Uiso   1.00
N272   N     0.22420   0.40797   0.46304   0.00000  Uiso   1.00
N273   N     0.81023   0.41566   0.65122   0.00000  Uiso   1.00
N274   N     0.11867   0.99448   0.63266   0.00000  Uiso   1.00
N275   N     0.24835   0.38234   0.55709   0.00000  Uiso   1.00
N276   N     0.83438   0.39004   0.74528   0.00000  Uiso   1.00
C277   C     0.19438   0.51733   0.73141   0.00000  Uiso   1.00
C278   C     0.25395   0.46046   0.70396   0.00000  Uiso   1.00
C279   C     0.31376   0.47085   0.66709   0.00000  Uiso   1.00
C280   C     0.36209   0.41206   0.64657   0.00000  Uiso   1.00
C281   C     0.45630   0.33390   0.60157   0.00000  Uiso   1.00
C282   C     0.17742   0.49394   0.80359   0.00000  Uiso   1.00
C283   C     0.17289   0.53250   0.85049   0.00000  Uiso   1.00
C284   C     0.15679   0.50190   0.91385   0.00000  Uiso   1.00
C285   C     0.13214   0.47575   0.02353   0.00000  Uiso   1.00
C286   C     0.13769   0.51336   0.70665   0.00000  Uiso   1.00
C287   C     0.09974   0.56825   0.67204   0.00000  Uiso   1.00
C288   C     0.05018   0.55400   0.65379   0.00000  Uiso   1.00
C289   C     0.96384   0.55800   0.61295   0.00000  Uiso   1.00
C290   C     0.17384   0.39443   0.76055   0.00000  Uiso   1.00
C291   C     0.24279   0.39370   0.71979   0.00000  Uiso   1.00
C292   C     0.29104   0.33488   0.69932   0.00000  Uiso   1.00
C293   C     0.35092   0.34518   0.66243   0.00000  Uiso   1.00
C294   C     0.16626   0.42719   0.81942   0.00000  Uiso   1.00
C295   C     0.15016   0.39653   0.88273   0.00000  Uiso   1.00
C296   C     0.14561   0.43503   0.92971   0.00000  Uiso   1.00
C297   C     0.12653   0.44661   0.72247   0.00000  Uiso   1.00
C298   C     0.07702   0.43227   0.70428   0.00000  Uiso   1.00
C299   C     0.03900   0.48712   0.66965   0.00000  Uiso   1.00
H300   H     0.20306   0.56930   0.71909   0.00000  Uiso   1.00
H301   H     0.32238   0.52252   0.65485   0.00000  Uiso   1.00
H302   H     0.18151   0.58416   0.83823   0.00000  Uiso   1.00
H303   H     0.10838   0.61989   0.65980   0.00000  Uiso   1.00
H304   H     0.44975   0.44121   0.59063   0.00000  Uiso   1.00
H305   H     0.15272   0.57120   0.97729   0.00000  Uiso   1.00
H306   H     0.99850   0.64656   0.60105   0.00000  Uiso   1.00
H307   H     0.16515   0.34246   0.77287   0.00000  Uiso   1.00
H308   H     0.28239   0.28323   0.71158   0.00000  Uiso   1.00
H309   H     0.14153   0.34487   0.89496   0.00000  Uiso   1.00
H310   H     0.06840   0.38061   0.71653   0.00000  Uiso   1.00
H311   H     0.41730   0.24699   0.63668   0.00000  Uiso   1.00
H312   H     0.12026   0.37698   0.02334   0.00000  Uiso   1.00
H313   H     0.96605   0.45234   0.64709   0.00000  Uiso   1.00
O314   O     0.51134   0.30923   0.57239   0.00000  Uiso   1.00
O315   O     0.12163   0.47977   0.07966   0.00000  Uiso   1.00
O316   O     0.91931   0.57864   0.58604   0.00000  Uiso   1.00
N317   N     0.42602   0.40363   0.60987   0.00000  Uiso   1.00
N318   N     0.14832   0.52516   0.97137   0.00000  Uiso   1.00
N319   N     0.00413   0.59562   0.61963   0.00000  Uiso   1.00
N320   N     0.40856   0.29913   0.63465   0.00000  Uiso   1.00
N321   N     0.13086   0.42065   0.99615   0.00000  Uiso   1.00
N322   N     0.98667   0.49111   0.64441   0.00000  Uiso   1.00
C323   C     0.90130   0.18456   0.45210   0.00000  Uiso   1.00
C324   C     0.83857   0.21842   0.42797   0.00000  Uiso   1.00
C325   C     0.80878   0.28989   0.41809   0.00000  Uiso   1.00
C326   C     0.75168   0.31033   0.39582   0.00000  Uiso   1.00
C327   C     0.65830   0.37041   0.36014   0.00000  Uiso   1.00
C328   C     0.94862   0.14010   0.40157   0.00000  Uiso   1.00
C329   C     0.01137   0.14572   0.36951   0.00000  Uiso   1.00
C330   C     0.04691   0.10023   0.32502   0.00000  Uiso   1.00
C331   C     0.12440   0.03869   0.24840   0.00000  Uiso   1.00
C332   C     0.88351   0.13295   0.51167   0.00000  Uiso   1.00
C333   C     0.89152   0.13253   0.57217   0.00000  Uiso   1.00
C334   C     0.87225   0.08100   0.62037   0.00000  Uiso   1.00
C335   C     0.84865   0.00835   0.71468   0.00000  Uiso   1.00
C336   C     0.85286   0.09378   0.43010   0.00000  Uiso   1.00
C337   C     0.81227   0.16911   0.41602   0.00000  Uiso   1.00
C338   C     0.75519   0.18945   0.39375   0.00000  Uiso   1.00
C339   C     0.72532   0.26094   0.38385   0.00000  Uiso   1.00
C340   C     0.92232   0.09080   0.38962   0.00000  Uiso   1.00
C341   C     0.95777   0.04529   0.34517   0.00000  Uiso   1.00
C342   C     0.02055   0.05083   0.31305   0.00000  Uiso   1.00
C343   C     0.85720   0.08364   0.49972   0.00000  Uiso   1.00
C344   C     0.83792   0.03210   0.54783   0.00000  Uiso   1.00
C345   C     0.84590   0.03161   0.60840   0.00000  Uiso   1.00
H346   H     0.92179   0.22294   0.46140   0.00000  Uiso   1.00
H347   H     0.82916   0.32803   0.42734   0.00000  Uiso   1.00
H348   H     0.03172   0.18388   0.37878   0.00000  Uiso   1.00
H349   H     0.91188   0.17069   0.58140   0.00000  Uiso   1.00
H350   H     0.71488   0.42279   0.38429   0.00000  Uiso   1.00
H351   H     0.14198   0.11882   0.28190   0.00000  Uiso   1.00
H352   H     0.88930   0.09102   0.70918   0.00000  Uiso   1.00
H353   H     0.83238   0.05539   0.42079   0.00000  Uiso   1.00
H354   H     0.73484   0.15128   0.38451   0.00000  Uiso   1.00
H355   H     0.93740   0.00713   0.33594   0.00000  Uiso   1.00
H356   H     0.81757   0.99395   0.53857   0.00000  Uiso   1.00
H357   H     0.63833   0.27934   0.34953   0.00000  Uiso   1.00
H358   H     0.06543   0.97537   0.24714   0.00000  Uiso   1.00
H359   H     0.81275   0.94757   0.67441   0.00000  Uiso   1.00
O360   O     0.61407   0.41717   0.34375   0.00000  Uiso   1.00
O361   O     0.17441   0.01837   0.20943   0.00000  Uiso   1.00
O362   O     0.84289   0.98190   0.77001   0.00000  Uiso   1.00
N363   N     0.71024   0.37587   0.38110   0.00000  Uiso   1.00
N364   N     0.10955   0.09169   0.28537   0.00000  Uiso   1.00
N365   N     0.87333   0.06568   0.68483   0.00000  Uiso   1.00
N366   N     0.66905   0.29868   0.36239   0.00000  Uiso   1.00
N367   N     0.06836   0.01450   0.26666   0.00000  Uiso   1.00
N368   N     0.83214   0.98849   0.66612   0.00000  Uiso   1.00
C369   C     0.51162   0.75344   0.13585   0.00000  Uiso   1.00
C370   C     0.45397   0.73513   0.12437   0.00000  Uiso   1.00
C371   C     0.40846   0.70577   0.17093   0.00000  Uiso   1.00
C372   C     0.35936   0.69299   0.15073   0.00000  Uiso   1.00
C373   C     0.27034   0.66215   0.14272   0.00000  Uiso   1.00
C374   C     0.50356   0.83121   0.11019   0.00000  Uiso   1.00
C375   C     0.49976   0.88263   0.14482   0.00000  Uiso   1.00
C376   C     0.49241   0.95072   0.11268   0.00000  Uiso   1.00
C377   C     0.48043   0.06904   0.08263   0.00000  Uiso   1.00
C378   C     0.57303   0.71421   0.09167   0.00000  Uiso   1.00
C379   C     0.62765   0.66726   0.11073   0.00000  Uiso   1.00
C380   C     0.67881   0.63686   0.06299   0.00000  Uiso   1.00
C381   C     0.77470   0.57351   0.00420   0.00000  Uiso   1.00
C382   C     0.50535   0.78294   0.01719   0.00000  Uiso   1.00
C383   C     0.45057   0.75116   0.05992   0.00000  Uiso   1.00
C384   C     0.40152   0.73841   0.03964   0.00000  Uiso   1.00
C385   C     0.35595   0.70904   0.08616   0.00000  Uiso   1.00
C386   C     0.50015   0.84724   0.04574   0.00000  Uiso   1.00
C387   C     0.49282   0.91527   0.01353   0.00000  Uiso   1.00
C388   C     0.48900   0.96678   0.04811   0.00000  Uiso   1.00
C389   C     0.56963   0.73023   0.02722   0.00000  Uiso   1.00
C390   C     0.62071   0.69990   0.97945   0.00000  Uiso   1.00
C391   C     0.67540   0.65291   0.99843   0.00000  Uiso   1.00
H392   H     0.51427   0.74097   0.18603   0.00000  Uiso   1.00
H393   H     0.41111   0.69339   0.22080   0.00000  Uiso   1.00
H394   H     0.50240   0.87021   0.19469   0.00000  Uiso   1.00
H395   H     0.63027   0.65488   0.16061   0.00000  Uiso   1.00
H396   H     0.29522   0.64772   0.23094   0.00000  Uiso   1.00
H397   H     0.48773   0.02056   0.17588   0.00000  Uiso   1.00
H398   H     0.75738   0.56648   0.10401   0.00000  Uiso   1.00
H399   H     0.50270   0.79542   0.96701   0.00000  Uiso   1.00
H400   H     0.39890   0.75082   0.98976   0.00000  Uiso   1.00
H401   H     0.49019   0.92764   0.96366   0.00000  Uiso   1.00
H402   H     0.61806   0.71231   0.92957   0.00000  Uiso   1.00
H403   H     0.28531   0.69434   0.04342   0.00000  Uiso   1.00
H404   H     0.47782   0.06718   0.98836   0.00000  Uiso   1.00
H405   H     0.74747   0.61310   0.91649   0.00000  Uiso   1.00
O406   O     0.22218   0.64073   0.15610   0.00000  Uiso   1.00
O407   O     0.47476   0.12988   0.08387   0.00000  Uiso   1.00
O408   O     0.82852   0.53414   0.98958   0.00000  Uiso   1.00
N409   N     0.30714   0.66480   0.18368   0.00000  Uiso   1.00
N410   N     0.48711   0.01339   0.13221   0.00000  Uiso   1.00
N411   N     0.73922   0.58887   0.06501   0.00000  Uiso   1.00
N412   N     0.30181   0.68988   0.08278   0.00000  Uiso   1.00
N413   N     0.48178   0.03847   0.03131   0.00000  Uiso   1.00
N414   N     0.73389   0.61396   0.96411   0.00000  Uiso   1.00
C415   C     0.79327   0.19617   0.02963   0.00000  Uiso   1.00
C416   C     0.82455   0.13987   0.98561   0.00000  Uiso   1.00
C417   C     0.88533   0.09139   0.98386   0.00000  Uiso   1.00
C418   C     0.90521   0.04422   0.94018   0.00000  Uiso   1.00
C419   C     0.95981   0.95663   0.87796   0.00000  Uiso   1.00
C420   C     0.77882   0.26592   0.98578   0.00000  Uiso   1.00
C421   C     0.80114   0.32342   0.98420   0.00000  Uiso   1.00
C422   C     0.78251   0.38236   0.94067   0.00000  Uiso   1.00
C423   C     0.76607   0.49047   0.87876   0.00000  Uiso   1.00
C424   C     0.72657   0.18439   0.06645   0.00000  Uiso   1.00
C425   C     0.70494   0.17336   0.13269   0.00000  Uiso   1.00
C426   C     0.64232   0.16367   0.15708   0.00000  Uiso   1.00
C427   C     0.54476   0.14521   0.22042   0.00000  Uiso   1.00
C428   C     0.72050   0.19861   0.95515   0.00000  Uiso   1.00
C429   C     0.78503   0.14120   0.94515   0.00000  Uiso   1.00
C430   C     0.80482   0.09409   0.90147   0.00000  Uiso   1.00
C431   C     0.86561   0.04554   0.89966   0.00000  Uiso   1.00
C432   C     0.73930   0.26725   0.94533   0.00000  Uiso   1.00
C433   C     0.72063   0.32612   0.90180   0.00000  Uiso   1.00
C434   C     0.74291   0.38369   0.90015   0.00000  Uiso   1.00
C435   C     0.68704   0.18572   0.02600   0.00000  Uiso   1.00
C436   C     0.62444   0.17605   0.05030   0.00000  Uiso   1.00
C437   C     0.60272   0.16500   0.11656   0.00000  Uiso   1.00
H438   H     0.82404   0.19514   0.06112   0.00000  Uiso   1.00
H439   H     0.91591   0.09038   0.01517   0.00000  Uiso   1.00
H440   H     0.83172   0.32238   0.01551   0.00000  Uiso   1.00
H441   H     0.73554   0.17234   0.16398   0.00000  Uiso   1.00
H442   H     0.00033   0.97484   0.94637   0.00000  Uiso   1.00
H443   H     0.82280   0.46402   0.94711   0.00000  Uiso   1.00
H444   H     0.62000   0.14763   0.26019   0.00000  Uiso   1.00
H445   H     0.68973   0.19964   0.92366   0.00000  Uiso   1.00
H446   H     0.77422   0.09513   0.87017   0.00000  Uiso   1.00
H447   H     0.69004   0.32713   0.87051   0.00000  Uiso   1.00
H448   H     0.59386   0.17708   0.01898   0.00000  Uiso   1.00
H449   H     0.88534   0.97870   0.82868   0.00000  Uiso   1.00
H450   H     0.70781   0.46788   0.82942   0.00000  Uiso   1.00
H451   H     0.50501   0.15149   0.14250   0.00000  Uiso   1.00
O452   O     0.00085   0.90795   0.85480   0.00000  Uiso   1.00
O453   O     0.76793   0.54974   0.85578   0.00000  Uiso   1.00
O454   O     0.50186   0.13464   0.26653   0.00000  Uiso   1.00
N455   N     0.96167   0.99008   0.92602   0.00000  Uiso   1.00
N456   N     0.79570   0.44743   0.92670   0.00000  Uiso   1.00
N457   N     0.60609   0.15166   0.21941   0.00000  Uiso   1.00
N458   N     0.89979   0.99216   0.86270   0.00000  Uiso   1.00
N459   N     0.73382   0.44951   0.86338   0.00000  Uiso   1.00
N460   N     0.54421   0.15373   0.15608   0.00000  Uiso   1.00
C461   C     0.31524   0.14442   0.58817   0.00000  Uiso   1.00
C462   C     0.28027   0.11254   0.65304   0.00000  Uiso   1.00
C463   C     0.24790   0.14731   0.70584   0.00000  Uiso   1.00
C464   C     0.21903   0.10892   0.76079   0.00000  Uiso   1.00
C465   C     0.16424   0.07013   0.86122   0.00000  Uiso   1.00
C466   C     0.38570   0.09822   0.57527   0.00000  Uiso   1.00
C467   C     0.44197   0.12096   0.56268   0.00000  Uiso   1.00
C468   C     0.50185   0.07051   0.55215   0.00000  Uiso   1.00
C469   C     0.61074   0.00950   0.53180   0.00000  Uiso   1.00
C470   C     0.28407   0.13341   0.53872   0.00000  Uiso   1.00
C471   C     0.25489   0.18574   0.49537   0.00000  Uiso   1.00
C472   C     0.22922   0.16492   0.45405   0.00000  Uiso   1.00
C473   C     0.18031   0.15856   0.37695   0.00000  Uiso   1.00
C474   C     0.32154   0.01439   0.59184   0.00000  Uiso   1.00
C475   C     0.28370   0.04190   0.65503   0.00000  Uiso   1.00
C476   C     0.25486   0.00345   0.70991   0.00000  Uiso   1.00
C477   C     0.22245   0.03816   0.76279   0.00000  Uiso   1.00
C478   C     0.38912   0.02759   0.57726   0.00000  Uiso   1.00
C479   C     0.44893   0.97709   0.56674   0.00000  Uiso   1.00
C480   C     0.50528   0.99975   0.55415   0.00000  Uiso   1.00
C481   C     0.28748   0.06278   0.54071   0.00000  Uiso   1.00
C482   C     0.26185   0.04187   0.49944   0.00000  Uiso   1.00
C483   C     0.23264   0.09416   0.45605   0.00000  Uiso   1.00
H484   H     0.31258   0.19941   0.58661   0.00000  Uiso   1.00
H485   H     0.24527   0.20197   0.70428   0.00000  Uiso   1.00
H486   H     0.43931   0.17562   0.56113   0.00000  Uiso   1.00
H487   H     0.25226   0.24039   0.49384   0.00000  Uiso   1.00
H488   H     0.17217   0.17365   0.83563   0.00000  Uiso   1.00
H489   H     0.58131   0.11810   0.53377   0.00000  Uiso   1.00
H490   H     0.18688   0.25468   0.39187   0.00000  Uiso   1.00
H491   H     0.32420   0.95940   0.59339   0.00000  Uiso   1.00
H492   H     0.25752   0.94879   0.71144   0.00000  Uiso   1.00
H493   H     0.45156   0.92244   0.56829   0.00000  Uiso   1.00
H494   H     0.26451   0.98721   0.50100   0.00000  Uiso   1.00
H495   H     0.18211   0.96816   0.84144   0.00000  Uiso   1.00
H496   H     0.59126   0.91260   0.53957   0.00000  Uiso   1.00
H497   H     0.19682   0.04919   0.39768   0.00000  Uiso   1.00
O498   O     0.13309   0.06825   0.91607   0.00000  Uiso   1.00
O499   O     0.66986   0.99537   0.52003   0.00000  Uiso   1.00
O500   O     0.15238   0.17456   0.33387   0.00000  Uiso   1.00
N501   N     0.18365   0.12675   0.82079   0.00000  Uiso   1.00
N502   N     0.56617   0.07481   0.53858   0.00000  Uiso   1.00
N503   N     0.19743   0.20250   0.40591   0.00000  Uiso   1.00
N504   N     0.18900   0.01618   0.82392   0.00000  Uiso   1.00
N505   N     0.57152   0.96423   0.54171   0.00000  Uiso   1.00
N506   N     0.20278   0.09193   0.40904   0.00000  Uiso   1.00
C507   C     0.92425   0.75046   0.31256   0.00000  Uiso   1.00
C508   C     0.87400   0.82003   0.29956   0.00000  Uiso   1.00
C509   C     0.87053   0.88342   0.31657   0.00000  Uiso   1.00
C510   C     0.82095   0.94108   0.30040   0.00000  Uiso   1.00
C511   C     0.74967   0.04995   0.28511   0.00000  Uiso   1.00
C512   C     0.88467   0.69861   0.35020   0.00000  Uiso   1.00
C513   C     0.89018   0.65990   0.40977   0.00000  Uiso   1.00
C514   C     0.84959   0.61533   0.43622   0.00000  Uiso   1.00
C515   C     0.79491   0.53565   0.49953   0.00000  Uiso   1.00
C516   C     0.95795   0.72565   0.24752   0.00000  Uiso   1.00
C517   C     0.02508   0.70966   0.22077   0.00000  Uiso   1.00
C518   C     0.04619   0.68784   0.16078   0.00000  Uiso   1.00
C519   C     0.10530   0.65016   0.06468   0.00000  Uiso   1.00
C520   C     0.84235   0.74013   0.25360   0.00000  Uiso   1.00
C521   C     0.82952   0.81442   0.26754   0.00000  Uiso   1.00
C522   C     0.77993   0.87199   0.25133   0.00000  Uiso   1.00
C523   C     0.77639   0.93546   0.26831   0.00000  Uiso   1.00
C524   C     0.84019   0.69300   0.31817   0.00000  Uiso   1.00
C525   C     0.79958   0.64847   0.34454   0.00000  Uiso   1.00
C526   C     0.80503   0.60971   0.40414   0.00000  Uiso   1.00
C527   C     0.91347   0.72004   0.21550   0.00000  Uiso   1.00
C528   C     0.93448   0.69824   0.15554   0.00000  Uiso   1.00
C529   C     0.00163   0.68222   0.12870   0.00000  Uiso   1.00
H530   H     0.95887   0.75482   0.33749   0.00000  Uiso   1.00
H531   H     0.90496   0.88774   0.34136   0.00000  Uiso   1.00
H532   H     0.92461   0.66425   0.43454   0.00000  Uiso   1.00
H533   H     0.05949   0.71401   0.24557   0.00000  Uiso   1.00
H534   H     0.82555   0.03263   0.33153   0.00000  Uiso   1.00
H535   H     0.86701   0.56136   0.52801   0.00000  Uiso   1.00
H536   H     0.15143   0.66628   0.12953   0.00000  Uiso   1.00
H537   H     0.80772   0.73576   0.22867   0.00000  Uiso   1.00
H538   H     0.74551   0.86764   0.22655   0.00000  Uiso   1.00
H539   H     0.76517   0.64414   0.31974   0.00000  Uiso   1.00
H540   H     0.90004   0.69390   0.13077   0.00000  Uiso   1.00
H541   H     0.69614   0.01631   0.23836   0.00000  Uiso   1.00
H542   H     0.73760   0.54504   0.43484   0.00000  Uiso   1.00
H543   H     0.02201   0.64997   0.03636   0.00000  Uiso   1.00
O544   O     0.72264   0.11156   0.28554   0.00000  Uiso   1.00
O545   O     0.77703   0.49326   0.54331   0.00000  Uiso   1.00
O546   O     0.15018   0.63093   0.02051   0.00000  Uiso   1.00
N547   N     0.80364   0.01069   0.30988   0.00000  Uiso   1.00
N548   N     0.84239   0.57009   0.49358   0.00000  Uiso   1.00
N549   N     0.10830   0.66817   0.12105   0.00000  Uiso   1.00
N550   N     0.73401   0.00191   0.25974   0.00000  Uiso   1.00
N551   N     0.77276   0.56131   0.44345   0.00000  Uiso   1.00
N552   N     0.03867   0.65939   0.07091   0.00000  Uiso   1.00
