data_job_05777
_audit_creation_date              2018-12-19
_audit_creation_method            'Materials Studio'
_symmetry_space_group_name_H-M    'P1'
_symmetry_Int_Tables_number       1
_symmetry_cell_setting            triclinic
loop_
_symmetry_equiv_pos_as_xyz
  x,y,z
_cell_length_a                    16.0068
_cell_length_b                    17.0794
_cell_length_c                    16.9916
_cell_angle_alpha                 90.0000
_cell_angle_beta                  90.0000
_cell_angle_gamma                 90.0000
loop_
_atom_site_label
_atom_site_type_symbol
_atom_site_fract_x
_atom_site_fract_y
_atom_site_fract_z
_atom_site_U_iso_or_equiv
_atom_site_adp_type
_atom_site_occupancy
C1     C     0.75669   0.62527   0.56852   0.00000  Uiso   1.00
C2     C     0.80460   0.54865   0.57776   0.00000  Uiso   1.00
C3     C     0.85766   0.51586   0.52222   0.00000  Uiso   1.00
C4     C     0.89559   0.44542   0.54187   0.00000  Uiso   1.00
C5     C     0.97219   0.33194   0.54517   0.00000  Uiso   1.00
C6     C     0.66487   0.60509   0.58122   0.00000  Uiso   1.00
C7     C     0.60045   0.61977   0.52858   0.00000  Uiso   1.00
C8     C     0.52075   0.59685   0.55115   0.00000  Uiso   1.00
C9     C     0.38040   0.57106   0.55983   0.00000  Uiso   1.00
C10    C     0.78208   0.67629   0.63817   0.00000  Uiso   1.00
C11    C     0.81620   0.75084   0.63342   0.00000  Uiso   1.00
C12    C     0.83516   0.78787   0.70394   0.00000  Uiso   1.00
C13    C     0.87681   0.87262   0.80105   0.00000  Uiso   1.00
C14    C     0.72969   0.55847   0.70220   0.00000  Uiso   1.00
C15    C     0.78993   0.51237   0.65037   0.00000  Uiso   1.00
C16    C     0.82779   0.44196   0.67012   0.00000  Uiso   1.00
C17    C     0.88090   0.40907   0.61461   0.00000  Uiso   1.00
C18    C     0.65020   0.56881   0.65383   0.00000  Uiso   1.00
C19    C     0.57058   0.54587   0.67648   0.00000  Uiso   1.00
C20    C     0.50606   0.56051   0.62389   0.00000  Uiso   1.00
C21    C     0.76742   0.64001   0.71078   0.00000  Uiso   1.00
C22    C     0.78633   0.67693   0.78132   0.00000  Uiso   1.00
C23    C     0.82047   0.75152   0.77668   0.00000  Uiso   1.00
H24    H     0.76810   0.65352   0.51199   0.00000  Uiso   1.00
H25    H     0.86899   0.54395   0.46603   0.00000  Uiso   1.00
H26    H     0.61182   0.64786   0.47240   0.00000  Uiso   1.00
H27    H     0.82754   0.77890   0.57722   0.00000  Uiso   1.00
H28    H     0.97436   0.40647   0.44708   0.00000  Uiso   1.00
H29    H     0.43209   0.62558   0.46053   0.00000  Uiso   1.00
H30    H     0.88697   0.90191   0.68156   0.00000  Uiso   1.00
H31    H     0.71827   0.53022   0.75873   0.00000  Uiso   1.00
H32    H     0.81643   0.41389   0.72631   0.00000  Uiso   1.00
H33    H     0.55925   0.51780   0.73267   0.00000  Uiso   1.00
H34    H     0.77497   0.64884   0.83750   0.00000  Uiso   1.00
H35    H     0.93169   0.30090   0.65834   0.00000  Uiso   1.00
H36    H     0.38942   0.52002   0.67178   0.00000  Uiso   1.00
H37    H     0.84431   0.79634   0.89281   0.00000  Uiso   1.00
O38    O     0.01848   0.27937   0.52692   0.00000  Uiso   1.00
O39    O     0.30704   0.56685   0.54456   0.00000  Uiso   1.00
O40    O     0.90384   0.92938   0.83456   0.00000  Uiso   1.00
N41    N     0.95086   0.39760   0.50126   0.00000  Uiso   1.00
N42    N     0.44387   0.60244   0.51382   0.00000  Uiso   1.00
N43    N     0.86913   0.86079   0.72047   0.00000  Uiso   1.00
N44    N     0.92790   0.34079   0.61493   0.00000  Uiso   1.00
N45    N     0.42091   0.54564   0.62749   0.00000  Uiso   1.00
N46    N     0.84617   0.80399   0.83414   0.00000  Uiso   1.00
C47    C     0.74331   0.37473   0.06852   0.00000  Uiso   1.00
C48    C     0.69540   0.45135   0.07776   0.00000  Uiso   1.00
C49    C     0.64234   0.48414   0.02222   0.00000  Uiso   1.00
C50    C     0.60441   0.55458   0.04187   0.00000  Uiso   1.00
C51    C     0.52781   0.66806   0.04517   0.00000  Uiso   1.00
C52    C     0.83513   0.39491   0.08122   0.00000  Uiso   1.00
C53    C     0.89955   0.38023   0.02858   0.00000  Uiso   1.00
C54    C     0.97925   0.40315   0.05115   0.00000  Uiso   1.00
C55    C     0.11960   0.42894   0.05983   0.00000  Uiso   1.00
C56    C     0.71792   0.32371   0.13817   0.00000  Uiso   1.00
C57    C     0.68380   0.24916   0.13342   0.00000  Uiso   1.00
C58    C     0.66484   0.21213   0.20394   0.00000  Uiso   1.00
C59    C     0.62319   0.12738   0.30105   0.00000  Uiso   1.00
C60    C     0.77031   0.44153   0.20220   0.00000  Uiso   1.00
C61    C     0.71007   0.48763   0.15037   0.00000  Uiso   1.00
C62    C     0.67221   0.55804   0.17012   0.00000  Uiso   1.00
C63    C     0.61910   0.59093   0.11461   0.00000  Uiso   1.00
C64    C     0.84980   0.43119   0.15383   0.00000  Uiso   1.00
C65    C     0.92942   0.45413   0.17648   0.00000  Uiso   1.00
C66    C     0.99394   0.43949   0.12389   0.00000  Uiso   1.00
C67    C     0.73258   0.35999   0.21078   0.00000  Uiso   1.00
C68    C     0.71367   0.32307   0.28132   0.00000  Uiso   1.00
C69    C     0.67953   0.24848   0.27668   0.00000  Uiso   1.00
H70    H     0.73190   0.34648   0.01199   0.00000  Uiso   1.00
H71    H     0.63101   0.45605   0.96603   0.00000  Uiso   1.00
H72    H     0.88818   0.35214   0.97240   0.00000  Uiso   1.00
H73    H     0.67246   0.22110   0.07722   0.00000  Uiso   1.00
H74    H     0.52564   0.59353   0.94708   0.00000  Uiso   1.00
H75    H     0.06791   0.37442   0.96053   0.00000  Uiso   1.00
H76    H     0.61303   0.09809   0.18156   0.00000  Uiso   1.00
H77    H     0.78173   0.46978   0.25873   0.00000  Uiso   1.00
H78    H     0.68357   0.58611   0.22631   0.00000  Uiso   1.00
H79    H     0.94075   0.48220   0.23267   0.00000  Uiso   1.00
H80    H     0.72503   0.35116   0.33750   0.00000  Uiso   1.00
H81    H     0.56831   0.69910   0.15834   0.00000  Uiso   1.00
H82    H     0.11058   0.47998   0.17178   0.00000  Uiso   1.00
H83    H     0.65569   0.20366   0.39281   0.00000  Uiso   1.00
O84    O     0.48152   0.72063   0.02692   0.00000  Uiso   1.00
O85    O     0.19296   0.43315   0.04456   0.00000  Uiso   1.00
O86    O     0.59616   0.07062   0.33456   0.00000  Uiso   1.00
N87    N     0.54914   0.60240   0.00126   0.00000  Uiso   1.00
N88    N     0.05613   0.39756   0.01382   0.00000  Uiso   1.00
N89    N     0.63087   0.13921   0.22047   0.00000  Uiso   1.00
N90    N     0.57210   0.65921   0.11493   0.00000  Uiso   1.00
N91    N     0.07909   0.45436   0.12749   0.00000  Uiso   1.00
N92    N     0.65383   0.19601   0.33414   0.00000  Uiso   1.00
C93    C     0.24331   0.12527   0.93148   0.00000  Uiso   1.00
C94    C     0.19540   0.04865   0.92224   0.00000  Uiso   1.00
C95    C     0.14234   0.01586   0.97778   0.00000  Uiso   1.00
C96    C     0.10441   0.94542   0.95813   0.00000  Uiso   1.00
C97    C     0.02781   0.83194   0.95483   0.00000  Uiso   1.00
C98    C     0.33513   0.10509   0.91878   0.00000  Uiso   1.00
C99    C     0.39955   0.11977   0.97142   0.00000  Uiso   1.00
C100   C     0.47925   0.09685   0.94885   0.00000  Uiso   1.00
C101   C     0.61960   0.07106   0.94017   0.00000  Uiso   1.00
C102   C     0.21792   0.17629   0.86183   0.00000  Uiso   1.00
C103   C     0.18380   0.25084   0.86658   0.00000  Uiso   1.00
C104   C     0.16484   0.28787   0.79606   0.00000  Uiso   1.00
C105   C     0.12319   0.37262   0.69895   0.00000  Uiso   1.00
C106   C     0.27031   0.05847   0.79780   0.00000  Uiso   1.00
C107   C     0.21007   0.01237   0.84963   0.00000  Uiso   1.00
C108   C     0.17221   0.94196   0.82988   0.00000  Uiso   1.00
C109   C     0.11910   0.90907   0.88539   0.00000  Uiso   1.00
C110   C     0.34980   0.06881   0.84617   0.00000  Uiso   1.00
C111   C     0.42942   0.04587   0.82352   0.00000  Uiso   1.00
C112   C     0.49394   0.06051   0.87611   0.00000  Uiso   1.00
C113   C     0.23258   0.14001   0.78922   0.00000  Uiso   1.00
C114   C     0.21367   0.17693   0.71868   0.00000  Uiso   1.00
C115   C     0.17953   0.25152   0.72332   0.00000  Uiso   1.00
H116   H     0.23190   0.15352   0.98801   0.00000  Uiso   1.00
H117   H     0.13101   0.04395   0.03397   0.00000  Uiso   1.00
H118   H     0.38818   0.14786   0.02760   0.00000  Uiso   1.00
H119   H     0.17246   0.27890   0.92278   0.00000  Uiso   1.00
H120   H     0.02564   0.90647   0.05292   0.00000  Uiso   1.00
H121   H     0.56791   0.12558   0.03947   0.00000  Uiso   1.00
H122   H     0.11303   0.40191   0.81844   0.00000  Uiso   1.00
H123   H     0.28173   0.03022   0.74127   0.00000  Uiso   1.00
H124   H     0.18357   0.91389   0.77369   0.00000  Uiso   1.00
H125   H     0.44075   0.01780   0.76733   0.00000  Uiso   1.00
H126   H     0.22503   0.14884   0.66250   0.00000  Uiso   1.00
H127   H     0.06831   0.80090   0.84166   0.00000  Uiso   1.00
H128   H     0.61058   0.02002   0.82822   0.00000  Uiso   1.00
H129   H     0.15569   0.29634   0.60719   0.00000  Uiso   1.00
O130   O     0.98152   0.77937   0.97308   0.00000  Uiso   1.00
O131   O     0.69296   0.06685   0.95544   0.00000  Uiso   1.00
O132   O     0.09616   0.42938   0.66544   0.00000  Uiso   1.00
N133   N     0.04914   0.89760   0.99874   0.00000  Uiso   1.00
N134   N     0.55613   0.10244   0.98618   0.00000  Uiso   1.00
N135   N     0.13087   0.36079   0.77953   0.00000  Uiso   1.00
N136   N     0.07210   0.84079   0.88507   0.00000  Uiso   1.00
N137   N     0.57909   0.04564   0.87251   0.00000  Uiso   1.00
N138   N     0.15383   0.30399   0.66586   0.00000  Uiso   1.00
C139   C     0.25669   0.87473   0.43148   0.00000  Uiso   1.00
C140   C     0.30460   0.95135   0.42224   0.00000  Uiso   1.00
C141   C     0.35766   0.98414   0.47778   0.00000  Uiso   1.00
C142   C     0.39559   0.05458   0.45813   0.00000  Uiso   1.00
C143   C     0.47219   0.16806   0.45483   0.00000  Uiso   1.00
C144   C     0.16487   0.89491   0.41878   0.00000  Uiso   1.00
C145   C     0.10045   0.88023   0.47142   0.00000  Uiso   1.00
C146   C     0.02075   0.90315   0.44885   0.00000  Uiso   1.00
C147   C     0.88040   0.92894   0.44017   0.00000  Uiso   1.00
C148   C     0.28208   0.82371   0.36183   0.00000  Uiso   1.00
C149   C     0.31620   0.74916   0.36658   0.00000  Uiso   1.00
C150   C     0.33516   0.71213   0.29606   0.00000  Uiso   1.00
C151   C     0.37681   0.62738   0.19895   0.00000  Uiso   1.00
C152   C     0.22969   0.94153   0.29780   0.00000  Uiso   1.00
C153   C     0.28993   0.98763   0.34963   0.00000  Uiso   1.00
C154   C     0.32779   0.05804   0.32988   0.00000  Uiso   1.00
C155   C     0.38090   0.09093   0.38539   0.00000  Uiso   1.00
C156   C     0.15020   0.93119   0.34617   0.00000  Uiso   1.00
C157   C     0.07058   0.95413   0.32352   0.00000  Uiso   1.00
C158   C     0.00606   0.93949   0.37611   0.00000  Uiso   1.00
C159   C     0.26742   0.85999   0.28922   0.00000  Uiso   1.00
C160   C     0.28633   0.82307   0.21868   0.00000  Uiso   1.00
C161   C     0.32047   0.74848   0.22332   0.00000  Uiso   1.00
H162   H     0.26810   0.84648   0.48801   0.00000  Uiso   1.00
H163   H     0.36899   0.95605   0.53397   0.00000  Uiso   1.00
H164   H     0.11182   0.85214   0.52760   0.00000  Uiso   1.00
H165   H     0.32754   0.72110   0.42278   0.00000  Uiso   1.00
H166   H     0.47436   0.09353   0.55292   0.00000  Uiso   1.00
H167   H     0.93209   0.87442   0.53947   0.00000  Uiso   1.00
H168   H     0.38697   0.59809   0.31844   0.00000  Uiso   1.00
H169   H     0.21827   0.96978   0.24127   0.00000  Uiso   1.00
H170   H     0.31643   0.08611   0.27369   0.00000  Uiso   1.00
H171   H     0.05925   0.98220   0.26733   0.00000  Uiso   1.00
H172   H     0.27497   0.85116   0.16250   0.00000  Uiso   1.00
H173   H     0.43169   0.19910   0.34166   0.00000  Uiso   1.00
H174   H     0.88942   0.97998   0.32822   0.00000  Uiso   1.00
H175   H     0.34431   0.70366   0.10719   0.00000  Uiso   1.00
O176   O     0.51848   0.22063   0.47308   0.00000  Uiso   1.00
O177   O     0.80704   0.93315   0.45544   0.00000  Uiso   1.00
O178   O     0.40384   0.57062   0.16544   0.00000  Uiso   1.00
N179   N     0.45086   0.10240   0.49874   0.00000  Uiso   1.00
N180   N     0.94387   0.89756   0.48618   0.00000  Uiso   1.00
N181   N     0.36913   0.63921   0.27953   0.00000  Uiso   1.00
N182   N     0.42790   0.15921   0.38507   0.00000  Uiso   1.00
N183   N     0.92091   0.95436   0.37251   0.00000  Uiso   1.00
N184   N     0.34617   0.69601   0.16586   0.00000  Uiso   1.00
C185   C     0.24331   0.37473   0.43148   0.00000  Uiso   1.00
C186   C     0.19540   0.45135   0.42224   0.00000  Uiso   1.00
C187   C     0.14234   0.48414   0.47778   0.00000  Uiso   1.00
C188   C     0.10441   0.55458   0.45813   0.00000  Uiso   1.00
C189   C     0.02781   0.66806   0.45483   0.00000  Uiso   1.00
C190   C     0.33513   0.39491   0.41878   0.00000  Uiso   1.00
C191   C     0.39955   0.38023   0.47142   0.00000  Uiso   1.00
C192   C     0.47925   0.40315   0.44885   0.00000  Uiso   1.00
C193   C     0.61960   0.42894   0.44017   0.00000  Uiso   1.00
C194   C     0.21792   0.32371   0.36183   0.00000  Uiso   1.00
C195   C     0.18380   0.24916   0.36658   0.00000  Uiso   1.00
C196   C     0.16484   0.21213   0.29606   0.00000  Uiso   1.00
C197   C     0.12319   0.12738   0.19895   0.00000  Uiso   1.00
C198   C     0.27031   0.44153   0.29780   0.00000  Uiso   1.00
C199   C     0.21007   0.48763   0.34963   0.00000  Uiso   1.00
C200   C     0.17221   0.55804   0.32988   0.00000  Uiso   1.00
C201   C     0.11910   0.59093   0.38539   0.00000  Uiso   1.00
C202   C     0.34980   0.43119   0.34617   0.00000  Uiso   1.00
C203   C     0.42942   0.45413   0.32352   0.00000  Uiso   1.00
C204   C     0.49394   0.43949   0.37611   0.00000  Uiso   1.00
C205   C     0.23258   0.35999   0.28922   0.00000  Uiso   1.00
C206   C     0.21367   0.32307   0.21868   0.00000  Uiso   1.00
C207   C     0.17953   0.24848   0.22332   0.00000  Uiso   1.00
H208   H     0.23190   0.34648   0.48801   0.00000  Uiso   1.00
H209   H     0.13101   0.45605   0.53397   0.00000  Uiso   1.00
H210   H     0.38818   0.35214   0.52760   0.00000  Uiso   1.00
H211   H     0.17246   0.22110   0.42278   0.00000  Uiso   1.00
H212   H     0.02564   0.59353   0.55292   0.00000  Uiso   1.00
H213   H     0.56791   0.37442   0.53947   0.00000  Uiso   1.00
H214   H     0.11303   0.09809   0.31844   0.00000  Uiso   1.00
H215   H     0.28173   0.46978   0.24127   0.00000  Uiso   1.00
H216   H     0.18357   0.58611   0.27369   0.00000  Uiso   1.00
H217   H     0.44075   0.48220   0.26733   0.00000  Uiso   1.00
H218   H     0.22503   0.35116   0.16250   0.00000  Uiso   1.00
H219   H     0.06831   0.69910   0.34166   0.00000  Uiso   1.00
H220   H     0.61058   0.47998   0.32822   0.00000  Uiso   1.00
H221   H     0.15569   0.20366   0.10719   0.00000  Uiso   1.00
O222   O     0.98152   0.72063   0.47308   0.00000  Uiso   1.00
O223   O     0.69296   0.43315   0.45544   0.00000  Uiso   1.00
O224   O     0.09616   0.07062   0.16544   0.00000  Uiso   1.00
N225   N     0.04914   0.60240   0.49874   0.00000  Uiso   1.00
N226   N     0.55613   0.39756   0.48618   0.00000  Uiso   1.00
N227   N     0.13087   0.13921   0.27953   0.00000  Uiso   1.00
N228   N     0.07210   0.65921   0.38507   0.00000  Uiso   1.00
N229   N     0.57909   0.45436   0.37251   0.00000  Uiso   1.00
N230   N     0.15383   0.19601   0.16586   0.00000  Uiso   1.00
C231   C     0.25669   0.62527   0.93148   0.00000  Uiso   1.00
C232   C     0.30460   0.54865   0.92224   0.00000  Uiso   1.00
C233   C     0.35766   0.51586   0.97778   0.00000  Uiso   1.00
C234   C     0.39559   0.44542   0.95813   0.00000  Uiso   1.00
C235   C     0.47219   0.33194   0.95483   0.00000  Uiso   1.00
C236   C     0.16487   0.60509   0.91878   0.00000  Uiso   1.00
C237   C     0.10045   0.61977   0.97142   0.00000  Uiso   1.00
C238   C     0.02075   0.59685   0.94885   0.00000  Uiso   1.00
C239   C     0.88040   0.57106   0.94017   0.00000  Uiso   1.00
C240   C     0.28208   0.67629   0.86183   0.00000  Uiso   1.00
C241   C     0.31620   0.75084   0.86658   0.00000  Uiso   1.00
C242   C     0.33516   0.78787   0.79606   0.00000  Uiso   1.00
C243   C     0.37681   0.87262   0.69895   0.00000  Uiso   1.00
C244   C     0.22969   0.55847   0.79780   0.00000  Uiso   1.00
C245   C     0.28993   0.51237   0.84963   0.00000  Uiso   1.00
C246   C     0.32779   0.44196   0.82988   0.00000  Uiso   1.00
C247   C     0.38090   0.40907   0.88539   0.00000  Uiso   1.00
C248   C     0.15020   0.56881   0.84617   0.00000  Uiso   1.00
C249   C     0.07058   0.54587   0.82352   0.00000  Uiso   1.00
C250   C     0.00606   0.56051   0.87611   0.00000  Uiso   1.00
C251   C     0.26742   0.64001   0.78922   0.00000  Uiso   1.00
C252   C     0.28633   0.67693   0.71868   0.00000  Uiso   1.00
C253   C     0.32047   0.75152   0.72332   0.00000  Uiso   1.00
H254   H     0.26810   0.65352   0.98801   0.00000  Uiso   1.00
H255   H     0.36899   0.54395   0.03397   0.00000  Uiso   1.00
H256   H     0.11182   0.64786   0.02760   0.00000  Uiso   1.00
H257   H     0.32754   0.77890   0.92278   0.00000  Uiso   1.00
H258   H     0.47436   0.40647   0.05292   0.00000  Uiso   1.00
H259   H     0.93209   0.62558   0.03947   0.00000  Uiso   1.00
H260   H     0.38697   0.90191   0.81844   0.00000  Uiso   1.00
H261   H     0.21827   0.53022   0.74127   0.00000  Uiso   1.00
H262   H     0.31643   0.41389   0.77369   0.00000  Uiso   1.00
H263   H     0.05925   0.51780   0.76733   0.00000  Uiso   1.00
H264   H     0.27497   0.64884   0.66250   0.00000  Uiso   1.00
H265   H     0.43169   0.30090   0.84166   0.00000  Uiso   1.00
H266   H     0.88942   0.52002   0.82822   0.00000  Uiso   1.00
H267   H     0.34431   0.79634   0.60719   0.00000  Uiso   1.00
O268   O     0.51848   0.27937   0.97308   0.00000  Uiso   1.00
O269   O     0.80704   0.56685   0.95544   0.00000  Uiso   1.00
O270   O     0.40384   0.92938   0.66544   0.00000  Uiso   1.00
N271   N     0.45086   0.39760   0.99874   0.00000  Uiso   1.00
N272   N     0.94387   0.60244   0.98618   0.00000  Uiso   1.00
N273   N     0.36913   0.86079   0.77953   0.00000  Uiso   1.00
N274   N     0.42790   0.34079   0.88507   0.00000  Uiso   1.00
N275   N     0.92091   0.54564   0.87251   0.00000  Uiso   1.00
N276   N     0.34617   0.80399   0.66586   0.00000  Uiso   1.00
C277   C     0.75669   0.87473   0.06852   0.00000  Uiso   1.00
C278   C     0.80460   0.95135   0.07776   0.00000  Uiso   1.00
C279   C     0.85766   0.98414   0.02222   0.00000  Uiso   1.00
C280   C     0.89559   0.05458   0.04187   0.00000  Uiso   1.00
C281   C     0.97219   0.16806   0.04517   0.00000  Uiso   1.00
C282   C     0.66487   0.89491   0.08122   0.00000  Uiso   1.00
C283   C     0.60045   0.88023   0.02858   0.00000  Uiso   1.00
C284   C     0.52075   0.90315   0.05115   0.00000  Uiso   1.00
C285   C     0.38040   0.92894   0.05983   0.00000  Uiso   1.00
C286   C     0.78208   0.82371   0.13817   0.00000  Uiso   1.00
C287   C     0.81620   0.74916   0.13342   0.00000  Uiso   1.00
C288   C     0.83516   0.71213   0.20394   0.00000  Uiso   1.00
C289   C     0.87681   0.62738   0.30105   0.00000  Uiso   1.00
C290   C     0.72969   0.94153   0.20220   0.00000  Uiso   1.00
C291   C     0.78993   0.98763   0.15037   0.00000  Uiso   1.00
C292   C     0.82779   0.05804   0.17012   0.00000  Uiso   1.00
C293   C     0.88090   0.09093   0.11461   0.00000  Uiso   1.00
C294   C     0.65020   0.93119   0.15383   0.00000  Uiso   1.00
C295   C     0.57058   0.95413   0.17648   0.00000  Uiso   1.00
C296   C     0.50606   0.93949   0.12389   0.00000  Uiso   1.00
C297   C     0.76742   0.85999   0.21078   0.00000  Uiso   1.00
C298   C     0.78633   0.82307   0.28132   0.00000  Uiso   1.00
C299   C     0.82047   0.74848   0.27668   0.00000  Uiso   1.00
H300   H     0.76810   0.84648   0.01199   0.00000  Uiso   1.00
H301   H     0.86899   0.95605   0.96603   0.00000  Uiso   1.00
H302   H     0.61182   0.85214   0.97240   0.00000  Uiso   1.00
H303   H     0.82754   0.72110   0.07722   0.00000  Uiso   1.00
H304   H     0.97436   0.09353   0.94708   0.00000  Uiso   1.00
H305   H     0.43209   0.87442   0.96053   0.00000  Uiso   1.00
H306   H     0.88697   0.59809   0.18156   0.00000  Uiso   1.00
H307   H     0.71827   0.96978   0.25873   0.00000  Uiso   1.00
H308   H     0.81643   0.08611   0.22631   0.00000  Uiso   1.00
H309   H     0.55925   0.98220   0.23267   0.00000  Uiso   1.00
H310   H     0.77497   0.85116   0.33750   0.00000  Uiso   1.00
H311   H     0.93169   0.19910   0.15834   0.00000  Uiso   1.00
H312   H     0.38942   0.97998   0.17178   0.00000  Uiso   1.00
H313   H     0.84431   0.70366   0.39281   0.00000  Uiso   1.00
O314   O     0.01848   0.22063   0.02692   0.00000  Uiso   1.00
O315   O     0.30704   0.93315   0.04456   0.00000  Uiso   1.00
O316   O     0.90384   0.57062   0.33456   0.00000  Uiso   1.00
N317   N     0.95086   0.10240   0.00126   0.00000  Uiso   1.00
N318   N     0.44387   0.89756   0.01382   0.00000  Uiso   1.00
N319   N     0.86913   0.63921   0.22047   0.00000  Uiso   1.00
N320   N     0.92790   0.15921   0.11493   0.00000  Uiso   1.00
N321   N     0.42091   0.95436   0.12749   0.00000  Uiso   1.00
N322   N     0.84617   0.69601   0.33414   0.00000  Uiso   1.00
C323   C     0.74331   0.12527   0.56852   0.00000  Uiso   1.00
C324   C     0.69540   0.04865   0.57776   0.00000  Uiso   1.00
C325   C     0.64234   0.01586   0.52222   0.00000  Uiso   1.00
C326   C     0.60441   0.94542   0.54187   0.00000  Uiso   1.00
C327   C     0.52781   0.83194   0.54517   0.00000  Uiso   1.00
C328   C     0.83513   0.10509   0.58122   0.00000  Uiso   1.00
C329   C     0.89955   0.11977   0.52858   0.00000  Uiso   1.00
C330   C     0.97925   0.09685   0.55115   0.00000  Uiso   1.00
C331   C     0.11960   0.07106   0.55983   0.00000  Uiso   1.00
C332   C     0.71792   0.17629   0.63817   0.00000  Uiso   1.00
C333   C     0.68380   0.25084   0.63342   0.00000  Uiso   1.00
C334   C     0.66484   0.28787   0.70394   0.00000  Uiso   1.00
C335   C     0.62319   0.37262   0.80105   0.00000  Uiso   1.00
C336   C     0.77031   0.05847   0.70220   0.00000  Uiso   1.00
C337   C     0.71007   0.01237   0.65037   0.00000  Uiso   1.00
C338   C     0.67221   0.94196   0.67012   0.00000  Uiso   1.00
C339   C     0.61910   0.90907   0.61461   0.00000  Uiso   1.00
C340   C     0.84980   0.06881   0.65383   0.00000  Uiso   1.00
C341   C     0.92942   0.04587   0.67648   0.00000  Uiso   1.00
C342   C     0.99394   0.06051   0.62389   0.00000  Uiso   1.00
C343   C     0.73258   0.14001   0.71078   0.00000  Uiso   1.00
C344   C     0.71367   0.17693   0.78132   0.00000  Uiso   1.00
C345   C     0.67953   0.25152   0.77668   0.00000  Uiso   1.00
H346   H     0.73190   0.15352   0.51199   0.00000  Uiso   1.00
H347   H     0.63101   0.04395   0.46603   0.00000  Uiso   1.00
H348   H     0.88818   0.14786   0.47240   0.00000  Uiso   1.00
H349   H     0.67246   0.27890   0.57722   0.00000  Uiso   1.00
H350   H     0.52564   0.90647   0.44708   0.00000  Uiso   1.00
H351   H     0.06791   0.12558   0.46053   0.00000  Uiso   1.00
H352   H     0.61303   0.40191   0.68156   0.00000  Uiso   1.00
H353   H     0.78173   0.03022   0.75873   0.00000  Uiso   1.00
H354   H     0.68357   0.91389   0.72631   0.00000  Uiso   1.00
H355   H     0.94075   0.01780   0.73267   0.00000  Uiso   1.00
H356   H     0.72503   0.14884   0.83750   0.00000  Uiso   1.00
H357   H     0.56831   0.80090   0.65834   0.00000  Uiso   1.00
H358   H     0.11058   0.02002   0.67178   0.00000  Uiso   1.00
H359   H     0.65569   0.29634   0.89281   0.00000  Uiso   1.00
O360   O     0.48152   0.77937   0.52692   0.00000  Uiso   1.00
O361   O     0.19296   0.06685   0.54456   0.00000  Uiso   1.00
O362   O     0.59616   0.42938   0.83456   0.00000  Uiso   1.00
N363   N     0.54914   0.89760   0.50126   0.00000  Uiso   1.00
N364   N     0.05613   0.10244   0.51382   0.00000  Uiso   1.00
N365   N     0.63087   0.36079   0.72047   0.00000  Uiso   1.00
N366   N     0.57210   0.84079   0.61493   0.00000  Uiso   1.00
N367   N     0.07909   0.04564   0.62749   0.00000  Uiso   1.00
N368   N     0.65383   0.30399   0.83414   0.00000  Uiso   1.00
