data_job_04886
_audit_creation_date              2018-12-19
_audit_creation_method            'Materials Studio'
_symmetry_space_group_name_H-M    'P1'
_symmetry_Int_Tables_number       1
_symmetry_cell_setting            triclinic
loop_
_symmetry_equiv_pos_as_xyz
  x,y,z
_cell_length_a                    15.3426
_cell_length_b                    19.8711
_cell_length_c                    29.9873
_cell_angle_alpha                 90.0000
_cell_angle_beta                  137.8559
_cell_angle_gamma                 90.0000
loop_
_atom_site_label
_atom_site_type_symbol
_atom_site_fract_x
_atom_site_fract_y
_atom_site_fract_z
_atom_site_U_iso_or_equiv
_atom_site_adp_type
_atom_site_occupancy
C1     C     0.28542   0.58757   0.62128   0.00000  Uiso   1.00
C2     C     0.32719   0.62836   0.59650   0.00000  Uiso   1.00
C3     C     0.24550   0.65199   0.53220   0.00000  Uiso   1.00
C4     C     0.30256   0.68831   0.51948   0.00000  Uiso   1.00
C5     C     0.34704   0.74976   0.47342   0.00000  Uiso   1.00
C6     C     0.36540   0.52300   0.65043   0.00000  Uiso   1.00
C7     C     0.31584   0.45805   0.63146   0.00000  Uiso   1.00
C8     C     0.40507   0.40569   0.66415   0.00000  Uiso   1.00
C9     C     0.50888   0.30357   0.70184   0.00000  Uiso   1.00
C10    C     0.33268   0.62676   0.67980   0.00000  Uiso   1.00
C11    C     0.25561   0.64904   0.68555   0.00000  Uiso   1.00
C12    C     0.31730   0.68402   0.74298   0.00000  Uiso   1.00
C13    C     0.37030   0.74300   0.82628   0.00000  Uiso   1.00
C14    C     0.53202   0.61007   0.71306   0.00000  Uiso   1.00
C15    C     0.46113   0.64057   0.64636   0.00000  Uiso   1.00
C16    C     0.51833   0.67688   0.63374   0.00000  Uiso   1.00
C17    C     0.43674   0.70056   0.56943   0.00000  Uiso   1.00
C18    C     0.49934   0.53522   0.70027   0.00000  Uiso   1.00
C19    C     0.58867   0.48294   0.73300   0.00000  Uiso   1.00
C20    C     0.53926   0.41793   0.71409   0.00000  Uiso   1.00
C21    C     0.46662   0.63898   0.72965   0.00000  Uiso   1.00
C22    C     0.52844   0.67393   0.78709   0.00000  Uiso   1.00
C23    C     0.45148   0.69626   0.79292   0.00000  Uiso   1.00
H24    H     0.18115   0.57805   0.58247   0.00000  Uiso   1.00
H25    H     0.14185   0.64252   0.49363   0.00000  Uiso   1.00
H26    H     0.21218   0.44861   0.59289   0.00000  Uiso   1.00
H27    H     0.15196   0.63957   0.64696   0.00000  Uiso   1.00
H28    H     0.15735   0.71935   0.41711   0.00000  Uiso   1.00
H29    H     0.30566   0.31049   0.62641   0.00000  Uiso   1.00
H30    H     0.17867   0.71317   0.74045   0.00000  Uiso   1.00
H31    H     0.63631   0.61958   0.75187   0.00000  Uiso   1.00
H32    H     0.62199   0.68632   0.67233   0.00000  Uiso   1.00
H33    H     0.69232   0.49242   0.77158   0.00000  Uiso   1.00
H34    H     0.63210   0.68338   0.82566   0.00000  Uiso   1.00
H35    H     0.54705   0.75491   0.56215   0.00000  Uiso   1.00
H36    H     0.69535   0.34604   0.77145   0.00000  Uiso   1.00
H37    H     0.56836   0.74872   0.88549   0.00000  Uiso   1.00
O38    O     0.33457   0.78027   0.43424   0.00000  Uiso   1.00
O39    O     0.52914   0.24386   0.70884   0.00000  Uiso   1.00
O40    O     0.36253   0.77216   0.85845   0.00000  Uiso   1.00
N41    N     0.25103   0.71857   0.46217   0.00000  Uiso   1.00
N42    N     0.38968   0.33631   0.65784   0.00000  Uiso   1.00
N43    N     0.27096   0.71276   0.76447   0.00000  Uiso   1.00
N44    N     0.46072   0.73770   0.54021   0.00000  Uiso   1.00
N45    N     0.59938   0.35544   0.73589   0.00000  Uiso   1.00
N46    N     0.48066   0.73190   0.84251   0.00000  Uiso   1.00
C47    C     0.56449   0.24353   0.12005   0.00000  Uiso   1.00
C48    C     0.44975   0.28366   0.09462   0.00000  Uiso   1.00
C49    C     0.34459   0.30636   0.02999   0.00000  Uiso   1.00
C50    C     0.24960   0.34220   0.01668   0.00000  Uiso   1.00
C51    C     0.06989   0.40255   0.96963   0.00000  Uiso   1.00
C52    C     0.57052   0.17922   0.15001   0.00000  Uiso   1.00
C53    C     0.56692   0.11410   0.13194   0.00000  Uiso   1.00
C54    C     0.57362   0.06202   0.16527   0.00000  Uiso   1.00
C55    C     0.58151   0.96023   0.20425   0.00000  Uiso   1.00
C56    C     0.68575   0.28368   0.17810   0.00000  Uiso   1.00
C57    C     0.77906   0.30638   0.18368   0.00000  Uiso   1.00
C58    C     0.88280   0.34223   0.24067   0.00000  Uiso   1.00
C59    C     0.06959   0.40263   0.32327   0.00000  Uiso   1.00
C60    C     0.58281   0.26682   0.21135   0.00000  Uiso   1.00
C61    C     0.45970   0.29630   0.14421   0.00000  Uiso   1.00
C62    C     0.36486   0.33212   0.13100   0.00000  Uiso   1.00
C63    C     0.25958   0.35487   0.06636   0.00000  Uiso   1.00
C64    C     0.58047   0.19186   0.19959   0.00000  Uiso   1.00
C65    C     0.58719   0.13987   0.23296   0.00000  Uiso   1.00
C66    C     0.58360   0.07469   0.21495   0.00000  Uiso   1.00
C67    C     0.69570   0.29633   0.22769   0.00000  Uiso   1.00
C68    C     0.79932   0.33215   0.28469   0.00000  Uiso   1.00
C69    C     0.89277   0.35490   0.29035   0.00000  Uiso   1.00
H70    H     0.55674   0.23368   0.08145   0.00000  Uiso   1.00
H71    H     0.33691   0.29655   0.99162   0.00000  Uiso   1.00
H72    H     0.55923   0.10433   0.09357   0.00000  Uiso   1.00
H73    H     0.77132   0.29658   0.14529   0.00000  Uiso   1.00
H74    H     0.09756   0.37181   0.91389   0.00000  Uiso   1.00
H75    H     0.56637   0.96650   0.12888   0.00000  Uiso   1.00
H76    H     0.01362   0.37190   0.23795   0.00000  Uiso   1.00
H77    H     0.59056   0.27667   0.24997   0.00000  Uiso   1.00
H78    H     0.37259   0.34190   0.16938   0.00000  Uiso   1.00
H79    H     0.59490   0.14967   0.27133   0.00000  Uiso   1.00
H80    H     0.80699   0.34192   0.32306   0.00000  Uiso   1.00
H81    H     0.12651   0.40862   0.05817   0.00000  Uiso   1.00
H82    H     0.59532   0.00330   0.27316   0.00000  Uiso   1.00
H83    H     0.04257   0.40870   0.38223   0.00000  Uiso   1.00
O84    O     0.96801   0.43233   0.92998   0.00000  Uiso   1.00
O85    O     0.58310   0.90058   0.21204   0.00000  Uiso   1.00
O86    O     0.16987   0.43245   0.35513   0.00000  Uiso   1.00
N87    N     0.13430   0.37153   0.95891   0.00000  Uiso   1.00
N88    N     0.57259   0.99259   0.15990   0.00000  Uiso   1.00
N89    N     0.99075   0.37159   0.26188   0.00000  Uiso   1.00
N90    N     0.14988   0.39134   0.03655   0.00000  Uiso   1.00
N91    N     0.58817   0.01240   0.23754   0.00000  Uiso   1.00
N92    N     0.00632   0.39139   0.33952   0.00000  Uiso   1.00
C93    C     0.78542   0.08757   0.62128   0.00000  Uiso   1.00
C94    C     0.82719   0.12836   0.59650   0.00000  Uiso   1.00
C95    C     0.74550   0.15199   0.53220   0.00000  Uiso   1.00
C96    C     0.80256   0.18831   0.51948   0.00000  Uiso   1.00
C97    C     0.84704   0.24976   0.47342   0.00000  Uiso   1.00
C98    C     0.86540   0.02300   0.65043   0.00000  Uiso   1.00
C99    C     0.81584   0.95805   0.63146   0.00000  Uiso   1.00
C100   C     0.90507   0.90569   0.66415   0.00000  Uiso   1.00
C101   C     0.00888   0.80357   0.70184   0.00000  Uiso   1.00
C102   C     0.83268   0.12676   0.67980   0.00000  Uiso   1.00
C103   C     0.75561   0.14904   0.68555   0.00000  Uiso   1.00
C104   C     0.81730   0.18402   0.74298   0.00000  Uiso   1.00
C105   C     0.87030   0.24300   0.82628   0.00000  Uiso   1.00
C106   C     0.03202   0.11007   0.71306   0.00000  Uiso   1.00
C107   C     0.96113   0.14057   0.64636   0.00000  Uiso   1.00
C108   C     0.01833   0.17688   0.63374   0.00000  Uiso   1.00
C109   C     0.93674   0.20056   0.56943   0.00000  Uiso   1.00
C110   C     0.99934   0.03522   0.70027   0.00000  Uiso   1.00
C111   C     0.08867   0.98294   0.73300   0.00000  Uiso   1.00
C112   C     0.03926   0.91793   0.71409   0.00000  Uiso   1.00
C113   C     0.96662   0.13898   0.72965   0.00000  Uiso   1.00
C114   C     0.02844   0.17393   0.78709   0.00000  Uiso   1.00
C115   C     0.95148   0.19626   0.79292   0.00000  Uiso   1.00
H116   H     0.68115   0.07805   0.58247   0.00000  Uiso   1.00
H117   H     0.64185   0.14252   0.49363   0.00000  Uiso   1.00
H118   H     0.71218   0.94861   0.59289   0.00000  Uiso   1.00
H119   H     0.65196   0.13957   0.64696   0.00000  Uiso   1.00
H120   H     0.65735   0.21935   0.41711   0.00000  Uiso   1.00
H121   H     0.80566   0.81049   0.62641   0.00000  Uiso   1.00
H122   H     0.67867   0.21317   0.74045   0.00000  Uiso   1.00
H123   H     0.13631   0.11958   0.75187   0.00000  Uiso   1.00
H124   H     0.12199   0.18632   0.67233   0.00000  Uiso   1.00
H125   H     0.19232   0.99242   0.77158   0.00000  Uiso   1.00
H126   H     0.13210   0.18338   0.82566   0.00000  Uiso   1.00
H127   H     0.04705   0.25491   0.56215   0.00000  Uiso   1.00
H128   H     0.19535   0.84604   0.77145   0.00000  Uiso   1.00
H129   H     0.06836   0.24872   0.88549   0.00000  Uiso   1.00
O130   O     0.83457   0.28027   0.43424   0.00000  Uiso   1.00
O131   O     0.02914   0.74386   0.70884   0.00000  Uiso   1.00
O132   O     0.86253   0.27216   0.85845   0.00000  Uiso   1.00
N133   N     0.75103   0.21857   0.46217   0.00000  Uiso   1.00
N134   N     0.88968   0.83631   0.65784   0.00000  Uiso   1.00
N135   N     0.77096   0.21276   0.76447   0.00000  Uiso   1.00
N136   N     0.96072   0.23770   0.54021   0.00000  Uiso   1.00
N137   N     0.09938   0.85544   0.73589   0.00000  Uiso   1.00
N138   N     0.98066   0.23190   0.84251   0.00000  Uiso   1.00
C139   C     0.06449   0.74353   0.12005   0.00000  Uiso   1.00
C140   C     0.94975   0.78366   0.09462   0.00000  Uiso   1.00
C141   C     0.84459   0.80636   0.02999   0.00000  Uiso   1.00
C142   C     0.74960   0.84220   0.01668   0.00000  Uiso   1.00
C143   C     0.56989   0.90255   0.96963   0.00000  Uiso   1.00
C144   C     0.07052   0.67922   0.15001   0.00000  Uiso   1.00
C145   C     0.06692   0.61410   0.13194   0.00000  Uiso   1.00
C146   C     0.07362   0.56202   0.16527   0.00000  Uiso   1.00
C147   C     0.08151   0.46023   0.20425   0.00000  Uiso   1.00
C148   C     0.18575   0.78368   0.17810   0.00000  Uiso   1.00
C149   C     0.27906   0.80638   0.18368   0.00000  Uiso   1.00
C150   C     0.38280   0.84223   0.24067   0.00000  Uiso   1.00
C151   C     0.56959   0.90263   0.32327   0.00000  Uiso   1.00
C152   C     0.08281   0.76682   0.21135   0.00000  Uiso   1.00
C153   C     0.95970   0.79630   0.14421   0.00000  Uiso   1.00
C154   C     0.86486   0.83212   0.13100   0.00000  Uiso   1.00
C155   C     0.75958   0.85487   0.06636   0.00000  Uiso   1.00
C156   C     0.08047   0.69186   0.19959   0.00000  Uiso   1.00
C157   C     0.08719   0.63987   0.23296   0.00000  Uiso   1.00
C158   C     0.08360   0.57469   0.21495   0.00000  Uiso   1.00
C159   C     0.19570   0.79633   0.22769   0.00000  Uiso   1.00
C160   C     0.29932   0.83215   0.28469   0.00000  Uiso   1.00
C161   C     0.39277   0.85490   0.29035   0.00000  Uiso   1.00
H162   H     0.05674   0.73368   0.08145   0.00000  Uiso   1.00
H163   H     0.83691   0.79655   0.99162   0.00000  Uiso   1.00
H164   H     0.05923   0.60433   0.09357   0.00000  Uiso   1.00
H165   H     0.27132   0.79658   0.14529   0.00000  Uiso   1.00
H166   H     0.59756   0.87181   0.91389   0.00000  Uiso   1.00
H167   H     0.06637   0.46650   0.12888   0.00000  Uiso   1.00
H168   H     0.51362   0.87190   0.23795   0.00000  Uiso   1.00
H169   H     0.09056   0.77667   0.24997   0.00000  Uiso   1.00
H170   H     0.87259   0.84190   0.16938   0.00000  Uiso   1.00
H171   H     0.09490   0.64967   0.27133   0.00000  Uiso   1.00
H172   H     0.30699   0.84192   0.32306   0.00000  Uiso   1.00
H173   H     0.62651   0.90862   0.05817   0.00000  Uiso   1.00
H174   H     0.09532   0.50330   0.27316   0.00000  Uiso   1.00
H175   H     0.54257   0.90870   0.38223   0.00000  Uiso   1.00
O176   O     0.46801   0.93233   0.92998   0.00000  Uiso   1.00
O177   O     0.08310   0.40058   0.21204   0.00000  Uiso   1.00
O178   O     0.66987   0.93245   0.35513   0.00000  Uiso   1.00
N179   N     0.63430   0.87153   0.95891   0.00000  Uiso   1.00
N180   N     0.07259   0.49259   0.15990   0.00000  Uiso   1.00
N181   N     0.49075   0.87159   0.26188   0.00000  Uiso   1.00
N182   N     0.64988   0.89134   0.03655   0.00000  Uiso   1.00
N183   N     0.08817   0.51240   0.23754   0.00000  Uiso   1.00
N184   N     0.50632   0.89139   0.33952   0.00000  Uiso   1.00
C185   C     0.71458   0.58757   0.37872   0.00000  Uiso   1.00
C186   C     0.67281   0.62836   0.40350   0.00000  Uiso   1.00
C187   C     0.75450   0.65199   0.46780   0.00000  Uiso   1.00
C188   C     0.69744   0.68831   0.48052   0.00000  Uiso   1.00
C189   C     0.65296   0.74976   0.52658   0.00000  Uiso   1.00
C190   C     0.63460   0.52300   0.34957   0.00000  Uiso   1.00
C191   C     0.68416   0.45805   0.36854   0.00000  Uiso   1.00
C192   C     0.59493   0.40569   0.33585   0.00000  Uiso   1.00
C193   C     0.49112   0.30357   0.29816   0.00000  Uiso   1.00
C194   C     0.66732   0.62676   0.32020   0.00000  Uiso   1.00
C195   C     0.74439   0.64904   0.31445   0.00000  Uiso   1.00
C196   C     0.68270   0.68402   0.25702   0.00000  Uiso   1.00
C197   C     0.62970   0.74300   0.17372   0.00000  Uiso   1.00
C198   C     0.46798   0.61007   0.28694   0.00000  Uiso   1.00
C199   C     0.53887   0.64057   0.35364   0.00000  Uiso   1.00
C200   C     0.48167   0.67688   0.36626   0.00000  Uiso   1.00
C201   C     0.56326   0.70056   0.43057   0.00000  Uiso   1.00
C202   C     0.50066   0.53522   0.29973   0.00000  Uiso   1.00
C203   C     0.41133   0.48294   0.26700   0.00000  Uiso   1.00
C204   C     0.46074   0.41793   0.28591   0.00000  Uiso   1.00
C205   C     0.53338   0.63898   0.27035   0.00000  Uiso   1.00
C206   C     0.47156   0.67393   0.21291   0.00000  Uiso   1.00
C207   C     0.54852   0.69626   0.20708   0.00000  Uiso   1.00
H208   H     0.81885   0.57805   0.41753   0.00000  Uiso   1.00
H209   H     0.85815   0.64252   0.50637   0.00000  Uiso   1.00
H210   H     0.78782   0.44861   0.40711   0.00000  Uiso   1.00
H211   H     0.84804   0.63957   0.35304   0.00000  Uiso   1.00
H212   H     0.84265   0.71935   0.58289   0.00000  Uiso   1.00
H213   H     0.69434   0.31049   0.37359   0.00000  Uiso   1.00
H214   H     0.82133   0.71317   0.25955   0.00000  Uiso   1.00
H215   H     0.36369   0.61958   0.24813   0.00000  Uiso   1.00
H216   H     0.37801   0.68632   0.32767   0.00000  Uiso   1.00
H217   H     0.30768   0.49242   0.22842   0.00000  Uiso   1.00
H218   H     0.36790   0.68338   0.17434   0.00000  Uiso   1.00
H219   H     0.45295   0.75491   0.43785   0.00000  Uiso   1.00
H220   H     0.30465   0.34604   0.22855   0.00000  Uiso   1.00
H221   H     0.43164   0.74872   0.11451   0.00000  Uiso   1.00
O222   O     0.66543   0.78027   0.56576   0.00000  Uiso   1.00
O223   O     0.47086   0.24386   0.29116   0.00000  Uiso   1.00
O224   O     0.63747   0.77216   0.14155   0.00000  Uiso   1.00
N225   N     0.74897   0.71857   0.53783   0.00000  Uiso   1.00
N226   N     0.61032   0.33631   0.34216   0.00000  Uiso   1.00
N227   N     0.72904   0.71276   0.23553   0.00000  Uiso   1.00
N228   N     0.53928   0.73770   0.45979   0.00000  Uiso   1.00
N229   N     0.40062   0.35544   0.26411   0.00000  Uiso   1.00
N230   N     0.51934   0.73190   0.15749   0.00000  Uiso   1.00
C231   C     0.43551   0.24353   0.87995   0.00000  Uiso   1.00
C232   C     0.55025   0.28366   0.90538   0.00000  Uiso   1.00
C233   C     0.65541   0.30636   0.97001   0.00000  Uiso   1.00
C234   C     0.75040   0.34220   0.98332   0.00000  Uiso   1.00
C235   C     0.93011   0.40255   0.03037   0.00000  Uiso   1.00
C236   C     0.42948   0.17922   0.84999   0.00000  Uiso   1.00
C237   C     0.43308   0.11410   0.86806   0.00000  Uiso   1.00
C238   C     0.42638   0.06202   0.83473   0.00000  Uiso   1.00
C239   C     0.41849   0.96023   0.79575   0.00000  Uiso   1.00
C240   C     0.31425   0.28368   0.82190   0.00000  Uiso   1.00
C241   C     0.22094   0.30638   0.81632   0.00000  Uiso   1.00
C242   C     0.11720   0.34223   0.75933   0.00000  Uiso   1.00
C243   C     0.93041   0.40263   0.67673   0.00000  Uiso   1.00
C244   C     0.41719   0.26682   0.78865   0.00000  Uiso   1.00
C245   C     0.54030   0.29630   0.85579   0.00000  Uiso   1.00
C246   C     0.63514   0.33212   0.86900   0.00000  Uiso   1.00
C247   C     0.74042   0.35487   0.93364   0.00000  Uiso   1.00
C248   C     0.41953   0.19186   0.80041   0.00000  Uiso   1.00
C249   C     0.41281   0.13987   0.76704   0.00000  Uiso   1.00
C250   C     0.41640   0.07469   0.78505   0.00000  Uiso   1.00
C251   C     0.30430   0.29633   0.77231   0.00000  Uiso   1.00
C252   C     0.20068   0.33215   0.71531   0.00000  Uiso   1.00
C253   C     0.10723   0.35490   0.70965   0.00000  Uiso   1.00
H254   H     0.44326   0.23368   0.91855   0.00000  Uiso   1.00
H255   H     0.66309   0.29655   0.00838   0.00000  Uiso   1.00
H256   H     0.44077   0.10433   0.90643   0.00000  Uiso   1.00
H257   H     0.22868   0.29658   0.85471   0.00000  Uiso   1.00
H258   H     0.90244   0.37181   0.08611   0.00000  Uiso   1.00
H259   H     0.43363   0.96650   0.87112   0.00000  Uiso   1.00
H260   H     0.98638   0.37190   0.76205   0.00000  Uiso   1.00
H261   H     0.40944   0.27667   0.75003   0.00000  Uiso   1.00
H262   H     0.62741   0.34190   0.83062   0.00000  Uiso   1.00
H263   H     0.40510   0.14967   0.72867   0.00000  Uiso   1.00
H264   H     0.19301   0.34192   0.67694   0.00000  Uiso   1.00
H265   H     0.87349   0.40862   0.94183   0.00000  Uiso   1.00
H266   H     0.40468   0.00330   0.72684   0.00000  Uiso   1.00
H267   H     0.95743   0.40870   0.61777   0.00000  Uiso   1.00
O268   O     0.03199   0.43233   0.07002   0.00000  Uiso   1.00
O269   O     0.41690   0.90058   0.78796   0.00000  Uiso   1.00
O270   O     0.83013   0.43245   0.64487   0.00000  Uiso   1.00
N271   N     0.86570   0.37153   0.04109   0.00000  Uiso   1.00
N272   N     0.42741   0.99259   0.84010   0.00000  Uiso   1.00
N273   N     0.00925   0.37159   0.73812   0.00000  Uiso   1.00
N274   N     0.85012   0.39134   0.96345   0.00000  Uiso   1.00
N275   N     0.41183   0.01240   0.76246   0.00000  Uiso   1.00
N276   N     0.99368   0.39139   0.66048   0.00000  Uiso   1.00
C277   C     0.21458   0.08757   0.37872   0.00000  Uiso   1.00
C278   C     0.17281   0.12836   0.40350   0.00000  Uiso   1.00
C279   C     0.25450   0.15199   0.46780   0.00000  Uiso   1.00
C280   C     0.19744   0.18831   0.48052   0.00000  Uiso   1.00
C281   C     0.15296   0.24976   0.52658   0.00000  Uiso   1.00
C282   C     0.13460   0.02300   0.34957   0.00000  Uiso   1.00
C283   C     0.18416   0.95805   0.36854   0.00000  Uiso   1.00
C284   C     0.09493   0.90569   0.33585   0.00000  Uiso   1.00
C285   C     0.99112   0.80357   0.29816   0.00000  Uiso   1.00
C286   C     0.16732   0.12676   0.32020   0.00000  Uiso   1.00
C287   C     0.24439   0.14904   0.31445   0.00000  Uiso   1.00
C288   C     0.18270   0.18402   0.25702   0.00000  Uiso   1.00
C289   C     0.12970   0.24300   0.17372   0.00000  Uiso   1.00
C290   C     0.96798   0.11007   0.28694   0.00000  Uiso   1.00
C291   C     0.03887   0.14057   0.35364   0.00000  Uiso   1.00
C292   C     0.98167   0.17688   0.36626   0.00000  Uiso   1.00
C293   C     0.06326   0.20056   0.43057   0.00000  Uiso   1.00
C294   C     0.00066   0.03522   0.29973   0.00000  Uiso   1.00
C295   C     0.91133   0.98294   0.26700   0.00000  Uiso   1.00
C296   C     0.96074   0.91793   0.28591   0.00000  Uiso   1.00
C297   C     0.03338   0.13898   0.27035   0.00000  Uiso   1.00
C298   C     0.97156   0.17393   0.21291   0.00000  Uiso   1.00
C299   C     0.04852   0.19626   0.20708   0.00000  Uiso   1.00
H300   H     0.31885   0.07805   0.41753   0.00000  Uiso   1.00
H301   H     0.35815   0.14252   0.50637   0.00000  Uiso   1.00
H302   H     0.28782   0.94861   0.40711   0.00000  Uiso   1.00
H303   H     0.34804   0.13957   0.35304   0.00000  Uiso   1.00
H304   H     0.34265   0.21935   0.58289   0.00000  Uiso   1.00
H305   H     0.19434   0.81049   0.37359   0.00000  Uiso   1.00
H306   H     0.32133   0.21317   0.25955   0.00000  Uiso   1.00
H307   H     0.86369   0.11958   0.24813   0.00000  Uiso   1.00
H308   H     0.87801   0.18632   0.32767   0.00000  Uiso   1.00
H309   H     0.80768   0.99242   0.22842   0.00000  Uiso   1.00
H310   H     0.86790   0.18338   0.17434   0.00000  Uiso   1.00
H311   H     0.95295   0.25491   0.43785   0.00000  Uiso   1.00
H312   H     0.80465   0.84604   0.22855   0.00000  Uiso   1.00
H313   H     0.93164   0.24872   0.11451   0.00000  Uiso   1.00
O314   O     0.16543   0.28027   0.56576   0.00000  Uiso   1.00
O315   O     0.97086   0.74386   0.29116   0.00000  Uiso   1.00
O316   O     0.13747   0.27216   0.14155   0.00000  Uiso   1.00
N317   N     0.24897   0.21857   0.53783   0.00000  Uiso   1.00
N318   N     0.11032   0.83631   0.34216   0.00000  Uiso   1.00
N319   N     0.22904   0.21276   0.23553   0.00000  Uiso   1.00
N320   N     0.03928   0.23770   0.45979   0.00000  Uiso   1.00
N321   N     0.90062   0.85544   0.26411   0.00000  Uiso   1.00
N322   N     0.01934   0.23190   0.15749   0.00000  Uiso   1.00
C323   C     0.93551   0.74353   0.87995   0.00000  Uiso   1.00
C324   C     0.05025   0.78366   0.90538   0.00000  Uiso   1.00
C325   C     0.15541   0.80636   0.97001   0.00000  Uiso   1.00
C326   C     0.25040   0.84220   0.98332   0.00000  Uiso   1.00
C327   C     0.43011   0.90255   0.03037   0.00000  Uiso   1.00
C328   C     0.92948   0.67922   0.84999   0.00000  Uiso   1.00
C329   C     0.93308   0.61410   0.86806   0.00000  Uiso   1.00
C330   C     0.92638   0.56202   0.83473   0.00000  Uiso   1.00
C331   C     0.91849   0.46023   0.79575   0.00000  Uiso   1.00
C332   C     0.81425   0.78368   0.82190   0.00000  Uiso   1.00
C333   C     0.72094   0.80638   0.81632   0.00000  Uiso   1.00
C334   C     0.61720   0.84223   0.75933   0.00000  Uiso   1.00
C335   C     0.43041   0.90263   0.67673   0.00000  Uiso   1.00
C336   C     0.91719   0.76682   0.78865   0.00000  Uiso   1.00
C337   C     0.04030   0.79630   0.85579   0.00000  Uiso   1.00
C338   C     0.13514   0.83212   0.86900   0.00000  Uiso   1.00
C339   C     0.24042   0.85487   0.93364   0.00000  Uiso   1.00
C340   C     0.91953   0.69186   0.80041   0.00000  Uiso   1.00
C341   C     0.91281   0.63987   0.76704   0.00000  Uiso   1.00
C342   C     0.91640   0.57469   0.78505   0.00000  Uiso   1.00
C343   C     0.80430   0.79633   0.77231   0.00000  Uiso   1.00
C344   C     0.70068   0.83215   0.71531   0.00000  Uiso   1.00
C345   C     0.60723   0.85490   0.70965   0.00000  Uiso   1.00
H346   H     0.94326   0.73368   0.91855   0.00000  Uiso   1.00
H347   H     0.16309   0.79655   0.00838   0.00000  Uiso   1.00
H348   H     0.94077   0.60433   0.90643   0.00000  Uiso   1.00
H349   H     0.72868   0.79658   0.85471   0.00000  Uiso   1.00
H350   H     0.40244   0.87181   0.08611   0.00000  Uiso   1.00
H351   H     0.93363   0.46650   0.87112   0.00000  Uiso   1.00
H352   H     0.48638   0.87190   0.76205   0.00000  Uiso   1.00
H353   H     0.90944   0.77667   0.75003   0.00000  Uiso   1.00
H354   H     0.12741   0.84190   0.83062   0.00000  Uiso   1.00
H355   H     0.90510   0.64967   0.72867   0.00000  Uiso   1.00
H356   H     0.69301   0.84192   0.67694   0.00000  Uiso   1.00
H357   H     0.37349   0.90862   0.94183   0.00000  Uiso   1.00
H358   H     0.90468   0.50330   0.72684   0.00000  Uiso   1.00
H359   H     0.45743   0.90870   0.61777   0.00000  Uiso   1.00
O360   O     0.53199   0.93233   0.07002   0.00000  Uiso   1.00
O361   O     0.91690   0.40058   0.78796   0.00000  Uiso   1.00
O362   O     0.33013   0.93245   0.64487   0.00000  Uiso   1.00
N363   N     0.36570   0.87153   0.04109   0.00000  Uiso   1.00
N364   N     0.92741   0.49259   0.84010   0.00000  Uiso   1.00
N365   N     0.50925   0.87159   0.73812   0.00000  Uiso   1.00
N366   N     0.35012   0.89134   0.96345   0.00000  Uiso   1.00
N367   N     0.91183   0.51240   0.76246   0.00000  Uiso   1.00
N368   N     0.49368   0.89139   0.66048   0.00000  Uiso   1.00
