data_job_03965
_audit_creation_date              2018-12-19
_audit_creation_method            'Materials Studio'
_symmetry_space_group_name_H-M    'P1'
_symmetry_Int_Tables_number       1
_symmetry_cell_setting            triclinic
loop_
_symmetry_equiv_pos_as_xyz
  x,y,z
_cell_length_a                    9.3482
_cell_length_b                    16.0706
_cell_length_c                    23.7611
_cell_angle_alpha                 90.0000
_cell_angle_beta                  125.0934
_cell_angle_gamma                 90.0000
loop_
_atom_site_label
_atom_site_type_symbol
_atom_site_fract_x
_atom_site_fract_y
_atom_site_fract_z
_atom_site_U_iso_or_equiv
_atom_site_adp_type
_atom_site_occupancy
C1     C     0.16015   0.02206   0.74205   0.00000  Uiso   1.00
C2     C     0.14155   0.10227   0.70409   0.00000  Uiso   1.00
C3     C     0.15775   0.10945   0.64978   0.00000  Uiso   1.00
C4     C     0.13616   0.18828   0.62203   0.00000  Uiso   1.00
C5     C     0.11291   0.30233   0.55919   0.00000  Uiso   1.00
C6     C     0.30248   0.03858   0.81778   0.00000  Uiso   1.00
C7     C     0.45398   0.99220   0.85906   0.00000  Uiso   1.00
C8     C     0.56784   0.01741   0.92701   0.00000  Uiso   1.00
C9     C     0.79437   0.03253   0.04069   0.00000  Uiso   1.00
C10    C     0.99041   0.01252   0.73669   0.00000  Uiso   1.00
C11    C     0.87954   0.94421   0.70982   0.00000  Uiso   1.00
C12    C     0.73067   0.94747   0.70952   0.00000  Uiso   1.00
C13    C     0.47268   0.92212   0.69731   0.00000  Uiso   1.00
C14    C     0.09298   0.14929   0.78932   0.00000  Uiso   1.00
C15    C     0.10507   0.17138   0.72977   0.00000  Uiso   1.00
C16    C     0.08343   0.25022   0.70208   0.00000  Uiso   1.00
C17    C     0.09960   0.25752   0.64774   0.00000  Uiso   1.00
C18    C     0.26600   0.10768   0.84345   0.00000  Uiso   1.00
C19    C     0.37965   0.13296   0.91135   0.00000  Uiso   1.00
C20    C     0.53129   0.08664   0.95273   0.00000  Uiso   1.00
C21    C     0.95392   0.08162   0.76237   0.00000  Uiso   1.00
C22    C     0.80521   0.08498   0.76212   0.00000  Uiso   1.00
C23    C     0.69412   0.01670   0.73524   0.00000  Uiso   1.00
H24    H     0.18857   0.96825   0.72207   0.00000  Uiso   1.00
H25    H     0.18601   0.05596   0.62993   0.00000  Uiso   1.00
H26    H     0.48217   0.93871   0.83918   0.00000  Uiso   1.00
H27    H     0.90781   0.89074   0.68996   0.00000  Uiso   1.00
H28    H     0.16714   0.18367   0.53912   0.00000  Uiso   1.00
H29    H     0.79158   0.93645   0.98033   0.00000  Uiso   1.00
H30    H     0.58045   0.83528   0.66568   0.00000  Uiso   1.00
H31    H     0.06457   0.20310   0.80931   0.00000  Uiso   1.00
H32    H     0.05520   0.30369   0.72196   0.00000  Uiso   1.00
H33    H     0.35137   0.18645   0.93121   0.00000  Uiso   1.00
H34    H     0.77702   0.13847   0.78199   0.00000  Uiso   1.00
H35    H     0.06098   0.38474   0.61382   0.00000  Uiso   1.00
H36    H     0.68543   0.13751   0.05503   0.00000  Uiso   1.00
H37    H     0.47429   0.03635   0.74037   0.00000  Uiso   1.00
O38    O     0.11019   0.34615   0.51745   0.00000  Uiso   1.00
O39    O     0.92942   0.02178   0.09629   0.00000  Uiso   1.00
O40    O     0.34044   0.88906   0.68348   0.00000  Uiso   1.00
N41    N     0.14341   0.21719   0.56868   0.00000  Uiso   1.00
N42    N     0.72724   0.98605   0.98118   0.00000  Uiso   1.00
N43    N     0.59495   0.89146   0.68702   0.00000  Uiso   1.00
N44    N     0.08628   0.32538   0.60887   0.00000  Uiso   1.00
N45    N     0.67011   0.09424   0.02137   0.00000  Uiso   1.00
N46    N     0.53783   0.99965   0.72722   0.00000  Uiso   1.00
C47    C     0.83985   0.52206   0.75795   0.00000  Uiso   1.00
C48    C     0.85845   0.60227   0.79591   0.00000  Uiso   1.00
C49    C     0.84225   0.60945   0.85022   0.00000  Uiso   1.00
C50    C     0.86384   0.68828   0.87797   0.00000  Uiso   1.00
C51    C     0.88709   0.80233   0.94081   0.00000  Uiso   1.00
C52    C     0.69752   0.53858   0.68222   0.00000  Uiso   1.00
C53    C     0.54602   0.49220   0.64094   0.00000  Uiso   1.00
C54    C     0.43216   0.51741   0.57299   0.00000  Uiso   1.00
C55    C     0.20563   0.53253   0.45931   0.00000  Uiso   1.00
C56    C     0.00959   0.51252   0.76331   0.00000  Uiso   1.00
C57    C     0.12046   0.44421   0.79018   0.00000  Uiso   1.00
C58    C     0.26933   0.44747   0.79048   0.00000  Uiso   1.00
C59    C     0.52732   0.42212   0.80269   0.00000  Uiso   1.00
C60    C     0.90702   0.64929   0.71068   0.00000  Uiso   1.00
C61    C     0.89493   0.67138   0.77023   0.00000  Uiso   1.00
C62    C     0.91657   0.75022   0.79792   0.00000  Uiso   1.00
C63    C     0.90040   0.75752   0.85226   0.00000  Uiso   1.00
C64    C     0.73400   0.60768   0.65655   0.00000  Uiso   1.00
C65    C     0.62035   0.63296   0.58865   0.00000  Uiso   1.00
C66    C     0.46871   0.58664   0.54727   0.00000  Uiso   1.00
C67    C     0.04608   0.58162   0.73763   0.00000  Uiso   1.00
C68    C     0.19479   0.58498   0.73788   0.00000  Uiso   1.00
C69    C     0.30588   0.51670   0.76476   0.00000  Uiso   1.00
H70    H     0.81143   0.46825   0.77793   0.00000  Uiso   1.00
H71    H     0.81399   0.55596   0.87007   0.00000  Uiso   1.00
H72    H     0.51783   0.43871   0.66082   0.00000  Uiso   1.00
H73    H     0.09219   0.39074   0.81004   0.00000  Uiso   1.00
H74    H     0.83286   0.68367   0.96088   0.00000  Uiso   1.00
H75    H     0.20842   0.43645   0.51967   0.00000  Uiso   1.00
H76    H     0.41955   0.33528   0.83432   0.00000  Uiso   1.00
H77    H     0.93543   0.70310   0.69069   0.00000  Uiso   1.00
H78    H     0.94480   0.80369   0.77804   0.00000  Uiso   1.00
H79    H     0.64863   0.68645   0.56879   0.00000  Uiso   1.00
H80    H     0.22298   0.63847   0.71801   0.00000  Uiso   1.00
H81    H     0.93902   0.88474   0.88618   0.00000  Uiso   1.00
H82    H     0.31457   0.63751   0.44497   0.00000  Uiso   1.00
H83    H     0.52571   0.53635   0.75963   0.00000  Uiso   1.00
O84    O     0.88981   0.84615   0.98255   0.00000  Uiso   1.00
O85    O     0.07058   0.52178   0.40371   0.00000  Uiso   1.00
O86    O     0.65956   0.38906   0.81652   0.00000  Uiso   1.00
N87    N     0.85659   0.71719   0.93132   0.00000  Uiso   1.00
N88    N     0.27276   0.48605   0.51882   0.00000  Uiso   1.00
N89    N     0.40505   0.39146   0.81298   0.00000  Uiso   1.00
N90    N     0.91372   0.82538   0.89113   0.00000  Uiso   1.00
N91    N     0.32989   0.59424   0.47863   0.00000  Uiso   1.00
N92    N     0.46217   0.49965   0.77278   0.00000  Uiso   1.00
C93    C     0.83985   0.97794   0.25795   0.00000  Uiso   1.00
C94    C     0.85845   0.89773   0.29591   0.00000  Uiso   1.00
C95    C     0.84225   0.89055   0.35022   0.00000  Uiso   1.00
C96    C     0.86384   0.81172   0.37797   0.00000  Uiso   1.00
C97    C     0.88709   0.69767   0.44081   0.00000  Uiso   1.00
C98    C     0.69752   0.96142   0.18222   0.00000  Uiso   1.00
C99    C     0.54602   0.00780   0.14094   0.00000  Uiso   1.00
C100   C     0.43216   0.98259   0.07299   0.00000  Uiso   1.00
C101   C     0.20563   0.96747   0.95931   0.00000  Uiso   1.00
C102   C     0.00959   0.98748   0.26331   0.00000  Uiso   1.00
C103   C     0.12046   0.05579   0.29018   0.00000  Uiso   1.00
C104   C     0.26933   0.05253   0.29048   0.00000  Uiso   1.00
C105   C     0.52732   0.07788   0.30269   0.00000  Uiso   1.00
C106   C     0.90702   0.85071   0.21068   0.00000  Uiso   1.00
C107   C     0.89493   0.82862   0.27023   0.00000  Uiso   1.00
C108   C     0.91657   0.74978   0.29792   0.00000  Uiso   1.00
C109   C     0.90040   0.74248   0.35226   0.00000  Uiso   1.00
C110   C     0.73400   0.89232   0.15655   0.00000  Uiso   1.00
C111   C     0.62035   0.86704   0.08865   0.00000  Uiso   1.00
C112   C     0.46871   0.91336   0.04727   0.00000  Uiso   1.00
C113   C     0.04608   0.91838   0.23763   0.00000  Uiso   1.00
C114   C     0.19479   0.91502   0.23788   0.00000  Uiso   1.00
C115   C     0.30588   0.98330   0.26476   0.00000  Uiso   1.00
H116   H     0.81143   0.03175   0.27793   0.00000  Uiso   1.00
H117   H     0.81399   0.94404   0.37007   0.00000  Uiso   1.00
H118   H     0.51783   0.06129   0.16082   0.00000  Uiso   1.00
H119   H     0.09219   0.10926   0.31004   0.00000  Uiso   1.00
H120   H     0.83286   0.81633   0.46088   0.00000  Uiso   1.00
H121   H     0.20842   0.06355   0.01967   0.00000  Uiso   1.00
H122   H     0.41955   0.16472   0.33432   0.00000  Uiso   1.00
H123   H     0.93543   0.79690   0.19069   0.00000  Uiso   1.00
H124   H     0.94480   0.69631   0.27804   0.00000  Uiso   1.00
H125   H     0.64863   0.81355   0.06879   0.00000  Uiso   1.00
H126   H     0.22298   0.86153   0.21801   0.00000  Uiso   1.00
H127   H     0.93902   0.61526   0.38618   0.00000  Uiso   1.00
H128   H     0.31457   0.86249   0.94497   0.00000  Uiso   1.00
H129   H     0.52571   0.96365   0.25963   0.00000  Uiso   1.00
O130   O     0.88981   0.65385   0.48255   0.00000  Uiso   1.00
O131   O     0.07058   0.97822   0.90371   0.00000  Uiso   1.00
O132   O     0.65956   0.11094   0.31652   0.00000  Uiso   1.00
N133   N     0.85659   0.78281   0.43132   0.00000  Uiso   1.00
N134   N     0.27276   0.01395   0.01882   0.00000  Uiso   1.00
N135   N     0.40505   0.10854   0.31298   0.00000  Uiso   1.00
N136   N     0.91372   0.67462   0.39113   0.00000  Uiso   1.00
N137   N     0.32989   0.90576   0.97863   0.00000  Uiso   1.00
N138   N     0.46217   0.00035   0.27278   0.00000  Uiso   1.00
C139   C     0.16015   0.47794   0.24205   0.00000  Uiso   1.00
C140   C     0.14155   0.39773   0.20409   0.00000  Uiso   1.00
C141   C     0.15775   0.39055   0.14978   0.00000  Uiso   1.00
C142   C     0.13616   0.31172   0.12203   0.00000  Uiso   1.00
C143   C     0.11291   0.19767   0.05919   0.00000  Uiso   1.00
C144   C     0.30248   0.46142   0.31778   0.00000  Uiso   1.00
C145   C     0.45398   0.50780   0.35906   0.00000  Uiso   1.00
C146   C     0.56784   0.48259   0.42701   0.00000  Uiso   1.00
C147   C     0.79437   0.46747   0.54069   0.00000  Uiso   1.00
C148   C     0.99041   0.48748   0.23669   0.00000  Uiso   1.00
C149   C     0.87954   0.55579   0.20982   0.00000  Uiso   1.00
C150   C     0.73067   0.55253   0.20952   0.00000  Uiso   1.00
C151   C     0.47268   0.57788   0.19731   0.00000  Uiso   1.00
C152   C     0.09298   0.35071   0.28932   0.00000  Uiso   1.00
C153   C     0.10507   0.32862   0.22977   0.00000  Uiso   1.00
C154   C     0.08343   0.24978   0.20208   0.00000  Uiso   1.00
C155   C     0.09960   0.24248   0.14774   0.00000  Uiso   1.00
C156   C     0.26600   0.39232   0.34345   0.00000  Uiso   1.00
C157   C     0.37965   0.36704   0.41135   0.00000  Uiso   1.00
C158   C     0.53129   0.41336   0.45273   0.00000  Uiso   1.00
C159   C     0.95392   0.41838   0.26237   0.00000  Uiso   1.00
C160   C     0.80521   0.41502   0.26212   0.00000  Uiso   1.00
C161   C     0.69412   0.48330   0.23524   0.00000  Uiso   1.00
H162   H     0.18857   0.53175   0.22207   0.00000  Uiso   1.00
H163   H     0.18601   0.44404   0.12993   0.00000  Uiso   1.00
H164   H     0.48217   0.56129   0.33918   0.00000  Uiso   1.00
H165   H     0.90781   0.60926   0.18996   0.00000  Uiso   1.00
H166   H     0.16714   0.31633   0.03912   0.00000  Uiso   1.00
H167   H     0.79158   0.56355   0.48033   0.00000  Uiso   1.00
H168   H     0.58045   0.66472   0.16568   0.00000  Uiso   1.00
H169   H     0.06457   0.29690   0.30931   0.00000  Uiso   1.00
H170   H     0.05520   0.19631   0.22196   0.00000  Uiso   1.00
H171   H     0.35137   0.31355   0.43121   0.00000  Uiso   1.00
H172   H     0.77702   0.36153   0.28199   0.00000  Uiso   1.00
H173   H     0.06098   0.11526   0.11382   0.00000  Uiso   1.00
H174   H     0.68543   0.36249   0.55503   0.00000  Uiso   1.00
H175   H     0.47429   0.46365   0.24037   0.00000  Uiso   1.00
O176   O     0.11019   0.15385   0.01745   0.00000  Uiso   1.00
O177   O     0.92942   0.47822   0.59629   0.00000  Uiso   1.00
O178   O     0.34044   0.61094   0.18348   0.00000  Uiso   1.00
N179   N     0.14341   0.28281   0.06868   0.00000  Uiso   1.00
N180   N     0.72724   0.51395   0.48118   0.00000  Uiso   1.00
N181   N     0.59495   0.60854   0.18702   0.00000  Uiso   1.00
N182   N     0.08628   0.17462   0.10887   0.00000  Uiso   1.00
N183   N     0.67011   0.40576   0.52137   0.00000  Uiso   1.00
N184   N     0.53783   0.50035   0.22722   0.00000  Uiso   1.00
