data_job_01055
_audit_creation_date              2018-12-19
_audit_creation_method            'Materials Studio'
_symmetry_space_group_name_H-M    'P1'
_symmetry_Int_Tables_number       1
_symmetry_cell_setting            triclinic
loop_
_symmetry_equiv_pos_as_xyz
  x,y,z
_cell_length_a                    20.9280
_cell_length_b                    20.9280
_cell_length_c                    10.7715
_cell_angle_alpha                 90.0000
_cell_angle_beta                  90.0000
_cell_angle_gamma                 90.0000
loop_
_atom_site_label
_atom_site_type_symbol
_atom_site_fract_x
_atom_site_fract_y
_atom_site_fract_z
_atom_site_U_iso_or_equiv
_atom_site_adp_type
_atom_site_occupancy
C1     C     0.15244   0.76661   0.41075   0.00000  Uiso   1.00
C2     C     0.09104   0.73755   0.46198   0.00000  Uiso   1.00
C3     C     0.08198   0.71585   0.58243   0.00000  Uiso   1.00
C4     C     0.02232   0.69086   0.61105   0.00000  Uiso   1.00
C5     C     0.93441   0.64618   0.70407   0.00000  Uiso   1.00
C6     C     0.17060   0.72622   0.29834   0.00000  Uiso   1.00
C7     C     0.22843   0.69498   0.28120   0.00000  Uiso   1.00
C8     C     0.23574   0.66046   0.17205   0.00000  Uiso   1.00
C9     C     0.27137   0.59822   0.01097   0.00000  Uiso   1.00
C10    C     0.13411   0.83211   0.35997   0.00000  Uiso   1.00
C11    C     0.16128   0.88992   0.39463   0.00000  Uiso   1.00
C12    C     0.13788   0.94455   0.33734   0.00000  Uiso   1.00
C13    C     0.11685   0.04673   0.27197   0.00000  Uiso   1.00
C14    C     0.06259   0.76085   0.24736   0.00000  Uiso   1.00
C15    C     0.04224   0.73442   0.37323   0.00000  Uiso   1.00
C16    C     0.98257   0.70946   0.40167   0.00000  Uiso   1.00
C17    C     0.97342   0.68772   0.52215   0.00000  Uiso   1.00
C18    C     0.12180   0.72308   0.20959   0.00000  Uiso   1.00
C19    C     0.12903   0.68860   0.10043   0.00000  Uiso   1.00
C20    C     0.18685   0.65732   0.08314   0.00000  Uiso   1.00
C21    C     0.08531   0.82898   0.27122   0.00000  Uiso   1.00
C22    C     0.06187   0.88353   0.21387   0.00000  Uiso   1.00
C23    C     0.08899   0.94141   0.24844   0.00000  Uiso   1.00
H24    H     0.19044   0.76905   0.47984   0.00000  Uiso   1.00
H25    H     0.11976   0.71827   0.65109   0.00000  Uiso   1.00
H26    H     0.26619   0.69742   0.34989   0.00000  Uiso   1.00
H27    H     0.19904   0.89232   0.46331   0.00000  Uiso   1.00
H28    H     0.01989   0.66057   0.80179   0.00000  Uiso   1.00
H29    H     0.32865   0.61662   0.16669   0.00000  Uiso   1.00
H30    H     0.18706   0.02761   0.40585   0.00000  Uiso   1.00
H31    H     0.02460   0.75841   0.17827   0.00000  Uiso   1.00
H32    H     0.94482   0.70704   0.33297   0.00000  Uiso   1.00
H33    H     0.09125   0.68619   0.03177   0.00000  Uiso   1.00
H34    H     0.02410   0.88109   0.14519   0.00000  Uiso   1.00
H35    H     0.87790   0.65146   0.54360   0.00000  Uiso   1.00
H36    H     0.18666   0.60751   0.90849   0.00000  Uiso   1.00
H37    H     0.04507   0.01849   0.14765   0.00000  Uiso   1.00
O38    O     0.89941   0.62240   0.77989   0.00000  Uiso   1.00
O39    O     0.30450   0.56475   0.94665   0.00000  Uiso   1.00
O40    O     0.11873   0.10395   0.26043   0.00000  Uiso   1.00
N41    N     0.99742   0.66549   0.71980   0.00000  Uiso   1.00
N42    N     0.28609   0.62439   0.12603   0.00000  Uiso   1.00
N43    N     0.15372   0.00863   0.34960   0.00000  Uiso   1.00
N44    N     0.92101   0.66058   0.58087   0.00000  Uiso   1.00
N45    N     0.20968   0.61949   0.98710   0.00000  Uiso   1.00
N46    N     0.07732   0.00372   0.21067   0.00000  Uiso   1.00
C47    C     0.84756   0.23339   0.41075   0.00000  Uiso   1.00
C48    C     0.90896   0.26245   0.46198   0.00000  Uiso   1.00
C49    C     0.91802   0.28415   0.58243   0.00000  Uiso   1.00
C50    C     0.97768   0.30914   0.61105   0.00000  Uiso   1.00
C51    C     0.06559   0.35382   0.70407   0.00000  Uiso   1.00
C52    C     0.82940   0.27378   0.29834   0.00000  Uiso   1.00
C53    C     0.77157   0.30502   0.28120   0.00000  Uiso   1.00
C54    C     0.76426   0.33954   0.17205   0.00000  Uiso   1.00
C55    C     0.72863   0.40178   0.01097   0.00000  Uiso   1.00
C56    C     0.86589   0.16789   0.35997   0.00000  Uiso   1.00
C57    C     0.83872   0.11008   0.39463   0.00000  Uiso   1.00
C58    C     0.86212   0.05545   0.33734   0.00000  Uiso   1.00
C59    C     0.88315   0.95327   0.27197   0.00000  Uiso   1.00
C60    C     0.93741   0.23915   0.24736   0.00000  Uiso   1.00
C61    C     0.95776   0.26558   0.37323   0.00000  Uiso   1.00
C62    C     0.01743   0.29054   0.40167   0.00000  Uiso   1.00
C63    C     0.02658   0.31228   0.52215   0.00000  Uiso   1.00
C64    C     0.87820   0.27692   0.20959   0.00000  Uiso   1.00
C65    C     0.87097   0.31140   0.10043   0.00000  Uiso   1.00
C66    C     0.81315   0.34268   0.08314   0.00000  Uiso   1.00
C67    C     0.91469   0.17102   0.27122   0.00000  Uiso   1.00
C68    C     0.93813   0.11647   0.21387   0.00000  Uiso   1.00
C69    C     0.91101   0.05859   0.24844   0.00000  Uiso   1.00
H70    H     0.80956   0.23095   0.47984   0.00000  Uiso   1.00
H71    H     0.88024   0.28173   0.65109   0.00000  Uiso   1.00
H72    H     0.73381   0.30258   0.34989   0.00000  Uiso   1.00
H73    H     0.80096   0.10768   0.46331   0.00000  Uiso   1.00
H74    H     0.98011   0.33943   0.80179   0.00000  Uiso   1.00
H75    H     0.67135   0.38338   0.16669   0.00000  Uiso   1.00
H76    H     0.81294   0.97239   0.40585   0.00000  Uiso   1.00
H77    H     0.97540   0.24159   0.17827   0.00000  Uiso   1.00
H78    H     0.05518   0.29296   0.33297   0.00000  Uiso   1.00
H79    H     0.90875   0.31381   0.03177   0.00000  Uiso   1.00
H80    H     0.97590   0.11891   0.14519   0.00000  Uiso   1.00
H81    H     0.12210   0.34854   0.54360   0.00000  Uiso   1.00
H82    H     0.81334   0.39249   0.90849   0.00000  Uiso   1.00
H83    H     0.95493   0.98151   0.14765   0.00000  Uiso   1.00
O84    O     0.10059   0.37760   0.77989   0.00000  Uiso   1.00
O85    O     0.69550   0.43525   0.94665   0.00000  Uiso   1.00
O86    O     0.88127   0.89605   0.26043   0.00000  Uiso   1.00
N87    N     0.00258   0.33451   0.71980   0.00000  Uiso   1.00
N88    N     0.71391   0.37561   0.12603   0.00000  Uiso   1.00
N89    N     0.84628   0.99137   0.34960   0.00000  Uiso   1.00
N90    N     0.07899   0.33942   0.58087   0.00000  Uiso   1.00
N91    N     0.79032   0.38051   0.98710   0.00000  Uiso   1.00
N92    N     0.92268   0.99628   0.21067   0.00000  Uiso   1.00
C93    C     0.73339   0.65244   0.41075   0.00000  Uiso   1.00
C94    C     0.76245   0.59104   0.46198   0.00000  Uiso   1.00
C95    C     0.78415   0.58198   0.58243   0.00000  Uiso   1.00
C96    C     0.80914   0.52232   0.61105   0.00000  Uiso   1.00
C97    C     0.85382   0.43441   0.70407   0.00000  Uiso   1.00
C98    C     0.77378   0.67060   0.29834   0.00000  Uiso   1.00
C99    C     0.80502   0.72843   0.28120   0.00000  Uiso   1.00
C100   C     0.83954   0.73574   0.17205   0.00000  Uiso   1.00
C101   C     0.90178   0.77137   0.01097   0.00000  Uiso   1.00
C102   C     0.66789   0.63411   0.35997   0.00000  Uiso   1.00
C103   C     0.61008   0.66128   0.39463   0.00000  Uiso   1.00
C104   C     0.55545   0.63788   0.33734   0.00000  Uiso   1.00
C105   C     0.45327   0.61685   0.27197   0.00000  Uiso   1.00
C106   C     0.73915   0.56259   0.24736   0.00000  Uiso   1.00
C107   C     0.76558   0.54224   0.37323   0.00000  Uiso   1.00
C108   C     0.79054   0.48257   0.40167   0.00000  Uiso   1.00
C109   C     0.81228   0.47342   0.52215   0.00000  Uiso   1.00
C110   C     0.77692   0.62180   0.20959   0.00000  Uiso   1.00
C111   C     0.81140   0.62903   0.10043   0.00000  Uiso   1.00
C112   C     0.84268   0.68685   0.08314   0.00000  Uiso   1.00
C113   C     0.67102   0.58531   0.27122   0.00000  Uiso   1.00
C114   C     0.61647   0.56187   0.21387   0.00000  Uiso   1.00
C115   C     0.55859   0.58899   0.24844   0.00000  Uiso   1.00
H116   H     0.73095   0.69044   0.47984   0.00000  Uiso   1.00
H117   H     0.78173   0.61976   0.65109   0.00000  Uiso   1.00
H118   H     0.80258   0.76619   0.34989   0.00000  Uiso   1.00
H119   H     0.60768   0.69904   0.46331   0.00000  Uiso   1.00
H120   H     0.83943   0.51989   0.80179   0.00000  Uiso   1.00
H121   H     0.88338   0.82865   0.16669   0.00000  Uiso   1.00
H122   H     0.47239   0.68706   0.40585   0.00000  Uiso   1.00
H123   H     0.74159   0.52460   0.17827   0.00000  Uiso   1.00
H124   H     0.79296   0.44482   0.33297   0.00000  Uiso   1.00
H125   H     0.81381   0.59125   0.03177   0.00000  Uiso   1.00
H126   H     0.61891   0.52410   0.14519   0.00000  Uiso   1.00
H127   H     0.84854   0.37790   0.54360   0.00000  Uiso   1.00
H128   H     0.89249   0.68666   0.90849   0.00000  Uiso   1.00
H129   H     0.48151   0.54507   0.14765   0.00000  Uiso   1.00
O130   O     0.87760   0.39941   0.77989   0.00000  Uiso   1.00
O131   O     0.93525   0.80450   0.94665   0.00000  Uiso   1.00
O132   O     0.39605   0.61873   0.26043   0.00000  Uiso   1.00
N133   N     0.83451   0.49742   0.71980   0.00000  Uiso   1.00
N134   N     0.87561   0.78609   0.12603   0.00000  Uiso   1.00
N135   N     0.49137   0.65372   0.34960   0.00000  Uiso   1.00
N136   N     0.83942   0.42101   0.58087   0.00000  Uiso   1.00
N137   N     0.88051   0.70968   0.98710   0.00000  Uiso   1.00
N138   N     0.49628   0.57732   0.21067   0.00000  Uiso   1.00
C139   C     0.26661   0.34756   0.41075   0.00000  Uiso   1.00
C140   C     0.23755   0.40896   0.46198   0.00000  Uiso   1.00
C141   C     0.21585   0.41802   0.58243   0.00000  Uiso   1.00
C142   C     0.19086   0.47768   0.61105   0.00000  Uiso   1.00
C143   C     0.14618   0.56559   0.70407   0.00000  Uiso   1.00
C144   C     0.22622   0.32940   0.29834   0.00000  Uiso   1.00
C145   C     0.19498   0.27157   0.28120   0.00000  Uiso   1.00
C146   C     0.16046   0.26426   0.17205   0.00000  Uiso   1.00
C147   C     0.09822   0.22863   0.01097   0.00000  Uiso   1.00
C148   C     0.33211   0.36589   0.35997   0.00000  Uiso   1.00
C149   C     0.38992   0.33872   0.39463   0.00000  Uiso   1.00
C150   C     0.44455   0.36212   0.33734   0.00000  Uiso   1.00
C151   C     0.54673   0.38315   0.27197   0.00000  Uiso   1.00
C152   C     0.26085   0.43741   0.24736   0.00000  Uiso   1.00
C153   C     0.23442   0.45776   0.37323   0.00000  Uiso   1.00
C154   C     0.20946   0.51743   0.40167   0.00000  Uiso   1.00
C155   C     0.18772   0.52658   0.52215   0.00000  Uiso   1.00
C156   C     0.22308   0.37820   0.20959   0.00000  Uiso   1.00
C157   C     0.18860   0.37097   0.10043   0.00000  Uiso   1.00
C158   C     0.15732   0.31315   0.08314   0.00000  Uiso   1.00
C159   C     0.32898   0.41469   0.27122   0.00000  Uiso   1.00
C160   C     0.38353   0.43813   0.21387   0.00000  Uiso   1.00
C161   C     0.44141   0.41101   0.24844   0.00000  Uiso   1.00
H162   H     0.26905   0.30956   0.47984   0.00000  Uiso   1.00
H163   H     0.21827   0.38024   0.65109   0.00000  Uiso   1.00
H164   H     0.19742   0.23381   0.34989   0.00000  Uiso   1.00
H165   H     0.39232   0.30096   0.46331   0.00000  Uiso   1.00
H166   H     0.16057   0.48011   0.80179   0.00000  Uiso   1.00
H167   H     0.11662   0.17135   0.16669   0.00000  Uiso   1.00
H168   H     0.52761   0.31294   0.40585   0.00000  Uiso   1.00
H169   H     0.25841   0.47540   0.17827   0.00000  Uiso   1.00
H170   H     0.20704   0.55518   0.33297   0.00000  Uiso   1.00
H171   H     0.18619   0.40875   0.03177   0.00000  Uiso   1.00
H172   H     0.38109   0.47590   0.14519   0.00000  Uiso   1.00
H173   H     0.15146   0.62210   0.54360   0.00000  Uiso   1.00
H174   H     0.10751   0.31334   0.90849   0.00000  Uiso   1.00
H175   H     0.51849   0.45493   0.14765   0.00000  Uiso   1.00
O176   O     0.12240   0.60059   0.77989   0.00000  Uiso   1.00
O177   O     0.06475   0.19550   0.94665   0.00000  Uiso   1.00
O178   O     0.60395   0.38127   0.26043   0.00000  Uiso   1.00
N179   N     0.16549   0.50258   0.71980   0.00000  Uiso   1.00
N180   N     0.12439   0.21391   0.12603   0.00000  Uiso   1.00
N181   N     0.50863   0.34628   0.34960   0.00000  Uiso   1.00
N182   N     0.16058   0.57899   0.58087   0.00000  Uiso   1.00
N183   N     0.11949   0.29032   0.98710   0.00000  Uiso   1.00
N184   N     0.50372   0.42268   0.21067   0.00000  Uiso   1.00
C185   C     0.34756   0.73339   0.58925   0.00000  Uiso   1.00
C186   C     0.40896   0.76245   0.53802   0.00000  Uiso   1.00
C187   C     0.41802   0.78415   0.41757   0.00000  Uiso   1.00
C188   C     0.47768   0.80914   0.38895   0.00000  Uiso   1.00
C189   C     0.56559   0.85382   0.29593   0.00000  Uiso   1.00
C190   C     0.32940   0.77378   0.70166   0.00000  Uiso   1.00
C191   C     0.27157   0.80502   0.71880   0.00000  Uiso   1.00
C192   C     0.26426   0.83954   0.82795   0.00000  Uiso   1.00
C193   C     0.22863   0.90178   0.98903   0.00000  Uiso   1.00
C194   C     0.36589   0.66789   0.64003   0.00000  Uiso   1.00
C195   C     0.33872   0.61008   0.60537   0.00000  Uiso   1.00
C196   C     0.36212   0.55545   0.66266   0.00000  Uiso   1.00
C197   C     0.38315   0.45327   0.72803   0.00000  Uiso   1.00
C198   C     0.43741   0.73915   0.75264   0.00000  Uiso   1.00
C199   C     0.45776   0.76558   0.62677   0.00000  Uiso   1.00
C200   C     0.51743   0.79054   0.59833   0.00000  Uiso   1.00
C201   C     0.52658   0.81228   0.47785   0.00000  Uiso   1.00
C202   C     0.37820   0.77692   0.79041   0.00000  Uiso   1.00
C203   C     0.37097   0.81140   0.89957   0.00000  Uiso   1.00
C204   C     0.31315   0.84268   0.91686   0.00000  Uiso   1.00
C205   C     0.41469   0.67102   0.72878   0.00000  Uiso   1.00
C206   C     0.43813   0.61647   0.78613   0.00000  Uiso   1.00
C207   C     0.41101   0.55859   0.75156   0.00000  Uiso   1.00
H208   H     0.30956   0.73095   0.52016   0.00000  Uiso   1.00
H209   H     0.38024   0.78173   0.34891   0.00000  Uiso   1.00
H210   H     0.23381   0.80258   0.65011   0.00000  Uiso   1.00
H211   H     0.30096   0.60768   0.53669   0.00000  Uiso   1.00
H212   H     0.48011   0.83943   0.19821   0.00000  Uiso   1.00
H213   H     0.17135   0.88338   0.83331   0.00000  Uiso   1.00
H214   H     0.31294   0.47239   0.59415   0.00000  Uiso   1.00
H215   H     0.47540   0.74159   0.82173   0.00000  Uiso   1.00
H216   H     0.55518   0.79296   0.66703   0.00000  Uiso   1.00
H217   H     0.40875   0.81381   0.96823   0.00000  Uiso   1.00
H218   H     0.47590   0.61891   0.85481   0.00000  Uiso   1.00
H219   H     0.62210   0.84854   0.45640   0.00000  Uiso   1.00
H220   H     0.31334   0.89249   0.09151   0.00000  Uiso   1.00
H221   H     0.45493   0.48151   0.85235   0.00000  Uiso   1.00
O222   O     0.60059   0.87760   0.22011   0.00000  Uiso   1.00
O223   O     0.19550   0.93525   0.05335   0.00000  Uiso   1.00
O224   O     0.38127   0.39605   0.73957   0.00000  Uiso   1.00
N225   N     0.50258   0.83451   0.28020   0.00000  Uiso   1.00
N226   N     0.21391   0.87561   0.87397   0.00000  Uiso   1.00
N227   N     0.34628   0.49137   0.65040   0.00000  Uiso   1.00
N228   N     0.57899   0.83942   0.41913   0.00000  Uiso   1.00
N229   N     0.29032   0.88051   0.01290   0.00000  Uiso   1.00
N230   N     0.42268   0.49628   0.78933   0.00000  Uiso   1.00
C231   C     0.65244   0.26661   0.58925   0.00000  Uiso   1.00
C232   C     0.59104   0.23755   0.53802   0.00000  Uiso   1.00
C233   C     0.58198   0.21585   0.41757   0.00000  Uiso   1.00
C234   C     0.52232   0.19086   0.38895   0.00000  Uiso   1.00
C235   C     0.43441   0.14618   0.29593   0.00000  Uiso   1.00
C236   C     0.67060   0.22622   0.70166   0.00000  Uiso   1.00
C237   C     0.72843   0.19498   0.71880   0.00000  Uiso   1.00
C238   C     0.73574   0.16046   0.82795   0.00000  Uiso   1.00
C239   C     0.77137   0.09822   0.98903   0.00000  Uiso   1.00
C240   C     0.63411   0.33211   0.64003   0.00000  Uiso   1.00
C241   C     0.66128   0.38992   0.60537   0.00000  Uiso   1.00
C242   C     0.63788   0.44455   0.66266   0.00000  Uiso   1.00
C243   C     0.61685   0.54673   0.72803   0.00000  Uiso   1.00
C244   C     0.56259   0.26085   0.75264   0.00000  Uiso   1.00
C245   C     0.54224   0.23442   0.62677   0.00000  Uiso   1.00
C246   C     0.48257   0.20946   0.59833   0.00000  Uiso   1.00
C247   C     0.47342   0.18772   0.47785   0.00000  Uiso   1.00
C248   C     0.62180   0.22308   0.79041   0.00000  Uiso   1.00
C249   C     0.62903   0.18860   0.89957   0.00000  Uiso   1.00
C250   C     0.68685   0.15732   0.91686   0.00000  Uiso   1.00
C251   C     0.58531   0.32898   0.72878   0.00000  Uiso   1.00
C252   C     0.56187   0.38353   0.78613   0.00000  Uiso   1.00
C253   C     0.58899   0.44141   0.75156   0.00000  Uiso   1.00
H254   H     0.69044   0.26905   0.52016   0.00000  Uiso   1.00
H255   H     0.61976   0.21827   0.34891   0.00000  Uiso   1.00
H256   H     0.76619   0.19742   0.65011   0.00000  Uiso   1.00
H257   H     0.69904   0.39232   0.53669   0.00000  Uiso   1.00
H258   H     0.51989   0.16057   0.19821   0.00000  Uiso   1.00
H259   H     0.82865   0.11662   0.83331   0.00000  Uiso   1.00
H260   H     0.68706   0.52761   0.59415   0.00000  Uiso   1.00
H261   H     0.52460   0.25841   0.82173   0.00000  Uiso   1.00
H262   H     0.44482   0.20704   0.66703   0.00000  Uiso   1.00
H263   H     0.59125   0.18619   0.96823   0.00000  Uiso   1.00
H264   H     0.52410   0.38109   0.85481   0.00000  Uiso   1.00
H265   H     0.37790   0.15146   0.45640   0.00000  Uiso   1.00
H266   H     0.68666   0.10751   0.09151   0.00000  Uiso   1.00
H267   H     0.54507   0.51849   0.85235   0.00000  Uiso   1.00
O268   O     0.39941   0.12240   0.22011   0.00000  Uiso   1.00
O269   O     0.80450   0.06475   0.05335   0.00000  Uiso   1.00
O270   O     0.61873   0.60395   0.73957   0.00000  Uiso   1.00
N271   N     0.49742   0.16549   0.28020   0.00000  Uiso   1.00
N272   N     0.78609   0.12439   0.87397   0.00000  Uiso   1.00
N273   N     0.65372   0.50863   0.65040   0.00000  Uiso   1.00
N274   N     0.42101   0.16058   0.41913   0.00000  Uiso   1.00
N275   N     0.70968   0.11949   0.01290   0.00000  Uiso   1.00
N276   N     0.57732   0.50372   0.78933   0.00000  Uiso   1.00
C277   C     0.76661   0.84756   0.58925   0.00000  Uiso   1.00
C278   C     0.73755   0.90896   0.53802   0.00000  Uiso   1.00
C279   C     0.71585   0.91802   0.41757   0.00000  Uiso   1.00
C280   C     0.69086   0.97768   0.38895   0.00000  Uiso   1.00
C281   C     0.64618   0.06559   0.29593   0.00000  Uiso   1.00
C282   C     0.72622   0.82940   0.70166   0.00000  Uiso   1.00
C283   C     0.69498   0.77157   0.71880   0.00000  Uiso   1.00
C284   C     0.66046   0.76426   0.82795   0.00000  Uiso   1.00
C285   C     0.59822   0.72863   0.98903   0.00000  Uiso   1.00
C286   C     0.83211   0.86589   0.64003   0.00000  Uiso   1.00
C287   C     0.88992   0.83872   0.60537   0.00000  Uiso   1.00
C288   C     0.94455   0.86212   0.66266   0.00000  Uiso   1.00
C289   C     0.04673   0.88315   0.72803   0.00000  Uiso   1.00
C290   C     0.76085   0.93741   0.75264   0.00000  Uiso   1.00
C291   C     0.73442   0.95776   0.62677   0.00000  Uiso   1.00
C292   C     0.70946   0.01743   0.59833   0.00000  Uiso   1.00
C293   C     0.68772   0.02658   0.47785   0.00000  Uiso   1.00
C294   C     0.72308   0.87820   0.79041   0.00000  Uiso   1.00
C295   C     0.68860   0.87097   0.89957   0.00000  Uiso   1.00
C296   C     0.65732   0.81315   0.91686   0.00000  Uiso   1.00
C297   C     0.82898   0.91469   0.72878   0.00000  Uiso   1.00
C298   C     0.88353   0.93813   0.78613   0.00000  Uiso   1.00
C299   C     0.94141   0.91101   0.75156   0.00000  Uiso   1.00
H300   H     0.76905   0.80956   0.52016   0.00000  Uiso   1.00
H301   H     0.71827   0.88024   0.34891   0.00000  Uiso   1.00
H302   H     0.69742   0.73381   0.65011   0.00000  Uiso   1.00
H303   H     0.89232   0.80096   0.53669   0.00000  Uiso   1.00
H304   H     0.66057   0.98011   0.19821   0.00000  Uiso   1.00
H305   H     0.61662   0.67135   0.83331   0.00000  Uiso   1.00
H306   H     0.02761   0.81294   0.59415   0.00000  Uiso   1.00
H307   H     0.75841   0.97540   0.82173   0.00000  Uiso   1.00
H308   H     0.70704   0.05518   0.66703   0.00000  Uiso   1.00
H309   H     0.68619   0.90875   0.96823   0.00000  Uiso   1.00
H310   H     0.88109   0.97590   0.85481   0.00000  Uiso   1.00
H311   H     0.65146   0.12210   0.45640   0.00000  Uiso   1.00
H312   H     0.60751   0.81334   0.09151   0.00000  Uiso   1.00
H313   H     0.01849   0.95493   0.85235   0.00000  Uiso   1.00
O314   O     0.62240   0.10059   0.22011   0.00000  Uiso   1.00
O315   O     0.56475   0.69550   0.05335   0.00000  Uiso   1.00
O316   O     0.10395   0.88127   0.73957   0.00000  Uiso   1.00
N317   N     0.66549   0.00258   0.28020   0.00000  Uiso   1.00
N318   N     0.62439   0.71391   0.87397   0.00000  Uiso   1.00
N319   N     0.00863   0.84628   0.65040   0.00000  Uiso   1.00
N320   N     0.66058   0.07899   0.41913   0.00000  Uiso   1.00
N321   N     0.61949   0.79032   0.01290   0.00000  Uiso   1.00
N322   N     0.00372   0.92268   0.78933   0.00000  Uiso   1.00
C323   C     0.23339   0.15244   0.58925   0.00000  Uiso   1.00
C324   C     0.26245   0.09104   0.53802   0.00000  Uiso   1.00
C325   C     0.28415   0.08198   0.41757   0.00000  Uiso   1.00
C326   C     0.30914   0.02232   0.38895   0.00000  Uiso   1.00
C327   C     0.35382   0.93441   0.29593   0.00000  Uiso   1.00
C328   C     0.27378   0.17060   0.70166   0.00000  Uiso   1.00
C329   C     0.30502   0.22843   0.71880   0.00000  Uiso   1.00
C330   C     0.33954   0.23574   0.82795   0.00000  Uiso   1.00
C331   C     0.40178   0.27137   0.98903   0.00000  Uiso   1.00
C332   C     0.16789   0.13411   0.64003   0.00000  Uiso   1.00
C333   C     0.11008   0.16128   0.60537   0.00000  Uiso   1.00
C334   C     0.05545   0.13788   0.66266   0.00000  Uiso   1.00
C335   C     0.95327   0.11685   0.72803   0.00000  Uiso   1.00
C336   C     0.23915   0.06259   0.75264   0.00000  Uiso   1.00
C337   C     0.26558   0.04224   0.62677   0.00000  Uiso   1.00
C338   C     0.29054   0.98257   0.59833   0.00000  Uiso   1.00
C339   C     0.31228   0.97342   0.47785   0.00000  Uiso   1.00
C340   C     0.27692   0.12180   0.79041   0.00000  Uiso   1.00
C341   C     0.31140   0.12903   0.89957   0.00000  Uiso   1.00
C342   C     0.34268   0.18685   0.91686   0.00000  Uiso   1.00
C343   C     0.17102   0.08531   0.72878   0.00000  Uiso   1.00
C344   C     0.11647   0.06187   0.78613   0.00000  Uiso   1.00
C345   C     0.05859   0.08899   0.75156   0.00000  Uiso   1.00
H346   H     0.23095   0.19044   0.52016   0.00000  Uiso   1.00
H347   H     0.28173   0.11976   0.34891   0.00000  Uiso   1.00
H348   H     0.30258   0.26619   0.65011   0.00000  Uiso   1.00
H349   H     0.10768   0.19904   0.53669   0.00000  Uiso   1.00
H350   H     0.33943   0.01989   0.19821   0.00000  Uiso   1.00
H351   H     0.38338   0.32865   0.83331   0.00000  Uiso   1.00
H352   H     0.97239   0.18706   0.59415   0.00000  Uiso   1.00
H353   H     0.24159   0.02460   0.82173   0.00000  Uiso   1.00
H354   H     0.29296   0.94482   0.66703   0.00000  Uiso   1.00
H355   H     0.31381   0.09125   0.96823   0.00000  Uiso   1.00
H356   H     0.11891   0.02410   0.85481   0.00000  Uiso   1.00
H357   H     0.34854   0.87790   0.45640   0.00000  Uiso   1.00
H358   H     0.39249   0.18666   0.09151   0.00000  Uiso   1.00
H359   H     0.98151   0.04507   0.85235   0.00000  Uiso   1.00
O360   O     0.37760   0.89941   0.22011   0.00000  Uiso   1.00
O361   O     0.43525   0.30450   0.05335   0.00000  Uiso   1.00
O362   O     0.89605   0.11873   0.73957   0.00000  Uiso   1.00
N363   N     0.33451   0.99742   0.28020   0.00000  Uiso   1.00
N364   N     0.37561   0.28609   0.87397   0.00000  Uiso   1.00
N365   N     0.99137   0.15372   0.65040   0.00000  Uiso   1.00
N366   N     0.33942   0.92101   0.41913   0.00000  Uiso   1.00
N367   N     0.38051   0.20968   0.01290   0.00000  Uiso   1.00
N368   N     0.99628   0.07732   0.78933   0.00000  Uiso   1.00
