data_job_07067
_audit_creation_date              2018-12-19
_audit_creation_method            'Materials Studio'
_symmetry_space_group_name_H-M    'P1'
_symmetry_Int_Tables_number       1
_symmetry_cell_setting            triclinic
loop_
_symmetry_equiv_pos_as_xyz
  x,y,z
_cell_length_a                    18.2774
_cell_length_b                    24.6407
_cell_length_c                    25.2723
_cell_angle_alpha                 66.4302
_cell_angle_beta                  101.4325
_cell_angle_gamma                 92.1063
loop_
_atom_site_label
_atom_site_type_symbol
_atom_site_fract_x
_atom_site_fract_y
_atom_site_fract_z
_atom_site_U_iso_or_equiv
_atom_site_adp_type
_atom_site_occupancy
C1     C     0.50003   0.27205   0.62630   0.00000  Uiso   1.00
C2     C     0.47712   0.24599   0.58027   0.00000  Uiso   1.00
C3     C     0.52545   0.22730   0.55427   0.00000  Uiso   1.00
C4     C     0.49349   0.20477   0.51313   0.00000  Uiso   1.00
C5     C     0.46970   0.16489   0.44386   0.00000  Uiso   1.00
C6     C     0.45831   0.33230   0.60105   0.00000  Uiso   1.00
C7     C     0.49083   0.38618   0.59253   0.00000  Uiso   1.00
C8     C     0.44303   0.43630   0.56889   0.00000  Uiso   1.00
C9     C     0.39003   0.53042   0.53191   0.00000  Uiso   1.00
C10    C     0.46688   0.23321   0.67919   0.00000  Uiso   1.00
C11    C     0.50659   0.20379   0.73638   0.00000  Uiso   1.00
C12    C     0.46600   0.17050   0.77853   0.00000  Uiso   1.00
C13    C     0.42630   0.11077   0.86288   0.00000  Uiso   1.00
C14    C     0.35734   0.26526   0.59947   0.00000  Uiso   1.00
C15    C     0.39961   0.24231   0.56570   0.00000  Uiso   1.00
C16    C     0.36757   0.21979   0.52459   0.00000  Uiso   1.00
C17    C     0.41584   0.20107   0.49854   0.00000  Uiso   1.00
C18    C     0.38081   0.32861   0.58648   0.00000  Uiso   1.00
C19    C     0.33295   0.37867   0.56285   0.00000  Uiso   1.00
C20    C     0.36538   0.43261   0.55429   0.00000  Uiso   1.00
C21    C     0.38937   0.22953   0.66462   0.00000  Uiso   1.00
C22    C     0.34871   0.19628   0.70670   0.00000  Uiso   1.00
C23    C     0.38835   0.16681   0.76393   0.00000  Uiso   1.00
H24    H     0.56038   0.27492   0.63765   0.00000  Uiso   1.00
H25    H     0.58543   0.23017   0.56556   0.00000  Uiso   1.00
H26    H     0.55081   0.38902   0.60382   0.00000  Uiso   1.00
H27    H     0.56656   0.20666   0.74764   0.00000  Uiso   1.00
H28    H     0.57902   0.17894   0.47919   0.00000  Uiso   1.00
H29    H     0.50602   0.51388   0.55988   0.00000  Uiso   1.00
H30    H     0.53925   0.12934   0.86317   0.00000  Uiso   1.00
H31    H     0.29699   0.26239   0.58813   0.00000  Uiso   1.00
H32    H     0.30759   0.21694   0.51332   0.00000  Uiso   1.00
H33    H     0.27297   0.37580   0.55158   0.00000  Uiso   1.00
H34    H     0.28873   0.19344   0.69540   0.00000  Uiso   1.00
H35    H     0.35352   0.16821   0.43679   0.00000  Uiso   1.00
H36    H     0.28052   0.50315   0.51748   0.00000  Uiso   1.00
H37    H     0.31375   0.11861   0.82077   0.00000  Uiso   1.00
O38    O     0.47799   0.14392   0.40966   0.00000  Uiso   1.00
O39    O     0.38222   0.58335   0.51553   0.00000  Uiso   1.00
O40    O     0.42582   0.07884   0.91343   0.00000  Uiso   1.00
N41    N     0.52449   0.18264   0.47949   0.00000  Uiso   1.00
N42    N     0.45624   0.49579   0.55492   0.00000  Uiso   1.00
N43    N     0.48731   0.13629   0.83847   0.00000  Uiso   1.00
N44    N     0.40315   0.17687   0.45668   0.00000  Uiso   1.00
N45    N     0.33490   0.49002   0.53210   0.00000  Uiso   1.00
N46    N     0.36597   0.13052   0.81565   0.00000  Uiso   1.00
C47    C     0.59447   0.73729   0.64809   0.00000  Uiso   1.00
C48    C     0.55469   0.79817   0.62419   0.00000  Uiso   1.00
C49    C     0.58859   0.85059   0.62029   0.00000  Uiso   1.00
C50    C     0.54247   0.90161   0.59713   0.00000  Uiso   1.00
C51    C     0.49244   0.99636   0.56286   0.00000  Uiso   1.00
C52    C     0.55667   0.69704   0.69758   0.00000  Uiso   1.00
C53    C     0.59225   0.66442   0.75540   0.00000  Uiso   1.00
C54    C     0.54780   0.63030   0.79402   0.00000  Uiso   1.00
C55    C     0.50087   0.56800   0.87370   0.00000  Uiso   1.00
C56    C     0.57460   0.71487   0.59908   0.00000  Uiso   1.00
C57    C     0.62526   0.69723   0.57409   0.00000  Uiso   1.00
C58    C     0.59590   0.67812   0.52979   0.00000  Uiso   1.00
C59    C     0.57680   0.64350   0.45653   0.00000  Uiso   1.00
C60    C     0.45227   0.73468   0.61390   0.00000  Uiso   1.00
C61    C     0.47745   0.79675   0.60561   0.00000  Uiso   1.00
C62    C     0.43126   0.84771   0.58246   0.00000  Uiso   1.00
C63    C     0.46509   0.90020   0.57853   0.00000  Uiso   1.00
C64    C     0.47944   0.69562   0.67901   0.00000  Uiso   1.00
C65    C     0.43493   0.66153   0.71756   0.00000  Uiso   1.00
C66    C     0.47043   0.62888   0.77542   0.00000  Uiso   1.00
C67    C     0.49737   0.71345   0.58051   0.00000  Uiso   1.00
C68    C     0.46793   0.69435   0.53625   0.00000  Uiso   1.00
C69    C     0.51852   0.67669   0.51119   0.00000  Uiso   1.00
H70    H     0.65460   0.73839   0.66256   0.00000  Uiso   1.00
H71    H     0.64836   0.85167   0.63467   0.00000  Uiso   1.00
H72    H     0.65203   0.66552   0.76975   0.00000  Uiso   1.00
H73    H     0.68502   0.69834   0.58847   0.00000  Uiso   1.00
H74    H     0.60738   0.97664   0.59559   0.00000  Uiso   1.00
H75    H     0.61511   0.58412   0.88041   0.00000  Uiso   1.00
H76    H     0.68469   0.65331   0.49814   0.00000  Uiso   1.00
H77    H     0.39214   0.73357   0.59944   0.00000  Uiso   1.00
H78    H     0.37150   0.84659   0.56809   0.00000  Uiso   1.00
H79    H     0.37516   0.66045   0.70318   0.00000  Uiso   1.00
H80    H     0.40815   0.69326   0.52189   0.00000  Uiso   1.00
H81    H     0.38267   0.97252   0.54155   0.00000  Uiso   1.00
H82    H     0.39039   0.57999   0.82637   0.00000  Uiso   1.00
H83    H     0.45997   0.64919   0.44410   0.00000  Uiso   1.00
O84    O     0.48618   0.04901   0.54910   0.00000  Uiso   1.00
O85    O     0.49632   0.53403   0.92278   0.00000  Uiso   1.00
O86    O     0.58760   0.62481   0.42124   0.00000  Uiso   1.00
N87    N     0.55733   0.96016   0.58716   0.00000  Uiso   1.00
N88    N     0.56455   0.59318   0.85346   0.00000  Uiso   1.00
N89    N     0.62960   0.65786   0.49607   0.00000  Uiso   1.00
N90    N     0.43641   0.95794   0.55808   0.00000  Uiso   1.00
N91    N     0.44363   0.59097   0.82438   0.00000  Uiso   1.00
N92    N     0.50868   0.65564   0.46700   0.00000  Uiso   1.00
C93    C     0.61578   0.21086   0.16010   0.00000  Uiso   1.00
C94    C     0.57722   0.16669   0.20691   0.00000  Uiso   1.00
C95    C     0.61185   0.13053   0.26397   0.00000  Uiso   1.00
C96    C     0.56682   0.09314   0.30006   0.00000  Uiso   1.00
C97    C     0.51866   0.02470   0.37583   0.00000  Uiso   1.00
C98    C     0.59808   0.19373   0.10740   0.00000  Uiso   1.00
C99    C     0.65025   0.18032   0.08078   0.00000  Uiso   1.00
C100   C     0.62277   0.16571   0.03310   0.00000  Uiso   1.00
C101   C     0.60699   0.13929   0.95434   0.00000  Uiso   1.00
C102   C     0.57504   0.27074   0.14038   0.00000  Uiso   1.00
C103   C     0.60783   0.32208   0.14147   0.00000  Uiso   1.00
C104   C     0.56096   0.37231   0.12153   0.00000  Uiso   1.00
C105   C     0.50939   0.46546   0.09398   0.00000  Uiso   1.00
C106   C     0.47423   0.20878   0.12273   0.00000  Uiso   1.00
C107   C     0.50034   0.16556   0.18662   0.00000  Uiso   1.00
C108   C     0.45525   0.12822   0.22263   0.00000  Uiso   1.00
C109   C     0.48980   0.09201   0.27973   0.00000  Uiso   1.00
C110   C     0.52120   0.19260   0.08710   0.00000  Uiso   1.00
C111   C     0.49365   0.17801   0.03944   0.00000  Uiso   1.00
C112   C     0.54576   0.16457   0.01277   0.00000  Uiso   1.00
C113   C     0.49815   0.26961   0.12008   0.00000  Uiso   1.00
C114   C     0.45122   0.31977   0.10013   0.00000  Uiso   1.00
C115   C     0.48394   0.37118   0.10120   0.00000  Uiso   1.00
H116   H     0.67563   0.21174   0.17590   0.00000  Uiso   1.00
H117   H     0.67135   0.13141   0.27966   0.00000  Uiso   1.00
H118   H     0.70974   0.18120   0.09650   0.00000  Uiso   1.00
H119   H     0.66732   0.32294   0.15718   0.00000  Uiso   1.00
H120   H     0.63270   0.04183   0.38574   0.00000  Uiso   1.00
H121   H     0.71364   0.14683   0.99952   0.00000  Uiso   1.00
H122   H     0.62421   0.44572   0.12747   0.00000  Uiso   1.00
H123   H     0.41438   0.20790   0.10693   0.00000  Uiso   1.00
H124   H     0.39576   0.12736   0.20691   0.00000  Uiso   1.00
H125   H     0.43415   0.17714   0.02375   0.00000  Uiso   1.00
H126   H     0.39173   0.31888   0.08443   0.00000  Uiso   1.00
H127   H     0.40902   0.03854   0.32670   0.00000  Uiso   1.00
H128   H     0.48997   0.14354   0.94048   0.00000  Uiso   1.00
H129   H     0.40053   0.44243   0.06843   0.00000  Uiso   1.00
O130   O     0.51333   0.98726   0.42323   0.00000  Uiso   1.00
O131   O     0.61953   0.12503   0.91652   0.00000  Uiso   1.00
O132   O     0.50219   0.51716   0.08439   0.00000  Uiso   1.00
N133   N     0.58261   0.05212   0.35813   0.00000  Uiso   1.00
N134   N     0.65829   0.15028   0.99704   0.00000  Uiso   1.00
N135   N     0.57468   0.42972   0.11665   0.00000  Uiso   1.00
N136   N     0.46225   0.05035   0.32636   0.00000  Uiso   1.00
N137   N     0.53793   0.14851   0.96527   0.00000  Uiso   1.00
N138   N     0.45432   0.42795   0.08488   0.00000  Uiso   1.00
C139   C     0.09582   0.27519   0.66229   0.00000  Uiso   1.00
C140   C     0.05776   0.25333   0.71517   0.00000  Uiso   1.00
C141   C     0.09344   0.23666   0.77357   0.00000  Uiso   1.00
C142   C     0.04871   0.21794   0.81548   0.00000  Uiso   1.00
C143   C     0.00141   0.18433   0.90002   0.00000  Uiso   1.00
C144   C     0.05852   0.33569   0.62095   0.00000  Uiso   1.00
C145   C     0.09485   0.38826   0.60012   0.00000  Uiso   1.00
C146   C     0.05076   0.43888   0.56270   0.00000  Uiso   1.00
C147   C     0.00465   0.53312   0.50093   0.00000  Uiso   1.00
C148   C     0.07325   0.23409   0.63057   0.00000  Uiso   1.00
C149   C     0.12196   0.20125   0.61783   0.00000  Uiso   1.00
C150   C     0.09027   0.16634   0.58850   0.00000  Uiso   1.00
C151   C     0.06704   0.10284   0.54168   0.00000  Uiso   1.00
C152   C     0.95292   0.27159   0.63285   0.00000  Uiso   1.00
C153   C     0.98014   0.25138   0.69918   0.00000  Uiso   1.00
C154   C     0.93534   0.23268   0.74101   0.00000  Uiso   1.00
C155   C     0.97095   0.21599   0.79946   0.00000  Uiso   1.00
C156   C     0.98091   0.33374   0.60496   0.00000  Uiso   1.00
C157   C     0.93675   0.38429   0.56756   0.00000  Uiso   1.00
C158   C     0.97300   0.43693   0.54669   0.00000  Uiso   1.00
C159   C     0.99563   0.23214   0.61458   0.00000  Uiso   1.00
C160   C     0.96386   0.19728   0.58527   0.00000  Uiso   1.00
C161   C     0.01251   0.16439   0.57248   0.00000  Uiso   1.00
H162   H     0.15624   0.27671   0.67473   0.00000  Uiso   1.00
H163   H     0.15350   0.23818   0.78593   0.00000  Uiso   1.00
H164   H     0.15491   0.38976   0.61250   0.00000  Uiso   1.00
H165   H     0.18201   0.20278   0.63021   0.00000  Uiso   1.00
H166   H     0.11624   0.19462   0.90216   0.00000  Uiso   1.00
H167   H     0.11921   0.51423   0.53646   0.00000  Uiso   1.00
H168   H     0.17637   0.11994   0.57380   0.00000  Uiso   1.00
H169   H     0.89250   0.27008   0.62040   0.00000  Uiso   1.00
H170   H     0.87528   0.23118   0.72862   0.00000  Uiso   1.00
H171   H     0.87669   0.38276   0.55519   0.00000  Uiso   1.00
H172   H     0.90380   0.19578   0.57290   0.00000  Uiso   1.00
H173   H     0.89042   0.18894   0.85564   0.00000  Uiso   1.00
H174   H     0.89340   0.50855   0.48994   0.00000  Uiso   1.00
H175   H     0.95056   0.11426   0.52728   0.00000  Uiso   1.00
O176   O     0.99676   0.16633   0.95107   0.00000  Uiso   1.00
O177   O     0.00067   0.58564   0.47128   0.00000  Uiso   1.00
O178   O     0.07566   0.06835   0.52027   0.00000  Uiso   1.00
N179   N     0.06545   0.19861   0.87636   0.00000  Uiso   1.00
N180   N     0.06823   0.49743   0.53446   0.00000  Uiso   1.00
N181   N     0.12167   0.12882   0.56936   0.00000  Uiso   1.00
N182   N     0.94395   0.19555   0.85133   0.00000  Uiso   1.00
N183   N     0.94673   0.49437   0.50943   0.00000  Uiso   1.00
N184   N     0.00017   0.12576   0.54433   0.00000  Uiso   1.00
C185   C     0.02821   0.74922   0.09248   0.00000  Uiso   1.00
C186   C     0.00290   0.81182   0.04759   0.00000  Uiso   1.00
C187   C     0.04889   0.85471   0.01834   0.00000  Uiso   1.00
C188   C     0.01497   0.90923   0.97895   0.00000  Uiso   1.00
C189   C     0.98740   0.00473   0.91071   0.00000  Uiso   1.00
C190   C     0.98255   0.70746   0.06926   0.00000  Uiso   1.00
C191   C     0.01144   0.66259   0.05824   0.00000  Uiso   1.00
C192   C     0.96038   0.62926   0.03709   0.00000  Uiso   1.00
C193   C     0.90121   0.56271   0.00253   0.00000  Uiso   1.00
C194   C     0.00186   0.74248   0.14829   0.00000  Uiso   1.00
C195   C     0.04697   0.72704   0.20373   0.00000  Uiso   1.00
C196   C     0.01216   0.72319   0.24913   0.00000  Uiso   1.00
C197   C     0.98296   0.71100   0.33727   0.00000  Uiso   1.00
C198   C     0.88619   0.76981   0.07454   0.00000  Uiso   1.00
C199   C     0.92576   0.82300   0.03785   0.00000  Uiso   1.00
C200   C     0.89176   0.87748   0.99849   0.00000  Uiso   1.00
C201   C     0.93769   0.92044   0.96919   0.00000  Uiso   1.00
C202   C     0.90541   0.71864   0.05951   0.00000  Uiso   1.00
C203   C     0.85430   0.68537   0.03839   0.00000  Uiso   1.00
C204   C     0.88310   0.64046   0.02733   0.00000  Uiso   1.00
C205   C     0.92471   0.75366   0.13855   0.00000  Uiso   1.00
C206   C     0.88983   0.74982   0.18387   0.00000  Uiso   1.00
C207   C     0.93488   0.73439   0.23936   0.00000  Uiso   1.00
H208   H     0.08827   0.74051   0.10007   0.00000  Uiso   1.00
H209   H     0.10859   0.84603   0.02589   0.00000  Uiso   1.00
H210   H     0.07114   0.65395   0.06579   0.00000  Uiso   1.00
H211   H     0.10666   0.71839   0.21125   0.00000  Uiso   1.00
H212   H     0.09709   0.96795   0.93934   0.00000  Uiso   1.00
H213   H     0.01812   0.56291   0.02348   0.00000  Uiso   1.00
H214   H     0.09303   0.69880   0.33022   0.00000  Uiso   1.00
H215   H     0.82613   0.77851   0.06695   0.00000  Uiso   1.00
H216   H     0.83206   0.88612   0.99096   0.00000  Uiso   1.00
H217   H     0.79461   0.69403   0.03085   0.00000  Uiso   1.00
H218   H     0.83013   0.75848   0.17631   0.00000  Uiso   1.00
H219   H     0.87265   0.00048   0.91098   0.00000  Uiso   1.00
H220   H     0.79368   0.59544   0.99513   0.00000  Uiso   1.00
H221   H     0.86858   0.73134   0.30186   0.00000  Uiso   1.00
O222   O     0.99350   0.05431   0.87576   0.00000  Uiso   1.00
O223   O     0.88989   0.52291   0.98616   0.00000  Uiso   1.00
O224   O     0.98817   0.70121   0.38859   0.00000  Uiso   1.00
N225   N     0.04346   0.96084   0.94311   0.00000  Uiso   1.00
N226   N     0.96962   0.58216   0.02176   0.00000  Uiso   1.00
N227   N     0.03965   0.70919   0.30854   0.00000  Uiso   1.00
N228   N     0.92269   0.97835   0.92785   0.00000  Uiso   1.00
N229   N     0.84885   0.59967   0.00651   0.00000  Uiso   1.00
N230   N     0.91888   0.72670   0.29328   0.00000  Uiso   1.00
C231   C     0.06256   0.19543   0.20183   0.00000  Uiso   1.00
C232   C     0.03356   0.16050   0.16456   0.00000  Uiso   1.00
C233   C     0.07468   0.11844   0.15759   0.00000  Uiso   1.00
C234   C     0.03798   0.09141   0.12166   0.00000  Uiso   1.00
C235   C     0.00436   0.03493   0.06807   0.00000  Uiso   1.00
C236   C     0.01071   0.18345   0.24530   0.00000  Uiso   1.00
C237   C     0.03261   0.16069   0.30621   0.00000  Uiso   1.00
C238   C     0.97667   0.15298   0.33824   0.00000  Uiso   1.00
C239   C     0.90758   0.13218   0.40999   0.00000  Uiso   1.00
C240   C     0.04865   0.26070   0.16039   0.00000  Uiso   1.00
C241   C     0.10245   0.30289   0.14992   0.00000  Uiso   1.00
C242   C     0.07846   0.36023   0.11047   0.00000  Uiso   1.00
C243   C     0.06828   0.45936   0.05039   0.00000  Uiso   1.00
C244   C     0.92427   0.22223   0.15041   0.00000  Uiso   1.00
C245   C     0.95844   0.17506   0.13664   0.00000  Uiso   1.00
C246   C     0.92167   0.14808   0.10071   0.00000  Uiso   1.00
C247   C     0.96273   0.10598   0.09368   0.00000  Uiso   1.00
C248   C     0.93559   0.19800   0.21738   0.00000  Uiso   1.00
C249   C     0.87961   0.19033   0.24933   0.00000  Uiso   1.00
C250   C     0.90142   0.16756   0.31027   0.00000  Uiso   1.00
C251   C     0.97354   0.27525   0.13246   0.00000  Uiso   1.00
C252   C     0.94945   0.33253   0.09303   0.00000  Uiso   1.00
C253   C     0.00321   0.37480   0.08250   0.00000  Uiso   1.00
H254   H     0.12104   0.18410   0.22357   0.00000  Uiso   1.00
H255   H     0.13281   0.10719   0.17921   0.00000  Uiso   1.00
H256   H     0.09074   0.14944   0.32781   0.00000  Uiso   1.00
H257   H     0.16058   0.29162   0.17153   0.00000  Uiso   1.00
H258   H     0.11271   0.02831   0.11774   0.00000  Uiso   1.00
H259   H     0.02403   0.11742   0.43105   0.00000  Uiso   1.00
H260   H     0.17128   0.41723   0.10153   0.00000  Uiso   1.00
H261   H     0.86579   0.23355   0.12867   0.00000  Uiso   1.00
H262   H     0.86354   0.15935   0.07910   0.00000  Uiso   1.00
H263   H     0.82148   0.20160   0.22770   0.00000  Uiso   1.00
H264   H     0.89132   0.34378   0.07143   0.00000  Uiso   1.00
H265   H     0.89417   0.07065   0.03649   0.00000  Uiso   1.00
H266   H     0.80549   0.15976   0.34980   0.00000  Uiso   1.00
H267   H     0.95274   0.45957   0.02028   0.00000  Uiso   1.00
O268   O     0.00657   0.99976   0.04624   0.00000  Uiso   1.00
O269   O     0.89022   0.11668   0.45729   0.00000  Uiso   1.00
O270   O     0.08341   0.51002   0.02496   0.00000  Uiso   1.00
N271   N     0.06159   0.04847   0.10541   0.00000  Uiso   1.00
N272   N     0.97868   0.13177   0.39834   0.00000  Uiso   1.00
N273   N     0.11634   0.41207   0.09027   0.00000  Uiso   1.00
N274   N     0.94400   0.07125   0.06169   0.00000  Uiso   1.00
N275   N     0.86108   0.15455   0.35462   0.00000  Uiso   1.00
N276   N     0.99875   0.43485   0.04655   0.00000  Uiso   1.00
C277   C     0.69521   0.86500   0.35000   0.00000  Uiso   1.00
C278   C     0.71581   0.88907   0.39774   0.00000  Uiso   1.00
C279   C     0.66574   0.90657   0.42328   0.00000  Uiso   1.00
C280   C     0.69571   0.92734   0.46622   0.00000  Uiso   1.00
C281   C     0.71595   0.96422   0.53783   0.00000  Uiso   1.00
C282   C     0.73673   0.80474   0.37446   0.00000  Uiso   1.00
C283   C     0.70425   0.75134   0.38043   0.00000  Uiso   1.00
C284   C     0.75184   0.70112   0.40377   0.00000  Uiso   1.00
C285   C     0.80456   0.60708   0.43920   0.00000  Uiso   1.00
C286   C     0.73059   0.90513   0.29892   0.00000  Uiso   1.00
C287   C     0.69294   0.93613   0.24136   0.00000  Uiso   1.00
C288   C     0.73537   0.97042   0.20109   0.00000  Uiso   1.00
C289   C     0.77855   0.03225   0.11923   0.00000  Uiso   1.00
C290   C     0.83748   0.87077   0.38083   0.00000  Uiso   1.00
C291   C     0.79309   0.89221   0.41449   0.00000  Uiso   1.00
C292   C     0.82315   0.91296   0.45740   0.00000  Uiso   1.00
C293   C     0.77313   0.93049   0.48300   0.00000  Uiso   1.00
C294   C     0.81401   0.80788   0.39121   0.00000  Uiso   1.00
C295   C     0.86166   0.75773   0.41454   0.00000  Uiso   1.00
C296   C     0.82926   0.70426   0.42055   0.00000  Uiso   1.00
C297   C     0.80786   0.90827   0.31567   0.00000  Uiso   1.00
C298   C     0.85035   0.94252   0.27548   0.00000  Uiso   1.00
C299   C     0.81278   0.97356   0.21787   0.00000  Uiso   1.00
H300   H     0.63505   0.86255   0.33696   0.00000  Uiso   1.00
H301   H     0.60594   0.90413   0.41031   0.00000  Uiso   1.00
H302   H     0.64445   0.74893   0.36746   0.00000  Uiso   1.00
H303   H     0.63314   0.93369   0.22842   0.00000  Uiso   1.00
H304   H     0.60775   0.95159   0.49904   0.00000  Uiso   1.00
H305   H     0.68895   0.62434   0.40866   0.00000  Uiso   1.00
H306   H     0.66511   0.01394   0.11546   0.00000  Uiso   1.00
H307   H     0.89765   0.87321   0.39387   0.00000  Uiso   1.00
H308   H     0.88295   0.91538   0.47035   0.00000  Uiso   1.00
H309   H     0.92146   0.76017   0.42750   0.00000  Uiso   1.00
H310   H     0.91015   0.94493   0.28845   0.00000  Uiso   1.00
H311   H     0.83258   0.96072   0.54777   0.00000  Uiso   1.00
H312   H     0.91378   0.63346   0.45739   0.00000  Uiso   1.00
H313   H     0.88994   0.02307   0.16419   0.00000  Uiso   1.00
O314   O     0.70576   0.98369   0.57270   0.00000  Uiso   1.00
O315   O     0.81229   0.55434   0.45412   0.00000  Uiso   1.00
O316   O     0.78101   0.06549   0.06945   0.00000  Uiso   1.00
N317   N     0.66268   0.94797   0.50001   0.00000  Uiso   1.00
N318   N     0.73860   0.64200   0.41552   0.00000  Uiso   1.00
N319   N     0.71631   0.00623   0.14140   0.00000  Uiso   1.00
N320   N     0.78366   0.95288   0.52623   0.00000  Uiso   1.00
N321   N     0.85958   0.64691   0.44174   0.00000  Uiso   1.00
N322   N     0.83729   0.01114   0.16762   0.00000  Uiso   1.00
C323   C     0.60369   0.39862   0.33240   0.00000  Uiso   1.00
C324   C     0.64018   0.33649   0.35694   0.00000  Uiso   1.00
C325   C     0.60355   0.28540   0.35959   0.00000  Uiso   1.00
C326   C     0.64690   0.23287   0.38361   0.00000  Uiso   1.00
C327   C     0.69183   0.13660   0.41855   0.00000  Uiso   1.00
C328   C     0.64481   0.43724   0.28445   0.00000  Uiso   1.00
C329   C     0.61208   0.47086   0.22615   0.00000  Uiso   1.00
C330   C     0.65932   0.50316   0.18915   0.00000  Uiso   1.00
C331   C     0.71143   0.56333   0.11155   0.00000  Uiso   1.00
C332   C     0.62345   0.42048   0.38182   0.00000  Uiso   1.00
C333   C     0.57276   0.44003   0.40539   0.00000  Uiso   1.00
C334   C     0.60202   0.45823   0.45036   0.00000  Uiso   1.00
C335   C     0.62097   0.49239   0.52395   0.00000  Uiso   1.00
C336   C     0.74579   0.39619   0.37036   0.00000  Uiso   1.00
C337   C     0.71737   0.33517   0.37756   0.00000  Uiso   1.00
C338   C     0.76078   0.28271   0.40158   0.00000  Uiso   1.00
C339   C     0.72422   0.23155   0.40427   0.00000  Uiso   1.00
C340   C     0.72199   0.43592   0.30507   0.00000  Uiso   1.00
C341   C     0.76930   0.46817   0.26814   0.00000  Uiso   1.00
C342   C     0.73665   0.50183   0.20980   0.00000  Uiso   1.00
C343   C     0.70064   0.41916   0.40244   0.00000  Uiso   1.00
C344   C     0.72998   0.43734   0.44738   0.00000  Uiso   1.00
C345   C     0.67935   0.45691   0.47101   0.00000  Uiso   1.00
H346   H     0.54359   0.39965   0.31635   0.00000  Uiso   1.00
H347   H     0.54382   0.28644   0.34362   0.00000  Uiso   1.00
H348   H     0.55234   0.47188   0.21021   0.00000  Uiso   1.00
H349   H     0.51303   0.44105   0.38942   0.00000  Uiso   1.00
H350   H     0.57811   0.16034   0.38294   0.00000  Uiso   1.00
H351   H     0.59608   0.55137   0.10162   0.00000  Uiso   1.00
H352   H     0.51318   0.48636   0.47953   0.00000  Uiso   1.00
H353   H     0.80589   0.39517   0.38641   0.00000  Uiso   1.00
H354   H     0.82051   0.28170   0.41754   0.00000  Uiso   1.00
H355   H     0.82903   0.46714   0.28411   0.00000  Uiso   1.00
H356   H     0.78972   0.43631   0.46333   0.00000  Uiso   1.00
H357   H     0.80268   0.15649   0.44292   0.00000  Uiso   1.00
H358   H     0.82065   0.54753   0.16161   0.00000  Uiso   1.00
H359   H     0.73775   0.48251   0.53951   0.00000  Uiso   1.00
O360   O     0.69529   0.08386   0.43212   0.00000  Uiso   1.00
O361   O     0.71885   0.59688   0.06305   0.00000  Uiso   1.00
O362   O     0.61010   0.51158   0.55885   0.00000  Uiso   1.00
N363   N     0.62896   0.17500   0.39279   0.00000  Uiso   1.00
N364   N     0.64576   0.54058   0.12978   0.00000  Uiso   1.00
N365   N     0.56826   0.47982   0.48308   0.00000  Uiso   1.00
N366   N     0.74980   0.17293   0.42507   0.00000  Uiso   1.00
N367   N     0.76659   0.53851   0.16206   0.00000  Uiso   1.00
N368   N     0.68909   0.47775   0.51535   0.00000  Uiso   1.00
C369   C     0.58486   0.92581   0.82115   0.00000  Uiso   1.00
C370   C     0.62094   0.96970   0.77242   0.00000  Uiso   1.00
C371   C     0.58411   0.00412   0.71546   0.00000  Uiso   1.00
C372   C     0.62707   0.04154   0.67744   0.00000  Uiso   1.00
C373   C     0.67136   0.10929   0.59900   0.00000  Uiso   1.00
C374   C     0.60373   0.94495   0.87250   0.00000  Uiso   1.00
C375   C     0.55242   0.95854   0.89969   0.00000  Uiso   1.00
C376   C     0.58090   0.97512   0.94592   0.00000  Uiso   1.00
C377   C     0.59847   0.00439   0.02287   0.00000  Uiso   1.00
C378   C     0.62708   0.86639   0.84167   0.00000  Uiso   1.00
C379   C     0.59542   0.81393   0.84295   0.00000  Uiso   1.00
C380   C     0.64356   0.76436   0.86323   0.00000  Uiso   1.00
C381   C     0.69740   0.67166   0.89232   0.00000  Uiso   1.00
C382   C     0.72664   0.93108   0.85491   0.00000  Uiso   1.00
C383   C     0.69795   0.97256   0.79076   0.00000  Uiso   1.00
C384   C     0.74098   0.00995   0.75281   0.00000  Uiso   1.00
C385   C     0.70422   0.04441   0.69581   0.00000  Uiso   1.00
C386   C     0.68073   0.94781   0.89084   0.00000  Uiso   1.00
C387   C     0.70929   0.96437   0.93704   0.00000  Uiso   1.00
C388   C     0.65805   0.97799   0.96429   0.00000  Uiso   1.00
C389   C     0.70410   0.86925   0.86000   0.00000  Uiso   1.00
C390   C     0.75229   0.81976   0.88029   0.00000  Uiso   1.00
C391   C     0.72071   0.76723   0.88160   0.00000  Uiso   1.00
H392   H     0.52490   0.92358   0.80688   0.00000  Uiso   1.00
H393   H     0.52451   0.00189   0.70129   0.00000  Uiso   1.00
H394   H     0.49283   0.95632   0.88549   0.00000  Uiso   1.00
H395   H     0.53582   0.81173   0.82876   0.00000  Uiso   1.00
H396   H     0.55803   0.08999   0.59232   0.00000  Uiso   1.00
H397   H     0.49124   0.99388   0.98073   0.00000  Uiso   1.00
H398   H     0.58189   0.68898   0.86110   0.00000  Uiso   1.00
H399   H     0.78660   0.93330   0.86919   0.00000  Uiso   1.00
H400   H     0.80057   0.01215   0.76701   0.00000  Uiso   1.00
H401   H     0.76889   0.96658   0.95122   0.00000  Uiso   1.00
H402   H     0.81188   0.82199   0.89448   0.00000  Uiso   1.00
H403   H     0.78209   0.09832   0.64567   0.00000  Uiso   1.00
H404   H     0.71529   0.00220   0.03408   0.00000  Uiso   1.00
H405   H     0.80595   0.69731   0.91444   0.00000  Uiso   1.00
O406   O     0.67452   0.14587   0.55066   0.00000  Uiso   1.00
O407   O     0.58689   0.01975   0.06025   0.00000  Uiso   1.00
O408   O     0.70583   0.61974   0.90329   0.00000  Uiso   1.00
N409   N     0.60885   0.08112   0.61890   0.00000  Uiso   1.00
N410   N     0.54640   0.99127   0.98203   0.00000  Uiso   1.00
N411   N     0.63115   0.70622   0.87020   0.00000  Uiso   1.00
N412   N     0.72941   0.08561   0.64760   0.00000  Uiso   1.00
N413   N     0.66696   0.99575   0.01073   0.00000  Uiso   1.00
N414   N     0.75172   0.71070   0.89890   0.00000  Uiso   1.00
C415   C     0.15367   0.89169   0.30785   0.00000  Uiso   1.00
C416   C     0.18198   0.90122   0.25207   0.00000  Uiso   1.00
C417   C     0.13832   0.91862   0.19589   0.00000  Uiso   1.00
C418   C     0.17480   0.92488   0.15067   0.00000  Uiso   1.00
C419   C     0.20698   0.94129   0.06244   0.00000  Uiso   1.00
C420   C     0.17864   0.82836   0.35095   0.00000  Uiso   1.00
C421   C     0.13217   0.78451   0.37789   0.00000  Uiso   1.00
C422   C     0.16583   0.72943   0.41591   0.00000  Uiso   1.00
C423   C     0.19283   0.63274   0.48122   0.00000  Uiso   1.00
C424   C     0.19799   0.93188   0.33398   0.00000  Uiso   1.00
C425   C     0.16780   0.97506   0.34668   0.00000  Uiso   1.00
C426   C     0.21776   0.00714   0.37044   0.00000  Uiso   1.00
C427   C     0.27481   0.07118   0.40940   0.00000  Uiso   1.00
C428   C     0.29608   0.87186   0.32747   0.00000  Uiso   1.00
C429   C     0.25933   0.89045   0.26273   0.00000  Uiso   1.00
C430   C     0.29588   0.89668   0.21758   0.00000  Uiso   1.00
C431   C     0.25229   0.91409   0.16134   0.00000  Uiso   1.00
C432   C     0.25598   0.81759   0.36160   0.00000  Uiso   1.00
C433   C     0.28973   0.76257   0.39959   0.00000  Uiso   1.00
C434   C     0.24332   0.71864   0.42659   0.00000  Uiso   1.00
C435   C     0.27534   0.92111   0.34463   0.00000  Uiso   1.00
C436   C     0.32536   0.95312   0.36838   0.00000  Uiso   1.00
C437   C     0.29525   0.99634   0.38111   0.00000  Uiso   1.00
H438   H     0.09345   0.90007   0.29956   0.00000  Uiso   1.00
H439   H     0.07846   0.92695   0.18766   0.00000  Uiso   1.00
H440   H     0.07231   0.79286   0.36965   0.00000  Uiso   1.00
H441   H     0.10794   0.98338   0.33843   0.00000  Uiso   1.00
H442   H     0.09596   0.95198   0.06830   0.00000  Uiso   1.00
H443   H     0.08299   0.66924   0.45204   0.00000  Uiso   1.00
H444   H     0.15811   0.07101   0.38623   0.00000  Uiso   1.00
H445   H     0.35630   0.86347   0.33576   0.00000  Uiso   1.00
H446   H     0.35574   0.88834   0.22584   0.00000  Uiso   1.00
H447   H     0.34959   0.75425   0.40783   0.00000  Uiso   1.00
H448   H     0.38521   0.94478   0.37662   0.00000  Uiso   1.00
H449   H     0.32100   0.92064   0.09929   0.00000  Uiso   1.00
H450   H     0.30803   0.63790   0.48303   0.00000  Uiso   1.00
H451   H     0.38316   0.03967   0.41722   0.00000  Uiso   1.00
O452   O     0.20336   0.95331   0.01084   0.00000  Uiso   1.00
O453   O     0.18635   0.58238   0.51429   0.00000  Uiso   1.00
O454   O     0.28491   0.10949   0.42795   0.00000  Uiso   1.00
N455   N     0.14900   0.94120   0.09068   0.00000  Uiso   1.00
N456   N     0.13687   0.67686   0.44944   0.00000  Uiso   1.00
N457   N     0.20710   0.05246   0.38793   0.00000  Uiso   1.00
N458   N     0.27010   0.92434   0.10735   0.00000  Uiso   1.00
N459   N     0.25797   0.65999   0.46611   0.00000  Uiso   1.00
N460   N     0.32820   0.03560   0.40460   0.00000  Uiso   1.00
C461   C     0.17617   0.40124   0.89930   0.00000  Uiso   1.00
C462   C     0.20184   0.33750   0.94062   0.00000  Uiso   1.00
C463   C     0.15590   0.29266   0.96653   0.00000  Uiso   1.00
C464   C     0.19018   0.23737   0.00298   0.00000  Uiso   1.00
C465   C     0.21827   0.13994   0.06563   0.00000  Uiso   1.00
C466   C     0.22001   0.44030   0.92715   0.00000  Uiso   1.00
C467   C     0.18933   0.48189   0.94172   0.00000  Uiso   1.00
C468   C     0.23890   0.51314   0.96683   0.00000  Uiso   1.00
C469   C     0.29519   0.57533   0.00852   0.00000  Uiso   1.00
C470   C     0.20436   0.41326   0.84292   0.00000  Uiso   1.00
C471   C     0.16053   0.43214   0.78667   0.00000  Uiso   1.00
C472   C     0.19693   0.44064   0.74086   0.00000  Uiso   1.00
C473   C     0.22892   0.46086   0.65178   0.00000  Uiso   1.00
C474   C     0.31874   0.38278   0.91797   0.00000  Uiso   1.00
C475   C     0.27928   0.32748   0.95076   0.00000  Uiso   1.00
C476   C     0.31364   0.27224   0.98718   0.00000  Uiso   1.00
C477   C     0.26776   0.22732   0.01314   0.00000  Uiso   1.00
C478   C     0.29744   0.43028   0.93729   0.00000  Uiso   1.00
C479   C     0.34707   0.46147   0.96238   0.00000  Uiso   1.00
C480   C     0.31648   0.50310   0.97699   0.00000  Uiso   1.00
C481   C     0.28180   0.40324   0.85306   0.00000  Uiso   1.00
C482   C     0.31827   0.41172   0.80733   0.00000  Uiso   1.00
C483   C     0.27451   0.43060   0.75102   0.00000  Uiso   1.00
H484   H     0.11588   0.40904   0.89141   0.00000  Uiso   1.00
H485   H     0.09598   0.30043   0.95868   0.00000  Uiso   1.00
H486   H     0.12941   0.48964   0.93386   0.00000  Uiso   1.00
H487   H     0.10061   0.43989   0.77884   0.00000  Uiso   1.00
H488   H     0.10806   0.17561   0.03775   0.00000  Uiso   1.00
H489   H     0.17855   0.57457   0.98541   0.00000  Uiso   1.00
H490   H     0.11782   0.46967   0.65852   0.00000  Uiso   1.00
H491   H     0.37903   0.37498   0.92586   0.00000  Uiso   1.00
H492   H     0.37357   0.26450   0.99502   0.00000  Uiso   1.00
H493   H     0.40699   0.45371   0.97021   0.00000  Uiso   1.00
H494   H     0.37819   0.40396   0.81519   0.00000  Uiso   1.00
H495   H     0.33336   0.14644   0.06725   0.00000  Uiso   1.00
H496   H     0.40385   0.54541   0.01491   0.00000  Uiso   1.00
H497   H     0.34312   0.44050   0.68802   0.00000  Uiso   1.00
O498   O     0.21238   0.08897   0.09739   0.00000  Uiso   1.00
O499   O     0.30485   0.61240   0.02872   0.00000  Uiso   1.00
O500   O     0.22517   0.47477   0.59984   0.00000  Uiso   1.00
N501   N     0.16184   0.18390   0.03519   0.00000  Uiso   1.00
N502   N     0.22774   0.55691   0.98627   0.00000  Uiso   1.00
N503   N     0.17096   0.45884   0.68065   0.00000  Uiso   1.00
N504   N     0.28307   0.16821   0.05106   0.00000  Uiso   1.00
N505   N     0.34897   0.54121   0.00214   0.00000  Uiso   1.00
N506   N     0.29219   0.44315   0.69652   0.00000  Uiso   1.00
C507   C     0.13644   0.93639   0.79317   0.00000  Uiso   1.00
C508   C     0.16969   0.97433   0.82627   0.00000  Uiso   1.00
C509   C     0.13171   0.01917   0.83140   0.00000  Uiso   1.00
C510   C     0.17207   0.04869   0.86351   0.00000  Uiso   1.00
C511   C     0.21222   0.10988   0.91092   0.00000  Uiso   1.00
C512   C     0.18499   0.94392   0.74831   0.00000  Uiso   1.00
C513   C     0.15985   0.96318   0.68789   0.00000  Uiso   1.00
C514   C     0.21309   0.96710   0.65438   0.00000  Uiso   1.00
C515   C     0.27697   0.98104   0.58077   0.00000  Uiso   1.00
C516   C     0.15005   0.87221   0.83776   0.00000  Uiso   1.00
C517   C     0.09554   0.83117   0.85254   0.00000  Uiso   1.00
C518   C     0.11937   0.77470   0.89433   0.00000  Uiso   1.00
C519   C     0.12900   0.67730   0.95960   0.00000  Uiso   1.00
C520   C     0.27567   0.90909   0.84109   0.00000  Uiso   1.00
C521   C     0.24532   0.95950   0.85229   0.00000  Uiso   1.00
C522   C     0.28575   0.98897   0.88441   0.00000  Uiso   1.00
C523   C     0.24784   0.03384   0.88958   0.00000  Uiso   1.00
C524   C     0.26061   0.92910   0.77434   0.00000  Uiso   1.00
C525   C     0.31390   0.93298   0.74091   0.00000  Uiso   1.00
C526   C     0.28885   0.95225   0.68045   0.00000  Uiso   1.00
C527   C     0.22567   0.85738   0.86379   0.00000  Uiso   1.00
C528   C     0.24959   0.80097   0.90556   0.00000  Uiso   1.00
C529   C     0.19513   0.75985   0.92040   0.00000  Uiso   1.00
H530   H     0.07756   0.94793   0.77291   0.00000  Uiso   1.00
H531   H     0.07319   0.03063   0.81124   0.00000  Uiso   1.00
H532   H     0.10132   0.97465   0.66777   0.00000  Uiso   1.00
H533   H     0.03703   0.84266   0.83239   0.00000  Uiso   1.00
H534   H     0.10169   0.11580   0.86521   0.00000  Uiso   1.00
H535   H     0.16102   0.99774   0.56268   0.00000  Uiso   1.00
H536   H     0.02544   0.71940   0.90982   0.00000  Uiso   1.00
H537   H     0.33455   0.89755   0.86135   0.00000  Uiso   1.00
H538   H     0.34428   0.97748   0.90454   0.00000  Uiso   1.00
H539   H     0.37241   0.92150   0.76106   0.00000  Uiso   1.00
H540   H     0.30812   0.78951   0.92569   0.00000  Uiso   1.00
H541   H     0.32172   0.07266   0.94093   0.00000  Uiso   1.00
H542   H     0.38105   0.95460   0.63840   0.00000  Uiso   1.00
H543   H     0.24547   0.67627   0.98555   0.00000  Uiso   1.00
O544   O     0.21348   0.14774   0.92987   0.00000  Uiso   1.00
O545   O     0.29130   0.99283   0.53297   0.00000  Uiso   1.00
O546   O     0.11343   0.62767   0.98842   0.00000  Uiso   1.00
N547   N     0.15214   0.09467   0.87711   0.00000  Uiso   1.00
N548   N     0.20761   0.98430   0.59427   0.00000  Uiso   1.00
N549   N     0.08085   0.72407   0.91880   0.00000  Uiso   1.00
N550   N     0.27053   0.07146   0.91786   0.00000  Uiso   1.00
N551   N     0.32600   0.96108   0.63501   0.00000  Uiso   1.00
N552   N     0.19925   0.70086   0.95955   0.00000  Uiso   1.00
