data_job_02419
_audit_creation_date              2018-12-19
_audit_creation_method            'Materials Studio'
_symmetry_space_group_name_H-M    'P1'
_symmetry_Int_Tables_number       1
_symmetry_cell_setting            triclinic
loop_
_symmetry_equiv_pos_as_xyz
  x,y,z
_cell_length_a                    23.4891
_cell_length_b                    12.2508
_cell_length_c                    13.2692
_cell_angle_alpha                 90.0000
_cell_angle_beta                  112.4350
_cell_angle_gamma                 90.0000
loop_
_atom_site_label
_atom_site_type_symbol
_atom_site_fract_x
_atom_site_fract_y
_atom_site_fract_z
_atom_site_U_iso_or_equiv
_atom_site_adp_type
_atom_site_occupancy
C1     C     0.30397   0.43633   0.66713   0.00000  Uiso   1.00
C2     C     0.34598   0.51209   0.75544   0.00000  Uiso   1.00
C3     C     0.37500   0.60467   0.73795   0.00000  Uiso   1.00
C4     C     0.41155   0.66302   0.82949   0.00000  Uiso   1.00
C5     C     0.47570   0.78566   0.95061   0.00000  Uiso   1.00
C6     C     0.33191   0.32256   0.69529   0.00000  Uiso   1.00
C7     C     0.34910   0.25580   0.62723   0.00000  Uiso   1.00
C8     C     0.37380   0.15461   0.66814   0.00000  Uiso   1.00
C9     C     0.41607   0.98298   0.69585   0.00000  Uiso   1.00
C10    C     0.24314   0.43252   0.68338   0.00000  Uiso   1.00
C11    C     0.18570   0.45817   0.60529   0.00000  Uiso   1.00
C12    C     0.13566   0.44953   0.63616   0.00000  Uiso   1.00
C13    C     0.04011   0.44863   0.64538   0.00000  Uiso   1.00
C14    C     0.31726   0.37532   0.86080   0.00000  Uiso   1.00
C15    C     0.35319   0.47895   0.86063   0.00000  Uiso   1.00
C16    C     0.38971   0.53718   0.95222   0.00000  Uiso   1.00
C17    C     0.41878   0.62983   0.93487   0.00000  Uiso   1.00
C18    C     0.33913   0.28943   0.80048   0.00000  Uiso   1.00
C19    C     0.36381   0.18831   0.84150   0.00000  Uiso   1.00
C20    C     0.38104   0.12141   0.77352   0.00000  Uiso   1.00
C21    C     0.25036   0.39939   0.78857   0.00000  Uiso   1.00
C22    C     0.20040   0.39069   0.81957   0.00000  Uiso   1.00
C23    C     0.14289   0.41633   0.74155   0.00000  Uiso   1.00
H24    H     0.29835   0.46212   0.58523   0.00000  Uiso   1.00
H25    H     0.36941   0.63028   0.65653   0.00000  Uiso   1.00
H26    H     0.34350   0.28146   0.54582   0.00000  Uiso   1.00
H27    H     0.18013   0.48381   0.52390   0.00000  Uiso   1.00
H28    H     0.45139   0.80208   0.78197   0.00000  Uiso   1.00
H29    H     0.39675   0.06656   0.54853   0.00000  Uiso   1.00
H30    H     0.05224   0.49326   0.50228   0.00000  Uiso   1.00
H31    H     0.32288   0.34952   0.94270   0.00000  Uiso   1.00
H32    H     0.39529   0.51151   0.03362   0.00000  Uiso   1.00
H33    H     0.36938   0.16269   0.92290   0.00000  Uiso   1.00
H34    H     0.20601   0.36504   0.90098   0.00000  Uiso   1.00
H35    H     0.47240   0.70568   0.08803   0.00000  Uiso   1.00
H36    H     0.41775   0.97016   0.85458   0.00000  Uiso   1.00
H37    H     0.07324   0.39686   0.80834   0.00000  Uiso   1.00
O38    O     0.50910   0.86245   0.98836   0.00000  Uiso   1.00
O39    O     0.43740   0.89748   0.68208   0.00000  Uiso   1.00
O40    O     0.98541   0.45730   0.62141   0.00000  Uiso   1.00
N41    N     0.44639   0.75718   0.84152   0.00000  Uiso   1.00
N42    N     0.39531   0.06952   0.62327   0.00000  Uiso   1.00
N43    N     0.07322   0.46841   0.58003   0.00000  Uiso   1.00
N44    N     0.45769   0.70531   0.00621   0.00000  Uiso   1.00
N45    N     0.40661   0.01765   0.78796   0.00000  Uiso   1.00
N46    N     0.08452   0.41654   0.74471   0.00000  Uiso   1.00
C47    C     0.69603   0.43633   0.83287   0.00000  Uiso   1.00
C48    C     0.65402   0.51209   0.74456   0.00000  Uiso   1.00
C49    C     0.62500   0.60467   0.76205   0.00000  Uiso   1.00
C50    C     0.58845   0.66302   0.67051   0.00000  Uiso   1.00
C51    C     0.52430   0.78566   0.54939   0.00000  Uiso   1.00
C52    C     0.66809   0.32256   0.80471   0.00000  Uiso   1.00
C53    C     0.65090   0.25580   0.87277   0.00000  Uiso   1.00
C54    C     0.62620   0.15461   0.83186   0.00000  Uiso   1.00
C55    C     0.58393   0.98298   0.80415   0.00000  Uiso   1.00
C56    C     0.75686   0.43252   0.81662   0.00000  Uiso   1.00
C57    C     0.81430   0.45817   0.89471   0.00000  Uiso   1.00
C58    C     0.86434   0.44953   0.86384   0.00000  Uiso   1.00
C59    C     0.95989   0.44863   0.85462   0.00000  Uiso   1.00
C60    C     0.68274   0.37532   0.63920   0.00000  Uiso   1.00
C61    C     0.64681   0.47895   0.63937   0.00000  Uiso   1.00
C62    C     0.61029   0.53718   0.54778   0.00000  Uiso   1.00
C63    C     0.58122   0.62983   0.56513   0.00000  Uiso   1.00
C64    C     0.66087   0.28943   0.69952   0.00000  Uiso   1.00
C65    C     0.63619   0.18831   0.65850   0.00000  Uiso   1.00
C66    C     0.61896   0.12141   0.72648   0.00000  Uiso   1.00
C67    C     0.74964   0.39939   0.71143   0.00000  Uiso   1.00
C68    C     0.79960   0.39069   0.68043   0.00000  Uiso   1.00
C69    C     0.85711   0.41633   0.75845   0.00000  Uiso   1.00
H70    H     0.70165   0.46212   0.91477   0.00000  Uiso   1.00
H71    H     0.63059   0.63028   0.84347   0.00000  Uiso   1.00
H72    H     0.65650   0.28146   0.95418   0.00000  Uiso   1.00
H73    H     0.81987   0.48381   0.97610   0.00000  Uiso   1.00
H74    H     0.54861   0.80208   0.71803   0.00000  Uiso   1.00
H75    H     0.60325   0.06656   0.95147   0.00000  Uiso   1.00
H76    H     0.94776   0.49326   0.99772   0.00000  Uiso   1.00
H77    H     0.67712   0.34952   0.55730   0.00000  Uiso   1.00
H78    H     0.60471   0.51151   0.46638   0.00000  Uiso   1.00
H79    H     0.63062   0.16269   0.57710   0.00000  Uiso   1.00
H80    H     0.79399   0.36504   0.59902   0.00000  Uiso   1.00
H81    H     0.52760   0.70568   0.41197   0.00000  Uiso   1.00
H82    H     0.58225   0.97016   0.64542   0.00000  Uiso   1.00
H83    H     0.92676   0.39686   0.69166   0.00000  Uiso   1.00
O84    O     0.49090   0.86245   0.51164   0.00000  Uiso   1.00
O85    O     0.56260   0.89748   0.81792   0.00000  Uiso   1.00
O86    O     0.01459   0.45730   0.87859   0.00000  Uiso   1.00
N87    N     0.55361   0.75718   0.65848   0.00000  Uiso   1.00
N88    N     0.60469   0.06952   0.87673   0.00000  Uiso   1.00
N89    N     0.92678   0.46841   0.91997   0.00000  Uiso   1.00
N90    N     0.54231   0.70531   0.49379   0.00000  Uiso   1.00
N91    N     0.59339   0.01765   0.71204   0.00000  Uiso   1.00
N92    N     0.91548   0.41654   0.75529   0.00000  Uiso   1.00
C93    C     0.69603   0.56367   0.33287   0.00000  Uiso   1.00
C94    C     0.65402   0.48791   0.24456   0.00000  Uiso   1.00
C95    C     0.62500   0.39533   0.26205   0.00000  Uiso   1.00
C96    C     0.58845   0.33698   0.17051   0.00000  Uiso   1.00
C97    C     0.52430   0.21434   0.04939   0.00000  Uiso   1.00
C98    C     0.66809   0.67744   0.30471   0.00000  Uiso   1.00
C99    C     0.65090   0.74420   0.37277   0.00000  Uiso   1.00
C100   C     0.62620   0.84539   0.33186   0.00000  Uiso   1.00
C101   C     0.58393   0.01702   0.30415   0.00000  Uiso   1.00
C102   C     0.75686   0.56748   0.31662   0.00000  Uiso   1.00
C103   C     0.81430   0.54183   0.39471   0.00000  Uiso   1.00
C104   C     0.86434   0.55047   0.36384   0.00000  Uiso   1.00
C105   C     0.95989   0.55137   0.35462   0.00000  Uiso   1.00
C106   C     0.68274   0.62468   0.13920   0.00000  Uiso   1.00
C107   C     0.64681   0.52105   0.13937   0.00000  Uiso   1.00
C108   C     0.61029   0.46282   0.04778   0.00000  Uiso   1.00
C109   C     0.58122   0.37017   0.06513   0.00000  Uiso   1.00
C110   C     0.66087   0.71057   0.19952   0.00000  Uiso   1.00
C111   C     0.63619   0.81169   0.15850   0.00000  Uiso   1.00
C112   C     0.61896   0.87859   0.22648   0.00000  Uiso   1.00
C113   C     0.74964   0.60061   0.21143   0.00000  Uiso   1.00
C114   C     0.79960   0.60931   0.18043   0.00000  Uiso   1.00
C115   C     0.85711   0.58367   0.25845   0.00000  Uiso   1.00
H116   H     0.70165   0.53788   0.41477   0.00000  Uiso   1.00
H117   H     0.63059   0.36972   0.34347   0.00000  Uiso   1.00
H118   H     0.65650   0.71854   0.45418   0.00000  Uiso   1.00
H119   H     0.81987   0.51619   0.47610   0.00000  Uiso   1.00
H120   H     0.54861   0.19792   0.21803   0.00000  Uiso   1.00
H121   H     0.60325   0.93344   0.45147   0.00000  Uiso   1.00
H122   H     0.94776   0.50674   0.49772   0.00000  Uiso   1.00
H123   H     0.67712   0.65048   0.05730   0.00000  Uiso   1.00
H124   H     0.60471   0.48849   0.96638   0.00000  Uiso   1.00
H125   H     0.63062   0.83731   0.07710   0.00000  Uiso   1.00
H126   H     0.79399   0.63496   0.09902   0.00000  Uiso   1.00
H127   H     0.52760   0.29432   0.91197   0.00000  Uiso   1.00
H128   H     0.58225   0.02984   0.14542   0.00000  Uiso   1.00
H129   H     0.92676   0.60314   0.19166   0.00000  Uiso   1.00
O130   O     0.49090   0.13755   0.01164   0.00000  Uiso   1.00
O131   O     0.56260   0.10252   0.31792   0.00000  Uiso   1.00
O132   O     0.01459   0.54270   0.37859   0.00000  Uiso   1.00
N133   N     0.55361   0.24282   0.15848   0.00000  Uiso   1.00
N134   N     0.60469   0.93048   0.37673   0.00000  Uiso   1.00
N135   N     0.92678   0.53159   0.41997   0.00000  Uiso   1.00
N136   N     0.54231   0.29469   0.99379   0.00000  Uiso   1.00
N137   N     0.59339   0.98235   0.21204   0.00000  Uiso   1.00
N138   N     0.91548   0.58346   0.25529   0.00000  Uiso   1.00
C139   C     0.30397   0.56367   0.16713   0.00000  Uiso   1.00
C140   C     0.34598   0.48791   0.25544   0.00000  Uiso   1.00
C141   C     0.37500   0.39533   0.23795   0.00000  Uiso   1.00
C142   C     0.41155   0.33698   0.32949   0.00000  Uiso   1.00
C143   C     0.47570   0.21434   0.45061   0.00000  Uiso   1.00
C144   C     0.33191   0.67744   0.19529   0.00000  Uiso   1.00
C145   C     0.34910   0.74420   0.12723   0.00000  Uiso   1.00
C146   C     0.37380   0.84539   0.16814   0.00000  Uiso   1.00
C147   C     0.41607   0.01702   0.19585   0.00000  Uiso   1.00
C148   C     0.24314   0.56748   0.18338   0.00000  Uiso   1.00
C149   C     0.18570   0.54183   0.10529   0.00000  Uiso   1.00
C150   C     0.13566   0.55047   0.13616   0.00000  Uiso   1.00
C151   C     0.04011   0.55137   0.14538   0.00000  Uiso   1.00
C152   C     0.31726   0.62468   0.36080   0.00000  Uiso   1.00
C153   C     0.35319   0.52105   0.36063   0.00000  Uiso   1.00
C154   C     0.38971   0.46282   0.45222   0.00000  Uiso   1.00
C155   C     0.41878   0.37017   0.43487   0.00000  Uiso   1.00
C156   C     0.33913   0.71057   0.30048   0.00000  Uiso   1.00
C157   C     0.36381   0.81169   0.34150   0.00000  Uiso   1.00
C158   C     0.38104   0.87859   0.27352   0.00000  Uiso   1.00
C159   C     0.25036   0.60061   0.28857   0.00000  Uiso   1.00
C160   C     0.20040   0.60931   0.31957   0.00000  Uiso   1.00
C161   C     0.14289   0.58367   0.24155   0.00000  Uiso   1.00
H162   H     0.29835   0.53788   0.08523   0.00000  Uiso   1.00
H163   H     0.36941   0.36972   0.15653   0.00000  Uiso   1.00
H164   H     0.34350   0.71854   0.04582   0.00000  Uiso   1.00
H165   H     0.18013   0.51619   0.02390   0.00000  Uiso   1.00
H166   H     0.45139   0.19792   0.28197   0.00000  Uiso   1.00
H167   H     0.39675   0.93344   0.04853   0.00000  Uiso   1.00
H168   H     0.05224   0.50674   0.00228   0.00000  Uiso   1.00
H169   H     0.32288   0.65048   0.44270   0.00000  Uiso   1.00
H170   H     0.39529   0.48849   0.53362   0.00000  Uiso   1.00
H171   H     0.36938   0.83731   0.42290   0.00000  Uiso   1.00
H172   H     0.20601   0.63496   0.40098   0.00000  Uiso   1.00
H173   H     0.47240   0.29432   0.58803   0.00000  Uiso   1.00
H174   H     0.41775   0.02984   0.35458   0.00000  Uiso   1.00
H175   H     0.07324   0.60314   0.30834   0.00000  Uiso   1.00
O176   O     0.50910   0.13755   0.48836   0.00000  Uiso   1.00
O177   O     0.43740   0.10252   0.18208   0.00000  Uiso   1.00
O178   O     0.98541   0.54270   0.12141   0.00000  Uiso   1.00
N179   N     0.44639   0.24282   0.34152   0.00000  Uiso   1.00
N180   N     0.39531   0.93048   0.12327   0.00000  Uiso   1.00
N181   N     0.07322   0.53159   0.08003   0.00000  Uiso   1.00
N182   N     0.45769   0.29469   0.50621   0.00000  Uiso   1.00
N183   N     0.40661   0.98235   0.28796   0.00000  Uiso   1.00
N184   N     0.08452   0.58346   0.24471   0.00000  Uiso   1.00
