data_job_05951
_audit_creation_date              2018-12-19
_audit_creation_method            'Materials Studio'
_symmetry_space_group_name_H-M    'P1'
_symmetry_Int_Tables_number       1
_symmetry_cell_setting            triclinic
loop_
_symmetry_equiv_pos_as_xyz
  x,y,z
_cell_length_a                    12.0895
_cell_length_b                    22.2572
_cell_length_c                    22.3190
_cell_angle_alpha                 62.6070
_cell_angle_beta                  81.3077
_cell_angle_gamma                 98.6555
loop_
_atom_site_label
_atom_site_type_symbol
_atom_site_fract_x
_atom_site_fract_y
_atom_site_fract_z
_atom_site_U_iso_or_equiv
_atom_site_adp_type
_atom_site_occupancy
C1     C     0.62129   0.45857   0.40865   0.00000  Uiso   1.00
C2     C     0.73923   0.50861   0.38700   0.00000  Uiso   1.00
C3     C     0.78609   0.53105   0.42848   0.00000  Uiso   1.00
C4     C     0.89517   0.57687   0.39906   0.00000  Uiso   1.00
C5     C     0.06916   0.65117   0.37584   0.00000  Uiso   1.00
C6     C     0.55635   0.49713   0.35506   0.00000  Uiso   1.00
C7     C     0.44944   0.50990   0.36969   0.00000  Uiso   1.00
C8     C     0.40457   0.54604   0.31338   0.00000  Uiso   1.00
C9     C     0.29459   0.60247   0.24058   0.00000  Uiso   1.00
C10    C     0.64394   0.39841   0.39754   0.00000  Uiso   1.00
C11    C     0.61065   0.32816   0.44788   0.00000  Uiso   1.00
C12    C     0.63951   0.28119   0.42733   0.00000  Uiso   1.00
C13    C     0.66553   0.18433   0.42049   0.00000  Uiso   1.00
C14    C     0.73168   0.50005   0.28265   0.00000  Uiso   1.00
C15    C     0.79919   0.53114   0.31856   0.00000  Uiso   1.00
C16    C     0.90823   0.57693   0.28907   0.00000  Uiso   1.00
C17    C     0.95525   0.59943   0.33050   0.00000  Uiso   1.00
C18    C     0.61630   0.51965   0.28663   0.00000  Uiso   1.00
C19    C     0.57158   0.55578   0.23029   0.00000  Uiso   1.00
C20    C     0.46464   0.56861   0.24482   0.00000  Uiso   1.00
C21    C     0.70390   0.42093   0.32911   0.00000  Uiso   1.00
C22    C     0.73280   0.37405   0.30848   0.00000  Uiso   1.00
C23    C     0.69958   0.30375   0.35877   0.00000  Uiso   1.00
H24    H     0.57460   0.44104   0.46193   0.00000  Uiso   1.00
H25    H     0.73965   0.51361   0.48143   0.00000  Uiso   1.00
H26    H     0.40305   0.49245   0.42265   0.00000  Uiso   1.00
H27    H     0.56425   0.31075   0.50083   0.00000  Uiso   1.00
H28    H     0.94907   0.60402   0.47287   0.00000  Uiso   1.00
H29    H     0.23931   0.55940   0.34893   0.00000  Uiso   1.00
H30    H     0.57923   0.17624   0.51379   0.00000  Uiso   1.00
H31    H     0.77837   0.51759   0.22937   0.00000  Uiso   1.00
H32    H     0.95461   0.59436   0.23611   0.00000  Uiso   1.00
H33    H     0.61800   0.57320   0.17733   0.00000  Uiso   1.00
H34    H     0.77921   0.39150   0.25551   0.00000  Uiso   1.00
H35    H     0.12354   0.66957   0.27375   0.00000  Uiso   1.00
H36    H     0.41377   0.62494   0.14982   0.00000  Uiso   1.00
H37    H     0.75370   0.24178   0.31467   0.00000  Uiso   1.00
O38    O     0.14855   0.68594   0.38193   0.00000  Uiso   1.00
O39    O     0.21736   0.62737   0.21934   0.00000  Uiso   1.00
O40    O     0.66333   0.12468   0.43562   0.00000  Uiso   1.00
N41    N     0.96596   0.60890   0.42508   0.00000  Uiso   1.00
N42    N     0.30238   0.56719   0.30921   0.00000  Uiso   1.00
N43    N     0.62015   0.20896   0.46333   0.00000  Uiso   1.00
N44    N     0.05984   0.64417   0.31794   0.00000  Uiso   1.00
N45    N     0.39626   0.60245   0.20207   0.00000  Uiso   1.00
N46    N     0.71403   0.24423   0.35619   0.00000  Uiso   1.00
C47    C     0.16360   0.13077   0.46251   0.00000  Uiso   1.00
C48    C     0.23569   0.10153   0.51482   0.00000  Uiso   1.00
C49    C     0.26211   0.03719   0.53810   0.00000  Uiso   1.00
C50    C     0.32919   0.02001   0.58603   0.00000  Uiso   1.00
C51    C     0.43512   0.96765   0.66367   0.00000  Uiso   1.00
C52    C     0.06508   0.14723   0.49891   0.00000  Uiso   1.00
C53    C     0.94804   0.12132   0.50880   0.00000  Uiso   1.00
C54    C     0.87151   0.14262   0.54333   0.00000  Uiso   1.00
C55    C     0.71256   0.16125   0.59622   0.00000  Uiso   1.00
C56    C     0.23949   0.20107   0.40377   0.00000  Uiso   1.00
C57    C     0.26907   0.22044   0.33366   0.00000  Uiso   1.00
C58    C     0.33935   0.28708   0.28809   0.00000  Uiso   1.00
C59    C     0.45119   0.38931   0.19327   0.00000  Uiso   1.00
C60    C     0.23578   0.21469   0.50624   0.00000  Uiso   1.00
C61    C     0.27489   0.14711   0.53858   0.00000  Uiso   1.00
C62    C     0.34196   0.13003   0.58649   0.00000  Uiso   1.00
C63    C     0.36847   0.06567   0.60983   0.00000  Uiso   1.00
C64    C     0.10428   0.19281   0.52266   0.00000  Uiso   1.00
C65    C     0.02790   0.21416   0.55718   0.00000  Uiso   1.00
C66    C     0.91078   0.18829   0.56713   0.00000  Uiso   1.00
C67    C     0.27869   0.24665   0.42753   0.00000  Uiso   1.00
C68    C     0.34893   0.31328   0.38205   0.00000  Uiso   1.00
C69    C     0.37862   0.33275   0.31189   0.00000  Uiso   1.00
H70    H     0.13307   0.09529   0.44401   0.00000  Uiso   1.00
H71    H     0.23174   0.00192   0.51970   0.00000  Uiso   1.00
H72    H     0.91773   0.08605   0.49040   0.00000  Uiso   1.00
H73    H     0.23871   0.18515   0.31530   0.00000  Uiso   1.00
H74    H     0.35838   0.91850   0.61411   0.00000  Uiso   1.00
H75    H     0.69628   0.09590   0.55231   0.00000  Uiso   1.00
H76    H     0.37313   0.30489   0.18307   0.00000  Uiso   1.00
H77    H     0.26630   0.25018   0.52474   0.00000  Uiso   1.00
H78    H     0.37229   0.16531   0.60486   0.00000  Uiso   1.00
H79    H     0.05827   0.24944   0.57556   0.00000  Uiso   1.00
H80    H     0.37925   0.34854   0.40046   0.00000  Uiso   1.00
H81    H     0.47245   0.05111   0.68323   0.00000  Uiso   1.00
H82    H     0.81035   0.22852   0.62142   0.00000  Uiso   1.00
H83    H     0.48719   0.43750   0.25218   0.00000  Uiso   1.00
O84    O     0.48270   0.92617   0.69994   0.00000  Uiso   1.00
O85    O     0.61405   0.15893   0.61884   0.00000  Uiso   1.00
O86    O     0.50206   0.43311   0.13441   0.00000  Uiso   1.00
N87    N     0.37070   0.96136   0.61938   0.00000  Uiso   1.00
N88    N     0.75168   0.12722   0.56160   0.00000  Uiso   1.00
N89    N     0.38445   0.32260   0.21639   0.00000  Uiso   1.00
N90    N     0.43209   0.03272   0.65657   0.00000  Uiso   1.00
N91    N     0.81306   0.19857   0.59879   0.00000  Uiso   1.00
N92    N     0.44583   0.39396   0.25358   0.00000  Uiso   1.00
C93    C     0.02386   0.40397   0.13544   0.00000  Uiso   1.00
C94    C     0.12117   0.37951   0.10839   0.00000  Uiso   1.00
C95    C     0.20451   0.41941   0.04562   0.00000  Uiso   1.00
C96    C     0.28614   0.38748   0.03035   0.00000  Uiso   1.00
C97    C     0.43747   0.36002   0.98136   0.00000  Uiso   1.00
C98    C     0.91186   0.35248   0.14916   0.00000  Uiso   1.00
C99    C     0.81920   0.36967   0.12066   0.00000  Uiso   1.00
C100   C     0.72461   0.31498   0.13971   0.00000  Uiso   1.00
C101   C     0.55094   0.24558   0.15404   0.00000  Uiso   1.00
C102   C     0.03634   0.39243   0.20668   0.00000  Uiso   1.00
C103   C     0.04831   0.44319   0.22656   0.00000  Uiso   1.00
C104   C     0.05851   0.42213   0.29405   0.00000  Uiso   1.00
C105   C     0.07811   0.41475   0.39770   0.00000  Uiso   1.00
C106   C     0.02064   0.27629   0.21996   0.00000  Uiso   1.00
C107   C     0.11942   0.31015   0.15430   0.00000  Uiso   1.00
C108   C     0.20094   0.27815   0.13913   0.00000  Uiso   1.00
C109   C     0.28439   0.31800   0.07634   0.00000  Uiso   1.00
C110   C     0.91010   0.28313   0.19506   0.00000  Uiso   1.00
C111   C     0.81563   0.22840   0.21417   0.00000  Uiso   1.00
C112   C     0.72286   0.24550   0.18570   0.00000  Uiso   1.00
C113   C     0.03459   0.32307   0.25259   0.00000  Uiso   1.00
C114   C     0.04475   0.30193   0.32007   0.00000  Uiso   1.00
C115   C     0.05675   0.35265   0.34005   0.00000  Uiso   1.00
H116   H     0.02522   0.45796   0.09970   0.00000  Uiso   1.00
H117   H     0.20583   0.47308   0.01010   0.00000  Uiso   1.00
H118   H     0.82057   0.42334   0.08514   0.00000  Uiso   1.00
H119   H     0.04967   0.49686   0.19102   0.00000  Uiso   1.00
H120   H     0.40527   0.45925   0.93100   0.00000  Uiso   1.00
H121   H     0.59292   0.35438   0.08924   0.00000  Uiso   1.00
H122   H     0.07600   0.50939   0.31251   0.00000  Uiso   1.00
H123   H     0.01927   0.22229   0.25570   0.00000  Uiso   1.00
H124   H     0.19956   0.22448   0.17466   0.00000  Uiso   1.00
H125   H     0.81430   0.17474   0.24970   0.00000  Uiso   1.00
H126   H     0.04339   0.24825   0.35558   0.00000  Uiso   1.00
H127   H     0.40018   0.25747   0.06457   0.00000  Uiso   1.00
H128   H     0.58783   0.15260   0.22280   0.00000  Uiso   1.00
H129   H     0.07091   0.30761   0.44608   0.00000  Uiso   1.00
O130   O     0.52141   0.36404   0.94165   0.00000  Uiso   1.00
O131   O     0.45563   0.22646   0.14926   0.00000  Uiso   1.00
O132   O     0.08943   0.42983   0.44219   0.00000  Uiso   1.00
N133   N     0.37935   0.41146   0.97356   0.00000  Uiso   1.00
N134   N     0.61985   0.31342   0.12149   0.00000  Uiso   1.00
N135   N     0.07146   0.45834   0.33024   0.00000  Uiso   1.00
N136   N     0.37661   0.30289   0.04543   0.00000  Uiso   1.00
N137   N     0.61712   0.20484   0.19336   0.00000  Uiso   1.00
N138   N     0.06872   0.34976   0.40212   0.00000  Uiso   1.00
C139   C     0.37871   0.54143   0.59135   0.00000  Uiso   1.00
C140   C     0.26077   0.49139   0.61300   0.00000  Uiso   1.00
C141   C     0.21391   0.46895   0.57152   0.00000  Uiso   1.00
C142   C     0.10483   0.42313   0.60094   0.00000  Uiso   1.00
C143   C     0.93084   0.34883   0.62416   0.00000  Uiso   1.00
C144   C     0.44365   0.50287   0.64494   0.00000  Uiso   1.00
C145   C     0.55056   0.49010   0.63031   0.00000  Uiso   1.00
C146   C     0.59543   0.45396   0.68662   0.00000  Uiso   1.00
C147   C     0.70541   0.39753   0.75942   0.00000  Uiso   1.00
C148   C     0.35606   0.60159   0.60246   0.00000  Uiso   1.00
C149   C     0.38935   0.67184   0.55212   0.00000  Uiso   1.00
C150   C     0.36049   0.71881   0.57267   0.00000  Uiso   1.00
C151   C     0.33447   0.81567   0.57951   0.00000  Uiso   1.00
C152   C     0.26832   0.49995   0.71735   0.00000  Uiso   1.00
C153   C     0.20081   0.46886   0.68144   0.00000  Uiso   1.00
C154   C     0.09177   0.42307   0.71093   0.00000  Uiso   1.00
C155   C     0.04475   0.40056   0.66950   0.00000  Uiso   1.00
C156   C     0.38370   0.48035   0.71337   0.00000  Uiso   1.00
C157   C     0.42842   0.44422   0.76971   0.00000  Uiso   1.00
C158   C     0.53536   0.43139   0.75518   0.00000  Uiso   1.00
C159   C     0.29610   0.57907   0.67089   0.00000  Uiso   1.00
C160   C     0.26720   0.62595   0.69152   0.00000  Uiso   1.00
C161   C     0.30042   0.69625   0.64123   0.00000  Uiso   1.00
H162   H     0.42540   0.55896   0.53807   0.00000  Uiso   1.00
H163   H     0.26035   0.48639   0.51857   0.00000  Uiso   1.00
H164   H     0.59695   0.50755   0.57735   0.00000  Uiso   1.00
H165   H     0.43575   0.68925   0.49917   0.00000  Uiso   1.00
H166   H     0.05093   0.39598   0.52713   0.00000  Uiso   1.00
H167   H     0.76069   0.44060   0.65107   0.00000  Uiso   1.00
H168   H     0.42077   0.82376   0.48621   0.00000  Uiso   1.00
H169   H     0.22163   0.48241   0.77063   0.00000  Uiso   1.00
H170   H     0.04539   0.40564   0.76389   0.00000  Uiso   1.00
H171   H     0.38200   0.42680   0.82267   0.00000  Uiso   1.00
H172   H     0.22079   0.60850   0.74449   0.00000  Uiso   1.00
H173   H     0.87646   0.33043   0.72625   0.00000  Uiso   1.00
H174   H     0.58623   0.37506   0.85018   0.00000  Uiso   1.00
H175   H     0.24630   0.75822   0.68533   0.00000  Uiso   1.00
O176   O     0.85145   0.31406   0.61807   0.00000  Uiso   1.00
O177   O     0.78264   0.37263   0.78066   0.00000  Uiso   1.00
O178   O     0.33667   0.87532   0.56438   0.00000  Uiso   1.00
N179   N     0.03404   0.39110   0.57492   0.00000  Uiso   1.00
N180   N     0.69762   0.43281   0.69079   0.00000  Uiso   1.00
N181   N     0.37985   0.79104   0.53667   0.00000  Uiso   1.00
N182   N     0.94016   0.35583   0.68206   0.00000  Uiso   1.00
N183   N     0.60374   0.39755   0.79793   0.00000  Uiso   1.00
N184   N     0.28597   0.75577   0.64381   0.00000  Uiso   1.00
C185   C     0.83640   0.86923   0.53749   0.00000  Uiso   1.00
C186   C     0.76431   0.89847   0.48518   0.00000  Uiso   1.00
C187   C     0.73789   0.96281   0.46190   0.00000  Uiso   1.00
C188   C     0.67081   0.97999   0.41397   0.00000  Uiso   1.00
C189   C     0.56488   0.03235   0.33633   0.00000  Uiso   1.00
C190   C     0.93492   0.85277   0.50109   0.00000  Uiso   1.00
C191   C     0.05196   0.87868   0.49120   0.00000  Uiso   1.00
C192   C     0.12849   0.85738   0.45667   0.00000  Uiso   1.00
C193   C     0.28744   0.83875   0.40378   0.00000  Uiso   1.00
C194   C     0.76051   0.79893   0.59623   0.00000  Uiso   1.00
C195   C     0.73093   0.77956   0.66634   0.00000  Uiso   1.00
C196   C     0.66065   0.71292   0.71191   0.00000  Uiso   1.00
C197   C     0.54881   0.61069   0.80673   0.00000  Uiso   1.00
C198   C     0.76422   0.78531   0.49376   0.00000  Uiso   1.00
C199   C     0.72511   0.85289   0.46142   0.00000  Uiso   1.00
C200   C     0.65804   0.86997   0.41352   0.00000  Uiso   1.00
C201   C     0.63153   0.93433   0.39017   0.00000  Uiso   1.00
C202   C     0.89572   0.80719   0.47734   0.00000  Uiso   1.00
C203   C     0.97210   0.78584   0.44282   0.00000  Uiso   1.00
C204   C     0.08922   0.81171   0.43287   0.00000  Uiso   1.00
C205   C     0.72131   0.75335   0.57247   0.00000  Uiso   1.00
C206   C     0.65107   0.68672   0.61795   0.00000  Uiso   1.00
C207   C     0.62138   0.66725   0.68811   0.00000  Uiso   1.00
H208   H     0.86693   0.90471   0.55599   0.00000  Uiso   1.00
H209   H     0.76826   0.99808   0.48030   0.00000  Uiso   1.00
H210   H     0.08227   0.91395   0.50960   0.00000  Uiso   1.00
H211   H     0.76129   0.81485   0.68470   0.00000  Uiso   1.00
H212   H     0.64162   0.08150   0.38589   0.00000  Uiso   1.00
H213   H     0.30372   0.90410   0.44769   0.00000  Uiso   1.00
H214   H     0.62687   0.69511   0.81693   0.00000  Uiso   1.00
H215   H     0.73370   0.74982   0.47526   0.00000  Uiso   1.00
H216   H     0.62771   0.83469   0.39514   0.00000  Uiso   1.00
H217   H     0.94173   0.75056   0.42444   0.00000  Uiso   1.00
H218   H     0.62075   0.65146   0.59954   0.00000  Uiso   1.00
H219   H     0.52755   0.94889   0.31677   0.00000  Uiso   1.00
H220   H     0.18965   0.77148   0.37858   0.00000  Uiso   1.00
H221   H     0.51281   0.56250   0.74782   0.00000  Uiso   1.00
O222   O     0.51730   0.07383   0.30006   0.00000  Uiso   1.00
O223   O     0.38595   0.84107   0.38116   0.00000  Uiso   1.00
O224   O     0.49794   0.56689   0.86559   0.00000  Uiso   1.00
N225   N     0.62930   0.03864   0.38062   0.00000  Uiso   1.00
N226   N     0.24832   0.87278   0.43840   0.00000  Uiso   1.00
N227   N     0.61555   0.67740   0.78361   0.00000  Uiso   1.00
N228   N     0.56791   0.96728   0.34343   0.00000  Uiso   1.00
N229   N     0.18694   0.80143   0.40121   0.00000  Uiso   1.00
N230   N     0.55417   0.60604   0.74642   0.00000  Uiso   1.00
C231   C     0.97614   0.59603   0.86456   0.00000  Uiso   1.00
C232   C     0.87883   0.62049   0.89161   0.00000  Uiso   1.00
C233   C     0.79549   0.58059   0.95438   0.00000  Uiso   1.00
C234   C     0.71386   0.61252   0.96965   0.00000  Uiso   1.00
C235   C     0.56253   0.63998   0.01864   0.00000  Uiso   1.00
C236   C     0.08814   0.64752   0.85084   0.00000  Uiso   1.00
C237   C     0.18080   0.63033   0.87934   0.00000  Uiso   1.00
C238   C     0.27539   0.68502   0.86029   0.00000  Uiso   1.00
C239   C     0.44906   0.75442   0.84596   0.00000  Uiso   1.00
C240   C     0.96366   0.60757   0.79332   0.00000  Uiso   1.00
C241   C     0.95169   0.55681   0.77344   0.00000  Uiso   1.00
C242   C     0.94149   0.57787   0.70595   0.00000  Uiso   1.00
C243   C     0.92188   0.58525   0.60230   0.00000  Uiso   1.00
C244   C     0.97936   0.72371   0.78004   0.00000  Uiso   1.00
C245   C     0.88058   0.68985   0.84570   0.00000  Uiso   1.00
C246   C     0.79906   0.72185   0.86087   0.00000  Uiso   1.00
C247   C     0.71561   0.68200   0.92366   0.00000  Uiso   1.00
C248   C     0.08990   0.71687   0.80494   0.00000  Uiso   1.00
C249   C     0.18437   0.77160   0.78583   0.00000  Uiso   1.00
C250   C     0.27714   0.75450   0.81430   0.00000  Uiso   1.00
C251   C     0.96541   0.67693   0.74741   0.00000  Uiso   1.00
C252   C     0.95525   0.69807   0.67993   0.00000  Uiso   1.00
C253   C     0.94325   0.64735   0.65995   0.00000  Uiso   1.00
H254   H     0.97478   0.54204   0.90030   0.00000  Uiso   1.00
H255   H     0.79417   0.52692   0.98990   0.00000  Uiso   1.00
H256   H     0.17943   0.57666   0.91486   0.00000  Uiso   1.00
H257   H     0.95033   0.50314   0.80898   0.00000  Uiso   1.00
H258   H     0.59473   0.54075   0.06900   0.00000  Uiso   1.00
H259   H     0.40708   0.64562   0.91076   0.00000  Uiso   1.00
H260   H     0.92400   0.49061   0.68749   0.00000  Uiso   1.00
H261   H     0.98073   0.77771   0.74430   0.00000  Uiso   1.00
H262   H     0.80043   0.77552   0.82534   0.00000  Uiso   1.00
H263   H     0.18570   0.82526   0.75030   0.00000  Uiso   1.00
H264   H     0.95660   0.75175   0.64442   0.00000  Uiso   1.00
H265   H     0.59982   0.74253   0.93543   0.00000  Uiso   1.00
H266   H     0.41217   0.84740   0.77720   0.00000  Uiso   1.00
H267   H     0.92909   0.69239   0.55392   0.00000  Uiso   1.00
O268   O     0.47859   0.63596   0.05835   0.00000  Uiso   1.00
O269   O     0.54437   0.77354   0.85074   0.00000  Uiso   1.00
O270   O     0.91057   0.57017   0.55781   0.00000  Uiso   1.00
N271   N     0.62065   0.58854   0.02644   0.00000  Uiso   1.00
N272   N     0.38015   0.68658   0.87851   0.00000  Uiso   1.00
N273   N     0.92854   0.54166   0.66976   0.00000  Uiso   1.00
N274   N     0.62339   0.69711   0.95457   0.00000  Uiso   1.00
N275   N     0.38288   0.79516   0.80664   0.00000  Uiso   1.00
N276   N     0.93128   0.65024   0.59789   0.00000  Uiso   1.00
