data_job_05923
_audit_creation_date              2018-12-19
_audit_creation_method            'Materials Studio'
_symmetry_space_group_name_H-M    'P1'
_symmetry_Int_Tables_number       1
_symmetry_cell_setting            triclinic
loop_
_symmetry_equiv_pos_as_xyz
  x,y,z
_cell_length_a                    7.5319
_cell_length_b                    22.4600
_cell_length_c                    22.4978
_cell_angle_alpha                 61.2740
_cell_angle_beta                  83.5913
_cell_angle_gamma                 96.0991
loop_
_atom_site_label
_atom_site_type_symbol
_atom_site_fract_x
_atom_site_fract_y
_atom_site_fract_z
_atom_site_U_iso_or_equiv
_atom_site_adp_type
_atom_site_occupancy
C1     C     0.21264   0.78511   0.38138   0.00000  Uiso   1.00
C2     C     0.12440   0.71659   0.38960   0.00000  Uiso   1.00
C3     C     0.21145   0.66191   0.39973   0.00000  Uiso   1.00
C4     C     0.10694   0.60369   0.40603   0.00000  Uiso   1.00
C5     C     0.99808   0.49783   0.41932   0.00000  Uiso   1.00
C6     C     0.17841   0.84118   0.31275   0.00000  Uiso   1.00
C7     C     0.31087   0.89125   0.25826   0.00000  Uiso   1.00
C8     C     0.25183   0.93791   0.19987   0.00000  Uiso   1.00
C9     C     0.22680   0.02550   0.09387   0.00000  Uiso   1.00
C10    C     0.10185   0.79333   0.43713   0.00000  Uiso   1.00
C11    C     0.16994   0.80319   0.48721   0.00000  Uiso   1.00
C12    C     0.04644   0.80958   0.53353   0.00000  Uiso   1.00
C13    C     0.90254   0.82289   0.62064   0.00000  Uiso   1.00
C14    C     0.87226   0.77896   0.37458   0.00000  Uiso   1.00
C15    C     0.93952   0.71326   0.38591   0.00000  Uiso   1.00
C16    C     0.83485   0.65510   0.39220   0.00000  Uiso   1.00
C17    C     0.92173   0.60034   0.40233   0.00000  Uiso   1.00
C18    C     0.99354   0.83784   0.30906   0.00000  Uiso   1.00
C19    C     0.93428   0.88444   0.25074   0.00000  Uiso   1.00
C20    C     0.06661   0.93456   0.19617   0.00000  Uiso   1.00
C21    C     0.91697   0.78999   0.43344   0.00000  Uiso   1.00
C22    C     0.79334   0.79638   0.47969   0.00000  Uiso   1.00
C23    C     0.86122   0.80624   0.52983   0.00000  Uiso   1.00
H24    H     0.35658   0.78771   0.38425   0.00000  Uiso   1.00
H25    H     0.35453   0.66451   0.40258   0.00000  Uiso   1.00
H26    H     0.45394   0.89382   0.26114   0.00000  Uiso   1.00
H27    H     0.31302   0.80577   0.49005   0.00000  Uiso   1.00
H28    H     0.27074   0.52647   0.42123   0.00000  Uiso   1.00
H29    H     0.48034   0.00999   0.12301   0.00000  Uiso   1.00
H30    H     0.18319   0.82432   0.60572   0.00000  Uiso   1.00
H31    H     0.72831   0.77636   0.37171   0.00000  Uiso   1.00
H32    H     0.69178   0.65253   0.38934   0.00000  Uiso   1.00
H33    H     0.79119   0.88185   0.24790   0.00000  Uiso   1.00
H34    H     0.65028   0.79379   0.47681   0.00000  Uiso   1.00
H35    H     0.73283   0.51674   0.41049   0.00000  Uiso   1.00
H36    H     0.94243   0.00027   0.11226   0.00000  Uiso   1.00
H37    H     0.64528   0.81460   0.59498   0.00000  Uiso   1.00
O38    O     0.98911   0.44036   0.42766   0.00000  Uiso   1.00
O39    O     0.26409   0.07474   0.03641   0.00000  Uiso   1.00
O40    O     0.87424   0.83114   0.66972   0.00000  Uiso   1.00
N41    N     0.14915   0.54116   0.41630   0.00000  Uiso   1.00
N42    N     0.34511   0.99323   0.13747   0.00000  Uiso   1.00
N43    N     0.06731   0.81966   0.58876   0.00000  Uiso   1.00
N44    N     0.85970   0.53593   0.41052   0.00000  Uiso   1.00
N45    N     0.05567   0.98799   0.13169   0.00000  Uiso   1.00
N46    N     0.77787   0.81443   0.58297   0.00000  Uiso   1.00
C47    C     0.42700   0.83266   0.78605   0.00000  Uiso   1.00
C48    C     0.40703   0.89300   0.71746   0.00000  Uiso   1.00
C49    C     0.54824   0.93710   0.66322   0.00000  Uiso   1.00
C50    C     0.50180   0.98916   0.60484   0.00000  Uiso   1.00
C51    C     0.49836   0.08173   0.49896   0.00000  Uiso   1.00
C52    C     0.33699   0.84558   0.84190   0.00000  Uiso   1.00
C53    C     0.41931   0.84979   0.89229   0.00000  Uiso   1.00
C54    C     0.31390   0.86192   0.93868   0.00000  Uiso   1.00
C55    C     0.20168   0.88081   0.02602   0.00000  Uiso   1.00
C56    C     0.30840   0.76901   0.79383   0.00000  Uiso   1.00
C57    C     0.36667   0.70883   0.80382   0.00000  Uiso   1.00
C58    C     0.23718   0.65648   0.80975   0.00000  Uiso   1.00
C59    C     0.08058   0.55648   0.82245   0.00000  Uiso   1.00
C60    C     0.09344   0.84669   0.77883   0.00000  Uiso   1.00
C61    C     0.22585   0.90063   0.71355   0.00000  Uiso   1.00
C62    C     0.17919   0.95263   0.65523   0.00000  Uiso   1.00
C63    C     0.32030   0.99680   0.60091   0.00000  Uiso   1.00
C64    C     0.15582   0.85321   0.83799   0.00000  Uiso   1.00
C65    C     0.05026   0.86532   0.88431   0.00000  Uiso   1.00
C66    C     0.13240   0.86956   0.93475   0.00000  Uiso   1.00
C67    C     0.12722   0.77663   0.78991   0.00000  Uiso   1.00
C68    C     0.99762   0.72436   0.79583   0.00000  Uiso   1.00
C69    C     0.05567   0.66412   0.80582   0.00000  Uiso   1.00
H70    H     0.56805   0.82672   0.78910   0.00000  Uiso   1.00
H71    H     0.68843   0.93119   0.66627   0.00000  Uiso   1.00
H72    H     0.55951   0.84388   0.89532   0.00000  Uiso   1.00
H73    H     0.50688   0.70295   0.80685   0.00000  Uiso   1.00
H74    H     0.74200   0.05039   0.52838   0.00000  Uiso   1.00
H75    H     0.47014   0.86628   0.01134   0.00000  Uiso   1.00
H76    H     0.35916   0.56908   0.82480   0.00000  Uiso   1.00
H77    H     0.95238   0.85263   0.77578   0.00000  Uiso   1.00
H78    H     0.03897   0.95852   0.65222   0.00000  Uiso   1.00
H79    H     0.91006   0.87122   0.88126   0.00000  Uiso   1.00
H80    H     0.85743   0.73028   0.79280   0.00000  Uiso   1.00
H81    H     0.21487   0.07257   0.51697   0.00000  Uiso   1.00
H82    H     0.94302   0.88847   0.99994   0.00000  Uiso   1.00
H83    H     0.83204   0.59127   0.81339   0.00000  Uiso   1.00
O84    O     0.54651   0.13068   0.44164   0.00000  Uiso   1.00
O85    O     0.18984   0.88913   0.07528   0.00000  Uiso   1.00
O86    O     0.04425   0.49922   0.83053   0.00000  Uiso   1.00
N87    N     0.60605   0.04107   0.54265   0.00000  Uiso   1.00
N88    N     0.35190   0.86895   0.99418   0.00000  Uiso   1.00
N89    N     0.24813   0.59109   0.81980   0.00000  Uiso   1.00
N90    N     0.32241   0.05300   0.53651   0.00000  Uiso   1.00
N91    N     0.06825   0.88089   0.98804   0.00000  Uiso   1.00
N92    N     0.96449   0.60303   0.81366   0.00000  Uiso   1.00
C93    C     0.59380   0.38035   0.83351   0.00000  Uiso   1.00
C94    C     0.51377   0.38892   0.89367   0.00000  Uiso   1.00
C95    C     0.61074   0.39881   0.93814   0.00000  Uiso   1.00
C96    C     0.51257   0.40550   0.98994   0.00000  Uiso   1.00
C97    C     0.41693   0.41925   0.08231   0.00000  Uiso   1.00
C98    C     0.49127   0.31184   0.84604   0.00000  Uiso   1.00
C99    C     0.56934   0.25693   0.85045   0.00000  Uiso   1.00
C100   C     0.45221   0.19874   0.86215   0.00000  Uiso   1.00
C101   C     0.32167   0.09284   0.88053   0.00000  Uiso   1.00
C102   C     0.53870   0.43638   0.76967   0.00000  Uiso   1.00
C103   C     0.65665   0.48618   0.70986   0.00000  Uiso   1.00
C104   C     0.57945   0.53284   0.65726   0.00000  Uiso   1.00
C105   C     0.52255   0.62031   0.55706   0.00000  Uiso   1.00
C106   C     0.24699   0.37466   0.84644   0.00000  Uiso   1.00
C107   C     0.32539   0.38582   0.90069   0.00000  Uiso   1.00
C108   C     0.22704   0.39251   0.95244   0.00000  Uiso   1.00
C109   C     0.32386   0.40241   0.99698   0.00000  Uiso   1.00
C110   C     0.30290   0.30875   0.85306   0.00000  Uiso   1.00
C111   C     0.18563   0.25063   0.86476   0.00000  Uiso   1.00
C112   C     0.26350   0.19565   0.86919   0.00000  Uiso   1.00
C113   C     0.35033   0.43329   0.77670   0.00000  Uiso   1.00
C114   C     0.27294   0.47989   0.72417   0.00000  Uiso   1.00
C115   C     0.39074   0.52975   0.66430   0.00000  Uiso   1.00
H116   H     0.74046   0.38275   0.82804   0.00000  Uiso   1.00
H117   H     0.75652   0.40119   0.93269   0.00000  Uiso   1.00
H118   H     0.71512   0.25934   0.84501   0.00000  Uiso   1.00
H119   H     0.80241   0.48856   0.70445   0.00000  Uiso   1.00
H120   H     0.69125   0.42025   0.05183   0.00000  Uiso   1.00
H121   H     0.60395   0.12115   0.86692   0.00000  Uiso   1.00
H122   H     0.78803   0.60450   0.57052   0.00000  Uiso   1.00
H123   H     0.10033   0.37225   0.85190   0.00000  Uiso   1.00
H124   H     0.08127   0.39012   0.95786   0.00000  Uiso   1.00
H125   H     0.03987   0.24826   0.87018   0.00000  Uiso   1.00
H126   H     0.12716   0.47748   0.72962   0.00000  Uiso   1.00
H127   H     0.14319   0.41126   0.07226   0.00000  Uiso   1.00
H128   H     0.05590   0.11216   0.88735   0.00000  Uiso   1.00
H129   H     0.23997   0.59551   0.59095   0.00000  Uiso   1.00
O130   O     0.41622   0.42767   0.13133   0.00000  Uiso   1.00
O131   O     0.30170   0.03527   0.88873   0.00000  Uiso   1.00
O132   O     0.54320   0.66942   0.49986   0.00000  Uiso   1.00
N133   N     0.56488   0.41569   0.04209   0.00000  Uiso   1.00
N134   N     0.48327   0.13605   0.86922   0.00000  Uiso   1.00
N135   N     0.65536   0.58793   0.59210   0.00000  Uiso   1.00
N136   N     0.26998   0.41086   0.05308   0.00000  Uiso   1.00
N137   N     0.18836   0.13121   0.88022   0.00000  Uiso   1.00
N138   N     0.36045   0.58309   0.60310   0.00000  Uiso   1.00
C139   C     0.78736   0.21489   0.61862   0.00000  Uiso   1.00
C140   C     0.87560   0.28341   0.61040   0.00000  Uiso   1.00
C141   C     0.78855   0.33809   0.60027   0.00000  Uiso   1.00
C142   C     0.89306   0.39631   0.59397   0.00000  Uiso   1.00
C143   C     0.00192   0.50217   0.58068   0.00000  Uiso   1.00
C144   C     0.82159   0.15882   0.68725   0.00000  Uiso   1.00
C145   C     0.68913   0.10875   0.74174   0.00000  Uiso   1.00
C146   C     0.74817   0.06209   0.80013   0.00000  Uiso   1.00
C147   C     0.77320   0.97450   0.90613   0.00000  Uiso   1.00
C148   C     0.89815   0.20667   0.56287   0.00000  Uiso   1.00
C149   C     0.83006   0.19681   0.51279   0.00000  Uiso   1.00
C150   C     0.95356   0.19042   0.46647   0.00000  Uiso   1.00
C151   C     0.09746   0.17711   0.37936   0.00000  Uiso   1.00
C152   C     0.12774   0.22104   0.62542   0.00000  Uiso   1.00
C153   C     0.06048   0.28674   0.61409   0.00000  Uiso   1.00
C154   C     0.16515   0.34490   0.60780   0.00000  Uiso   1.00
C155   C     0.07827   0.39966   0.59767   0.00000  Uiso   1.00
C156   C     0.00646   0.16216   0.69095   0.00000  Uiso   1.00
C157   C     0.06572   0.11556   0.74926   0.00000  Uiso   1.00
C158   C     0.93339   0.06543   0.80383   0.00000  Uiso   1.00
C159   C     0.08303   0.21001   0.56656   0.00000  Uiso   1.00
C160   C     0.20666   0.20362   0.52031   0.00000  Uiso   1.00
C161   C     0.13878   0.19376   0.47017   0.00000  Uiso   1.00
H162   H     0.64342   0.21229   0.61575   0.00000  Uiso   1.00
H163   H     0.64547   0.33549   0.59742   0.00000  Uiso   1.00
H164   H     0.54606   0.10618   0.73886   0.00000  Uiso   1.00
H165   H     0.68698   0.19423   0.50995   0.00000  Uiso   1.00
H166   H     0.72926   0.47353   0.57877   0.00000  Uiso   1.00
H167   H     0.51966   0.99001   0.87699   0.00000  Uiso   1.00
H168   H     0.81681   0.17568   0.39428   0.00000  Uiso   1.00
H169   H     0.27169   0.22364   0.62829   0.00000  Uiso   1.00
H170   H     0.30822   0.34747   0.61066   0.00000  Uiso   1.00
H171   H     0.20881   0.11815   0.75210   0.00000  Uiso   1.00
H172   H     0.34972   0.20621   0.52319   0.00000  Uiso   1.00
H173   H     0.26717   0.48326   0.58951   0.00000  Uiso   1.00
H174   H     0.05757   0.99973   0.88774   0.00000  Uiso   1.00
H175   H     0.35472   0.18540   0.40502   0.00000  Uiso   1.00
O176   O     0.01089   0.55964   0.57234   0.00000  Uiso   1.00
O177   O     0.73591   0.92526   0.96359   0.00000  Uiso   1.00
O178   O     0.12576   0.16886   0.33028   0.00000  Uiso   1.00
N179   N     0.85085   0.45884   0.58370   0.00000  Uiso   1.00
N180   N     0.65489   0.00677   0.86253   0.00000  Uiso   1.00
N181   N     0.93269   0.18034   0.41125   0.00000  Uiso   1.00
N182   N     0.14030   0.46407   0.58948   0.00000  Uiso   1.00
N183   N     0.94434   0.01201   0.86831   0.00000  Uiso   1.00
N184   N     0.22213   0.18557   0.41703   0.00000  Uiso   1.00
C185   C     0.57300   0.16734   0.21395   0.00000  Uiso   1.00
C186   C     0.59297   0.10700   0.28254   0.00000  Uiso   1.00
C187   C     0.45177   0.06290   0.33678   0.00000  Uiso   1.00
C188   C     0.49820   0.01084   0.39516   0.00000  Uiso   1.00
C189   C     0.50164   0.91827   0.50104   0.00000  Uiso   1.00
C190   C     0.66301   0.15442   0.15810   0.00000  Uiso   1.00
C191   C     0.58069   0.15021   0.10771   0.00000  Uiso   1.00
C192   C     0.68610   0.13808   0.06132   0.00000  Uiso   1.00
C193   C     0.79832   0.11919   0.97398   0.00000  Uiso   1.00
C194   C     0.69160   0.23099   0.20617   0.00000  Uiso   1.00
C195   C     0.63333   0.29117   0.19618   0.00000  Uiso   1.00
C196   C     0.76282   0.34352   0.19025   0.00000  Uiso   1.00
C197   C     0.91943   0.44352   0.17755   0.00000  Uiso   1.00
C198   C     0.90656   0.15331   0.22117   0.00000  Uiso   1.00
C199   C     0.77415   0.09937   0.28646   0.00000  Uiso   1.00
C200   C     0.82081   0.04737   0.34477   0.00000  Uiso   1.00
C201   C     0.67970   0.00320   0.39909   0.00000  Uiso   1.00
C202   C     0.84418   0.14679   0.16202   0.00000  Uiso   1.00
C203   C     0.94974   0.13467   0.11569   0.00000  Uiso   1.00
C204   C     0.86761   0.13044   0.06525   0.00000  Uiso   1.00
C205   C     0.87278   0.22337   0.21009   0.00000  Uiso   1.00
C206   C     0.00238   0.27564   0.20417   0.00000  Uiso   1.00
C207   C     0.94433   0.33588   0.19418   0.00000  Uiso   1.00
H208   H     0.43195   0.17328   0.21090   0.00000  Uiso   1.00
H209   H     0.31157   0.06881   0.33373   0.00000  Uiso   1.00
H210   H     0.44049   0.15612   0.10468   0.00000  Uiso   1.00
H211   H     0.49312   0.29705   0.19315   0.00000  Uiso   1.00
H212   H     0.25800   0.94961   0.47162   0.00000  Uiso   1.00
H213   H     0.52986   0.13372   0.98866   0.00000  Uiso   1.00
H214   H     0.64084   0.43092   0.17520   0.00000  Uiso   1.00
H215   H     0.04762   0.14737   0.22422   0.00000  Uiso   1.00
H216   H     0.96103   0.04148   0.34778   0.00000  Uiso   1.00
H217   H     0.08995   0.12878   0.11874   0.00000  Uiso   1.00
H218   H     0.14257   0.26972   0.20720   0.00000  Uiso   1.00
H219   H     0.78513   0.92743   0.48303   0.00000  Uiso   1.00
H220   H     0.05698   0.11153   0.00006   0.00000  Uiso   1.00
H221   H     0.16796   0.40873   0.18661   0.00000  Uiso   1.00
O222   O     0.45349   0.86932   0.55836   0.00000  Uiso   1.00
O223   O     0.81016   0.11087   0.92472   0.00000  Uiso   1.00
O224   O     0.95575   0.50078   0.16947   0.00000  Uiso   1.00
N225   N     0.39395   0.95893   0.45735   0.00000  Uiso   1.00
N226   N     0.64811   0.13105   0.00582   0.00000  Uiso   1.00
N227   N     0.75187   0.40891   0.18020   0.00000  Uiso   1.00
N228   N     0.67759   0.94700   0.46349   0.00000  Uiso   1.00
N229   N     0.93175   0.11911   0.01196   0.00000  Uiso   1.00
N230   N     0.03551   0.39697   0.18634   0.00000  Uiso   1.00
C231   C     0.40620   0.61965   0.16649   0.00000  Uiso   1.00
C232   C     0.48623   0.61108   0.10633   0.00000  Uiso   1.00
C233   C     0.38926   0.60119   0.06186   0.00000  Uiso   1.00
C234   C     0.48743   0.59450   0.01006   0.00000  Uiso   1.00
C235   C     0.58307   0.58075   0.91769   0.00000  Uiso   1.00
C236   C     0.50873   0.68816   0.15396   0.00000  Uiso   1.00
C237   C     0.43066   0.74307   0.14955   0.00000  Uiso   1.00
C238   C     0.54779   0.80126   0.13785   0.00000  Uiso   1.00
C239   C     0.67833   0.90716   0.11947   0.00000  Uiso   1.00
C240   C     0.46130   0.56362   0.23033   0.00000  Uiso   1.00
C241   C     0.34336   0.51382   0.29014   0.00000  Uiso   1.00
C242   C     0.42055   0.46716   0.34274   0.00000  Uiso   1.00
C243   C     0.47745   0.37969   0.44294   0.00000  Uiso   1.00
C244   C     0.75301   0.62534   0.15356   0.00000  Uiso   1.00
C245   C     0.67461   0.61418   0.09931   0.00000  Uiso   1.00
C246   C     0.77296   0.60749   0.04756   0.00000  Uiso   1.00
C247   C     0.67614   0.59759   0.00302   0.00000  Uiso   1.00
C248   C     0.69710   0.69125   0.14694   0.00000  Uiso   1.00
C249   C     0.81437   0.74937   0.13524   0.00000  Uiso   1.00
C250   C     0.73650   0.80435   0.13081   0.00000  Uiso   1.00
C251   C     0.64967   0.56671   0.22330   0.00000  Uiso   1.00
C252   C     0.72706   0.52011   0.27583   0.00000  Uiso   1.00
C253   C     0.60926   0.47025   0.33571   0.00000  Uiso   1.00
H254   H     0.25954   0.61725   0.17196   0.00000  Uiso   1.00
H255   H     0.24348   0.59881   0.06731   0.00000  Uiso   1.00
H256   H     0.28488   0.74066   0.15499   0.00000  Uiso   1.00
H257   H     0.19759   0.51144   0.29555   0.00000  Uiso   1.00
H258   H     0.30875   0.57975   0.94817   0.00000  Uiso   1.00
H259   H     0.39605   0.87885   0.13308   0.00000  Uiso   1.00
H260   H     0.21197   0.39550   0.42948   0.00000  Uiso   1.00
H261   H     0.89967   0.62775   0.14810   0.00000  Uiso   1.00
H262   H     0.91873   0.60988   0.04214   0.00000  Uiso   1.00
H263   H     0.96013   0.75174   0.12982   0.00000  Uiso   1.00
H264   H     0.87284   0.52252   0.27038   0.00000  Uiso   1.00
H265   H     0.85681   0.58874   0.92774   0.00000  Uiso   1.00
H266   H     0.94410   0.88784   0.11265   0.00000  Uiso   1.00
H267   H     0.76003   0.40449   0.40905   0.00000  Uiso   1.00
O268   O     0.58378   0.57233   0.86867   0.00000  Uiso   1.00
O269   O     0.69830   0.96473   0.11127   0.00000  Uiso   1.00
O270   O     0.45680   0.33058   0.50014   0.00000  Uiso   1.00
N271   N     0.43512   0.58431   0.95792   0.00000  Uiso   1.00
N272   N     0.51673   0.86395   0.13078   0.00000  Uiso   1.00
N273   N     0.34464   0.41207   0.40790   0.00000  Uiso   1.00
N274   N     0.73002   0.58914   0.94692   0.00000  Uiso   1.00
N275   N     0.81164   0.86879   0.11978   0.00000  Uiso   1.00
N276   N     0.63955   0.41691   0.39690   0.00000  Uiso   1.00
