data_job_00600
_audit_creation_date              2018-12-19
_audit_creation_method            'Materials Studio'
_symmetry_space_group_name_H-M    'P1'
_symmetry_Int_Tables_number       1
_symmetry_cell_setting            triclinic
loop_
_symmetry_equiv_pos_as_xyz
  x,y,z
_cell_length_a                    11.2715
_cell_length_b                    11.8099
_cell_length_c                    12.4076
_cell_angle_alpha                 69.5521
_cell_angle_beta                  99.4769
_cell_angle_gamma                 65.5488
loop_
_atom_site_label
_atom_site_type_symbol
_atom_site_fract_x
_atom_site_fract_y
_atom_site_fract_z
_atom_site_U_iso_or_equiv
_atom_site_adp_type
_atom_site_occupancy
C1     C     0.24880   0.48665   0.16356   0.00000  Uiso   1.00
C2     C     0.14318   0.53829   0.22264   0.00000  Uiso   1.00
C3     C     0.00584   0.56895   0.18467   0.00000  Uiso   1.00
C4     C     0.92601   0.61485   0.25082   0.00000  Uiso   1.00
C5     C     0.75352   0.69289   0.32724   0.00000  Uiso   1.00
C6     C     0.29927   0.59118   0.12822   0.00000  Uiso   1.00
C7     C     0.29320   0.66629   0.01087   0.00000  Uiso   1.00
C8     C     0.34479   0.75670   0.99755   0.00000  Uiso   1.00
C9     C     0.41474   0.91677   0.92740   0.00000  Uiso   1.00
C10    C     0.37415   0.34897   0.26659   0.00000  Uiso   1.00
C11    C     0.43106   0.22043   0.26557   0.00000  Uiso   1.00
C12    C     0.54571   0.10692   0.36874   0.00000  Uiso   1.00
C13    C     0.73190   0.89092   0.51343   0.00000  Uiso   1.00
C14    C     0.35124   0.51364   0.34857   0.00000  Uiso   1.00
C15    C     0.19882   0.55296   0.32313   0.00000  Uiso   1.00
C16    C     0.11918   0.59881   0.38937   0.00000  Uiso   1.00
C17    C     0.98175   0.62953   0.35150   0.00000  Uiso   1.00
C18    C     0.35491   0.60585   0.22871   0.00000  Uiso   1.00
C19    C     0.40654   0.69615   0.21556   0.00000  Uiso   1.00
C20    C     0.40053   0.77139   0.09822   0.00000  Uiso   1.00
C21    C     0.42979   0.36363   0.36709   0.00000  Uiso   1.00
C22    C     0.54438   0.25030   0.47027   0.00000  Uiso   1.00
C23    C     0.60145   0.12161   0.46942   0.00000  Uiso   1.00
H24    H     0.20548   0.47524   0.08532   0.00000  Uiso   1.00
H25    H     0.96282   0.55761   0.10689   0.00000  Uiso   1.00
H26    H     0.25015   0.65492   0.93312   0.00000  Uiso   1.00
H27    H     0.38797   0.20913   0.18779   0.00000  Uiso   1.00
H28    H     0.71830   0.65544   0.17509   0.00000  Uiso   1.00
H29    H     0.32419   0.86059   0.80870   0.00000  Uiso   1.00
H30    H     0.61482   0.92056   0.34572   0.00000  Uiso   1.00
H31    H     0.39456   0.52505   0.42681   0.00000  Uiso   1.00
H32    H     0.16226   0.61015   0.46713   0.00000  Uiso   1.00
H33    H     0.44959   0.70747   0.29335   0.00000  Uiso   1.00
H34    H     0.58742   0.26168   0.54802   0.00000  Uiso   1.00
H35    H     0.88017   0.69810   0.46747   0.00000  Uiso   1.00
H36    H     0.48607   0.90324   0.10108   0.00000  Uiso   1.00
H37    H     0.77670   0.96321   0.63810   0.00000  Uiso   1.00
O38    O     0.64300   0.73190   0.34161   0.00000  Uiso   1.00
O39    O     0.43793   0.00102   0.86093   0.00000  Uiso   1.00
O40    O     0.81922   0.76773   0.56548   0.00000  Uiso   1.00
N41    N     0.78828   0.65377   0.23839   0.00000  Uiso   1.00
N42    N     0.35474   0.84559   0.89583   0.00000  Uiso   1.00
N43    N     0.62648   0.96675   0.39788   0.00000  Uiso   1.00
N44    N     0.87539   0.67672   0.39571   0.00000  Uiso   1.00
N45    N     0.44184   0.86854   0.05316   0.00000  Uiso   1.00
N46    N     0.71358   0.98970   0.55521   0.00000  Uiso   1.00
C47    C     0.75120   0.51335   0.83644   0.00000  Uiso   1.00
C48    C     0.85682   0.46171   0.77736   0.00000  Uiso   1.00
C49    C     0.99416   0.43105   0.81533   0.00000  Uiso   1.00
C50    C     0.07399   0.38515   0.74918   0.00000  Uiso   1.00
C51    C     0.24648   0.30711   0.67276   0.00000  Uiso   1.00
C52    C     0.70073   0.40882   0.87178   0.00000  Uiso   1.00
C53    C     0.70680   0.33371   0.98913   0.00000  Uiso   1.00
C54    C     0.65521   0.24330   0.00245   0.00000  Uiso   1.00
C55    C     0.58526   0.08323   0.07260   0.00000  Uiso   1.00
C56    C     0.62585   0.65103   0.73341   0.00000  Uiso   1.00
C57    C     0.56894   0.77957   0.73443   0.00000  Uiso   1.00
C58    C     0.45429   0.89308   0.63126   0.00000  Uiso   1.00
C59    C     0.26810   0.10908   0.48657   0.00000  Uiso   1.00
C60    C     0.64876   0.48636   0.65143   0.00000  Uiso   1.00
C61    C     0.80118   0.44704   0.67687   0.00000  Uiso   1.00
C62    C     0.88082   0.40119   0.61063   0.00000  Uiso   1.00
C63    C     0.01825   0.37047   0.64850   0.00000  Uiso   1.00
C64    C     0.64509   0.39415   0.77129   0.00000  Uiso   1.00
C65    C     0.59346   0.30385   0.78444   0.00000  Uiso   1.00
C66    C     0.59947   0.22861   0.90178   0.00000  Uiso   1.00
C67    C     0.57021   0.63637   0.63291   0.00000  Uiso   1.00
C68    C     0.45562   0.74970   0.52973   0.00000  Uiso   1.00
C69    C     0.39855   0.87839   0.53058   0.00000  Uiso   1.00
H70    H     0.79452   0.52476   0.91468   0.00000  Uiso   1.00
H71    H     0.03718   0.44239   0.89311   0.00000  Uiso   1.00
H72    H     0.74985   0.34508   0.06688   0.00000  Uiso   1.00
H73    H     0.61203   0.79087   0.81221   0.00000  Uiso   1.00
H74    H     0.28170   0.34456   0.82491   0.00000  Uiso   1.00
H75    H     0.67581   0.13941   0.19130   0.00000  Uiso   1.00
H76    H     0.38518   0.07944   0.65428   0.00000  Uiso   1.00
H77    H     0.60544   0.47495   0.57319   0.00000  Uiso   1.00
H78    H     0.83774   0.38985   0.53287   0.00000  Uiso   1.00
H79    H     0.55041   0.29253   0.70665   0.00000  Uiso   1.00
H80    H     0.41258   0.73832   0.45198   0.00000  Uiso   1.00
H81    H     0.11983   0.30190   0.53253   0.00000  Uiso   1.00
H82    H     0.51393   0.09676   0.89892   0.00000  Uiso   1.00
H83    H     0.22330   0.03679   0.36190   0.00000  Uiso   1.00
O84    O     0.35700   0.26810   0.65839   0.00000  Uiso   1.00
O85    O     0.56207   0.99898   0.13907   0.00000  Uiso   1.00
O86    O     0.18078   0.23227   0.43452   0.00000  Uiso   1.00
N87    N     0.21172   0.34623   0.76161   0.00000  Uiso   1.00
N88    N     0.64526   0.15441   0.10417   0.00000  Uiso   1.00
N89    N     0.37352   0.03325   0.60212   0.00000  Uiso   1.00
N90    N     0.12461   0.32328   0.60429   0.00000  Uiso   1.00
N91    N     0.55816   0.13146   0.94684   0.00000  Uiso   1.00
N92    N     0.28642   0.01030   0.44479   0.00000  Uiso   1.00
