data_job_04687
_audit_creation_date              2018-12-19
_audit_creation_method            'Materials Studio'
_symmetry_space_group_name_H-M    'P1'
_symmetry_Int_Tables_number       1
_symmetry_cell_setting            triclinic
loop_
_symmetry_equiv_pos_as_xyz
  x,y,z
_cell_length_a                    10.3532
_cell_length_b                    16.2865
_cell_length_c                    14.3134
_cell_angle_alpha                 90.0000
_cell_angle_beta                  97.8618
_cell_angle_gamma                 90.0000
loop_
_atom_site_label
_atom_site_type_symbol
_atom_site_fract_x
_atom_site_fract_y
_atom_site_fract_z
_atom_site_U_iso_or_equiv
_atom_site_adp_type
_atom_site_occupancy
C1     C     0.74032   0.07192   0.49546   0.00000  Uiso   1.00
C2     C     0.59197   0.06745   0.47566   0.00000  Uiso   1.00
C3     C     0.52006   0.00194   0.43405   0.00000  Uiso   1.00
C4     C     0.38527   0.00976   0.42203   0.00000  Uiso   1.00
C5     C     0.16414   0.99207   0.38689   0.00000  Uiso   1.00
C6     C     0.77921   0.14916   0.44593   0.00000  Uiso   1.00
C7     C     0.86474   0.15236   0.37934   0.00000  Uiso   1.00
C8     C     0.88757   0.22897   0.34232   0.00000  Uiso   1.00
C9     C     0.95721   0.33815   0.26108   0.00000  Uiso   1.00
C10    C     0.77336   0.08849   0.60087   0.00000  Uiso   1.00
C11    C     0.85401   0.04069   0.66456   0.00000  Uiso   1.00
C12    C     0.87195   0.06623   0.75799   0.00000  Uiso   1.00
C13    C     0.93251   0.08120   0.91732   0.00000  Uiso   1.00
C14    C     0.62881   0.20229   0.54813   0.00000  Uiso   1.00
C15    C     0.53141   0.13827   0.50426   0.00000  Uiso   1.00
C16    C     0.39669   0.14619   0.49231   0.00000  Uiso   1.00
C17    C     0.32460   0.08070   0.45069   0.00000  Uiso   1.00
C18    C     0.71865   0.21998   0.47453   0.00000  Uiso   1.00
C19    C     0.74137   0.29660   0.43761   0.00000  Uiso   1.00
C20    C     0.82690   0.29991   0.37098   0.00000  Uiso   1.00
C21    C     0.71280   0.15931   0.62948   0.00000  Uiso   1.00
C22    C     0.73063   0.18493   0.72283   0.00000  Uiso   1.00
C23    C     0.81128   0.13717   0.78665   0.00000  Uiso   1.00
H24    H     0.78748   0.01679   0.47319   0.00000  Uiso   1.00
H25    H     0.56697   0.94716   0.41191   0.00000  Uiso   1.00
H26    H     0.91160   0.09755   0.35723   0.00000  Uiso   1.00
H27    H     0.90086   0.98589   0.64240   0.00000  Uiso   1.00
H28    H     0.29579   0.90119   0.35656   0.00000  Uiso   1.00
H29    H     0.02250   0.21831   0.24128   0.00000  Uiso   1.00
H30    H     0.99986   0.98286   0.84262   0.00000  Uiso   1.00
H31    H     0.58166   0.25743   0.57040   0.00000  Uiso   1.00
H32    H     0.34985   0.20099   0.51445   0.00000  Uiso   1.00
H33    H     0.69449   0.35139   0.45977   0.00000  Uiso   1.00
H34    H     0.68374   0.23973   0.74494   0.00000  Uiso   1.00
H35    H     0.11957   0.10722   0.43978   0.00000  Uiso   1.00
H36    H     0.84628   0.42434   0.32450   0.00000  Uiso   1.00
H37    H     0.82363   0.18889   0.92584   0.00000  Uiso   1.00
O38    O     0.05891   0.96275   0.35958   0.00000  Uiso   1.00
O39    O     0.01233   0.37880   0.20836   0.00000  Uiso   1.00
O40    O     0.98262   0.06989   0.99730   0.00000  Uiso   1.00
N41    N     0.28613   0.95742   0.38384   0.00000  Uiso   1.00
N42    N     0.96554   0.25390   0.27605   0.00000  Uiso   1.00
N43    N     0.94440   0.03379   0.83825   0.00000  Uiso   1.00
N44    N     0.19131   0.06828   0.42862   0.00000  Uiso   1.00
N45    N     0.87072   0.36476   0.32083   0.00000  Uiso   1.00
N46    N     0.84958   0.14465   0.88303   0.00000  Uiso   1.00
C47    C     0.35945   0.38014   0.92950   0.00000  Uiso   1.00
C48    C     0.48083   0.42475   0.90671   0.00000  Uiso   1.00
C49    C     0.48309   0.50168   0.86529   0.00000  Uiso   1.00
C50    C     0.60398   0.53183   0.85026   0.00000  Uiso   1.00
C51    C     0.77503   0.60795   0.81095   0.00000  Uiso   1.00
C52    C     0.35773   0.29752   0.87922   0.00000  Uiso   1.00
C53    C     0.25647   0.26749   0.81471   0.00000  Uiso   1.00
C54    C     0.27373   0.19053   0.77655   0.00000  Uiso   1.00
C55    C     0.25363   0.06910   0.69462   0.00000  Uiso   1.00
C56    C     0.38417   0.36110   0.03474   0.00000  Uiso   1.00
C57    C     0.30514   0.38450   0.10098   0.00000  Uiso   1.00
C58    C     0.34465   0.36105   0.19375   0.00000  Uiso   1.00
C59    C     0.36560   0.33834   0.35328   0.00000  Uiso   1.00
C60    C     0.57013   0.29687   0.97646   0.00000  Uiso   1.00
C61    C     0.59526   0.37951   0.93221   0.00000  Uiso   1.00
C62    C     0.71618   0.40956   0.91725   0.00000  Uiso   1.00
C63    C     0.71862   0.48653   0.87582   0.00000  Uiso   1.00
C64    C     0.47215   0.25229   0.90473   0.00000  Uiso   1.00
C65    C     0.48956   0.17536   0.86666   0.00000  Uiso   1.00
C66    C     0.38837   0.14522   0.80210   0.00000  Uiso   1.00
C67    C     0.49861   0.31587   0.06025   0.00000  Uiso   1.00
C68    C     0.53824   0.29237   0.15293   0.00000  Uiso   1.00
C69    C     0.45929   0.31574   0.21930   0.00000  Uiso   1.00
H70    H     0.27036   0.41535   0.90964   0.00000  Uiso   1.00
H71    H     0.39450   0.53666   0.84555   0.00000  Uiso   1.00
H72    H     0.16792   0.30250   0.79499   0.00000  Uiso   1.00
H73    H     0.21659   0.41950   0.08121   0.00000  Uiso   1.00
H74    H     0.58261   0.65120   0.78572   0.00000  Uiso   1.00
H75    H     0.10483   0.15744   0.67912   0.00000  Uiso   1.00
H76    H     0.20744   0.40415   0.28269   0.00000  Uiso   1.00
H77    H     0.65922   0.26166   0.99632   0.00000  Uiso   1.00
H78    H     0.80472   0.37454   0.93699   0.00000  Uiso   1.00
H79    H     0.57813   0.14038   0.88642   0.00000  Uiso   1.00
H80    H     0.62680   0.25737   0.17265   0.00000  Uiso   1.00
H81    H     0.91555   0.51962   0.85993   0.00000  Uiso   1.00
H82    H     0.43776   0.02585   0.75333   0.00000  Uiso   1.00
H83    H     0.54039   0.27257   0.35690   0.00000  Uiso   1.00
O84    O     0.83777   0.66243   0.78221   0.00000  Uiso   1.00
O85    O     0.21092   0.01463   0.64237   0.00000  Uiso   1.00
O86    O     0.34556   0.33831   0.43423   0.00000  Uiso   1.00
N87    N     0.64100   0.60475   0.81135   0.00000  Uiso   1.00
N88    N     0.19431   0.14312   0.71167   0.00000  Uiso   1.00
N89    N     0.29023   0.37375   0.27595   0.00000  Uiso   1.00
N90    N     0.82016   0.53394   0.85128   0.00000  Uiso   1.00
N91    N     0.37347   0.07231   0.75160   0.00000  Uiso   1.00
N92    N     0.46939   0.30295   0.31588   0.00000  Uiso   1.00
C93    C     0.25968   0.57192   0.50454   0.00000  Uiso   1.00
C94    C     0.40803   0.56745   0.52434   0.00000  Uiso   1.00
C95    C     0.47994   0.50194   0.56595   0.00000  Uiso   1.00
C96    C     0.61473   0.50976   0.57797   0.00000  Uiso   1.00
C97    C     0.83586   0.49207   0.61311   0.00000  Uiso   1.00
C98    C     0.22079   0.64916   0.55407   0.00000  Uiso   1.00
C99    C     0.13526   0.65236   0.62066   0.00000  Uiso   1.00
C100   C     0.11243   0.72897   0.65768   0.00000  Uiso   1.00
C101   C     0.04279   0.83815   0.73892   0.00000  Uiso   1.00
C102   C     0.22664   0.58849   0.39913   0.00000  Uiso   1.00
C103   C     0.14599   0.54069   0.33544   0.00000  Uiso   1.00
C104   C     0.12805   0.56623   0.24201   0.00000  Uiso   1.00
C105   C     0.06749   0.58120   0.08268   0.00000  Uiso   1.00
C106   C     0.37119   0.70229   0.45187   0.00000  Uiso   1.00
C107   C     0.46859   0.63827   0.49574   0.00000  Uiso   1.00
C108   C     0.60331   0.64619   0.50769   0.00000  Uiso   1.00
C109   C     0.67540   0.58070   0.54931   0.00000  Uiso   1.00
C110   C     0.28135   0.71998   0.52547   0.00000  Uiso   1.00
C111   C     0.25863   0.79660   0.56239   0.00000  Uiso   1.00
C112   C     0.17310   0.79991   0.62902   0.00000  Uiso   1.00
C113   C     0.28720   0.65931   0.37052   0.00000  Uiso   1.00
C114   C     0.26937   0.68493   0.27717   0.00000  Uiso   1.00
C115   C     0.18872   0.63717   0.21335   0.00000  Uiso   1.00
H116   H     0.21252   0.51679   0.52681   0.00000  Uiso   1.00
H117   H     0.43303   0.44716   0.58809   0.00000  Uiso   1.00
H118   H     0.08840   0.59755   0.64277   0.00000  Uiso   1.00
H119   H     0.09914   0.48589   0.35760   0.00000  Uiso   1.00
H120   H     0.70421   0.40119   0.64344   0.00000  Uiso   1.00
H121   H     0.97750   0.71831   0.75872   0.00000  Uiso   1.00
H122   H     0.00014   0.48286   0.15738   0.00000  Uiso   1.00
H123   H     0.41834   0.75743   0.42960   0.00000  Uiso   1.00
H124   H     0.65015   0.70099   0.48555   0.00000  Uiso   1.00
H125   H     0.30551   0.85139   0.54023   0.00000  Uiso   1.00
H126   H     0.31626   0.73973   0.25506   0.00000  Uiso   1.00
H127   H     0.88043   0.60722   0.56022   0.00000  Uiso   1.00
H128   H     0.15372   0.92434   0.67550   0.00000  Uiso   1.00
H129   H     0.17637   0.68889   0.07416   0.00000  Uiso   1.00
O130   O     0.94109   0.46275   0.64042   0.00000  Uiso   1.00
O131   O     0.98767   0.87880   0.79164   0.00000  Uiso   1.00
O132   O     0.01738   0.56989   0.00270   0.00000  Uiso   1.00
N133   N     0.71387   0.45742   0.61616   0.00000  Uiso   1.00
N134   N     0.03446   0.75390   0.72395   0.00000  Uiso   1.00
N135   N     0.05560   0.53379   0.16175   0.00000  Uiso   1.00
N136   N     0.80869   0.56828   0.57138   0.00000  Uiso   1.00
N137   N     0.12928   0.86476   0.67917   0.00000  Uiso   1.00
N138   N     0.15042   0.64465   0.11697   0.00000  Uiso   1.00
C139   C     0.64055   0.88014   0.07050   0.00000  Uiso   1.00
C140   C     0.51917   0.92475   0.09329   0.00000  Uiso   1.00
C141   C     0.51691   0.00168   0.13471   0.00000  Uiso   1.00
C142   C     0.39602   0.03183   0.14974   0.00000  Uiso   1.00
C143   C     0.22497   0.10795   0.18905   0.00000  Uiso   1.00
C144   C     0.64227   0.79752   0.12078   0.00000  Uiso   1.00
C145   C     0.74353   0.76749   0.18529   0.00000  Uiso   1.00
C146   C     0.72627   0.69053   0.22345   0.00000  Uiso   1.00
C147   C     0.74637   0.56910   0.30538   0.00000  Uiso   1.00
C148   C     0.61583   0.86110   0.96526   0.00000  Uiso   1.00
C149   C     0.69486   0.88450   0.89902   0.00000  Uiso   1.00
C150   C     0.65535   0.86105   0.80625   0.00000  Uiso   1.00
C151   C     0.63440   0.83834   0.64672   0.00000  Uiso   1.00
C152   C     0.42987   0.79687   0.02354   0.00000  Uiso   1.00
C153   C     0.40474   0.87951   0.06779   0.00000  Uiso   1.00
C154   C     0.28382   0.90956   0.08275   0.00000  Uiso   1.00
C155   C     0.28138   0.98653   0.12418   0.00000  Uiso   1.00
C156   C     0.52785   0.75229   0.09527   0.00000  Uiso   1.00
C157   C     0.51044   0.67536   0.13334   0.00000  Uiso   1.00
C158   C     0.61163   0.64522   0.19790   0.00000  Uiso   1.00
C159   C     0.50139   0.81587   0.93975   0.00000  Uiso   1.00
C160   C     0.46176   0.79237   0.84707   0.00000  Uiso   1.00
C161   C     0.54071   0.81574   0.78070   0.00000  Uiso   1.00
H162   H     0.72964   0.91535   0.09036   0.00000  Uiso   1.00
H163   H     0.60550   0.03666   0.15445   0.00000  Uiso   1.00
H164   H     0.83208   0.80250   0.20501   0.00000  Uiso   1.00
H165   H     0.78341   0.91950   0.91879   0.00000  Uiso   1.00
H166   H     0.41739   0.15120   0.21428   0.00000  Uiso   1.00
H167   H     0.89517   0.65744   0.32088   0.00000  Uiso   1.00
H168   H     0.79256   0.90415   0.71731   0.00000  Uiso   1.00
H169   H     0.34078   0.76166   0.00368   0.00000  Uiso   1.00
H170   H     0.19528   0.87454   0.06301   0.00000  Uiso   1.00
H171   H     0.42187   0.64038   0.11358   0.00000  Uiso   1.00
H172   H     0.37320   0.75737   0.82735   0.00000  Uiso   1.00
H173   H     0.08445   0.01962   0.14007   0.00000  Uiso   1.00
H174   H     0.56224   0.52585   0.24667   0.00000  Uiso   1.00
H175   H     0.45961   0.77257   0.64310   0.00000  Uiso   1.00
O176   O     0.16223   0.16243   0.21779   0.00000  Uiso   1.00
O177   O     0.78908   0.51463   0.35763   0.00000  Uiso   1.00
O178   O     0.65444   0.83831   0.56577   0.00000  Uiso   1.00
N179   N     0.35900   0.10475   0.18865   0.00000  Uiso   1.00
N180   N     0.80569   0.64312   0.28833   0.00000  Uiso   1.00
N181   N     0.70977   0.87375   0.72405   0.00000  Uiso   1.00
N182   N     0.17984   0.03394   0.14872   0.00000  Uiso   1.00
N183   N     0.62653   0.57231   0.24840   0.00000  Uiso   1.00
N184   N     0.53061   0.80295   0.68412   0.00000  Uiso   1.00
