data_job_05237
_audit_creation_date              2018-12-19
_audit_creation_method            'Materials Studio'
_symmetry_space_group_name_H-M    'P1'
_symmetry_Int_Tables_number       1
_symmetry_cell_setting            triclinic
loop_
_symmetry_equiv_pos_as_xyz
  x,y,z
_cell_length_a                    22.2512
_cell_length_b                    22.2512
_cell_length_c                    12.5427
_cell_angle_alpha                 90.0000
_cell_angle_beta                  90.0000
_cell_angle_gamma                 90.0000
loop_
_atom_site_label
_atom_site_type_symbol
_atom_site_fract_x
_atom_site_fract_y
_atom_site_fract_z
_atom_site_U_iso_or_equiv
_atom_site_adp_type
_atom_site_occupancy
C1     C     0.52284   0.72726   0.85264   0.00000  Uiso   1.00
C2     C     0.46105   0.71319   0.80636   0.00000  Uiso   1.00
C3     C     0.43438   0.65685   0.80257   0.00000  Uiso   1.00
C4     C     0.37762   0.65335   0.75701   0.00000  Uiso   1.00
C5     C     0.28609   0.62375   0.69124   0.00000  Uiso   1.00
C6     C     0.55817   0.75758   0.76341   0.00000  Uiso   1.00
C7     C     0.61315   0.73857   0.72353   0.00000  Uiso   1.00
C8     C     0.63815   0.77245   0.64182   0.00000  Uiso   1.00
C9     C     0.69741   0.81178   0.50943   0.00000  Uiso   1.00
C10    C     0.51274   0.77539   0.93730   0.00000  Uiso   1.00
C11    C     0.52955   0.77137   0.04361   0.00000  Uiso   1.00
C12    C     0.51632   0.82025   0.10830   0.00000  Uiso   1.00
C13    C     0.50507   0.88723   0.24588   0.00000  Uiso   1.00
C14    C     0.46947   0.82123   0.77847   0.00000  Uiso   1.00
C15    C     0.43206   0.76423   0.76607   0.00000  Uiso   1.00
C16    C     0.37533   0.76082   0.72051   0.00000  Uiso   1.00
C17    C     0.34858   0.70449   0.71666   0.00000  Uiso   1.00
C18    C     0.52918   0.80862   0.72313   0.00000  Uiso   1.00
C19    C     0.55410   0.84253   0.64147   0.00000  Uiso   1.00
C20    C     0.60911   0.82358   0.60146   0.00000  Uiso   1.00
C21    C     0.48375   0.82643   0.89701   0.00000  Uiso   1.00
C22    C     0.47050   0.87533   0.96154   0.00000  Uiso   1.00
C23    C     0.48728   0.87138   0.06794   0.00000  Uiso   1.00
H24    H     0.54542   0.68752   0.88400   0.00000  Uiso   1.00
H25    H     0.45683   0.61737   0.83375   0.00000  Uiso   1.00
H26    H     0.63558   0.69908   0.75473   0.00000  Uiso   1.00
H27    H     0.55199   0.73186   0.07476   0.00000  Uiso   1.00
H28    H     0.34584   0.56209   0.76024   0.00000  Uiso   1.00
H29    H     0.72275   0.73439   0.59364   0.00000  Uiso   1.00
H30    H     0.54649   0.80353   0.26849   0.00000  Uiso   1.00
H31    H     0.44690   0.86096   0.74710   0.00000  Uiso   1.00
H32    H     0.35291   0.80032   0.68934   0.00000  Uiso   1.00
H33    H     0.53166   0.88203   0.61031   0.00000  Uiso   1.00
H34    H     0.44807   0.91482   0.93034   0.00000  Uiso   1.00
H35    H     0.26149   0.71058   0.64302   0.00000  Uiso   1.00
H36    H     0.63840   0.88288   0.47643   0.00000  Uiso   1.00
H37    H     0.46214   0.95202   0.15127   0.00000  Uiso   1.00
O38    O     0.24362   0.59331   0.66607   0.00000  Uiso   1.00
O39    O     0.73811   0.81937   0.44752   0.00000  Uiso   1.00
O40    O     0.50686   0.91008   0.33290   0.00000  Uiso   1.00
N41    N     0.33888   0.60536   0.74060   0.00000  Uiso   1.00
N42    N     0.69126   0.76644   0.58483   0.00000  Uiso   1.00
N43    N     0.52649   0.83109   0.21574   0.00000  Uiso   1.00
N44    N     0.29350   0.68526   0.67753   0.00000  Uiso   1.00
N45    N     0.64588   0.84635   0.52175   0.00000  Uiso   1.00
N46    N     0.48110   0.91100   0.15267   0.00000  Uiso   1.00
C47    C     0.47716   0.27274   0.85264   0.00000  Uiso   1.00
C48    C     0.53895   0.28681   0.80636   0.00000  Uiso   1.00
C49    C     0.56562   0.34315   0.80257   0.00000  Uiso   1.00
C50    C     0.62238   0.34665   0.75701   0.00000  Uiso   1.00
C51    C     0.71391   0.37625   0.69124   0.00000  Uiso   1.00
C52    C     0.44183   0.24242   0.76341   0.00000  Uiso   1.00
C53    C     0.38685   0.26143   0.72353   0.00000  Uiso   1.00
C54    C     0.36185   0.22755   0.64182   0.00000  Uiso   1.00
C55    C     0.30259   0.18822   0.50943   0.00000  Uiso   1.00
C56    C     0.48726   0.22461   0.93730   0.00000  Uiso   1.00
C57    C     0.47045   0.22863   0.04361   0.00000  Uiso   1.00
C58    C     0.48368   0.17975   0.10830   0.00000  Uiso   1.00
C59    C     0.49493   0.11277   0.24588   0.00000  Uiso   1.00
C60    C     0.53053   0.17877   0.77847   0.00000  Uiso   1.00
C61    C     0.56794   0.23577   0.76607   0.00000  Uiso   1.00
C62    C     0.62467   0.23918   0.72051   0.00000  Uiso   1.00
C63    C     0.65142   0.29551   0.71666   0.00000  Uiso   1.00
C64    C     0.47082   0.19138   0.72313   0.00000  Uiso   1.00
C65    C     0.44590   0.15747   0.64147   0.00000  Uiso   1.00
C66    C     0.39089   0.17642   0.60146   0.00000  Uiso   1.00
C67    C     0.51625   0.17357   0.89701   0.00000  Uiso   1.00
C68    C     0.52950   0.12467   0.96154   0.00000  Uiso   1.00
C69    C     0.51272   0.12862   0.06794   0.00000  Uiso   1.00
H70    H     0.45458   0.31248   0.88400   0.00000  Uiso   1.00
H71    H     0.54317   0.38263   0.83375   0.00000  Uiso   1.00
H72    H     0.36442   0.30092   0.75473   0.00000  Uiso   1.00
H73    H     0.44801   0.26814   0.07476   0.00000  Uiso   1.00
H74    H     0.65416   0.43791   0.76024   0.00000  Uiso   1.00
H75    H     0.27725   0.26561   0.59364   0.00000  Uiso   1.00
H76    H     0.45351   0.19647   0.26849   0.00000  Uiso   1.00
H77    H     0.55310   0.13904   0.74710   0.00000  Uiso   1.00
H78    H     0.64709   0.19968   0.68934   0.00000  Uiso   1.00
H79    H     0.46834   0.11797   0.61031   0.00000  Uiso   1.00
H80    H     0.55193   0.08518   0.93034   0.00000  Uiso   1.00
H81    H     0.73851   0.28942   0.64302   0.00000  Uiso   1.00
H82    H     0.36160   0.11712   0.47643   0.00000  Uiso   1.00
H83    H     0.53786   0.04798   0.15127   0.00000  Uiso   1.00
O84    O     0.75638   0.40669   0.66607   0.00000  Uiso   1.00
O85    O     0.26189   0.18063   0.44752   0.00000  Uiso   1.00
O86    O     0.49314   0.08992   0.33290   0.00000  Uiso   1.00
N87    N     0.66112   0.39464   0.74060   0.00000  Uiso   1.00
N88    N     0.30874   0.23356   0.58483   0.00000  Uiso   1.00
N89    N     0.47351   0.16891   0.21574   0.00000  Uiso   1.00
N90    N     0.70650   0.31474   0.67753   0.00000  Uiso   1.00
N91    N     0.35412   0.15365   0.52175   0.00000  Uiso   1.00
N92    N     0.51890   0.08900   0.15267   0.00000  Uiso   1.00
C93    C     0.72726   0.47716   0.14736   0.00000  Uiso   1.00
C94    C     0.71319   0.53895   0.19364   0.00000  Uiso   1.00
C95    C     0.65685   0.56562   0.19743   0.00000  Uiso   1.00
C96    C     0.65335   0.62238   0.24299   0.00000  Uiso   1.00
C97    C     0.62375   0.71391   0.30876   0.00000  Uiso   1.00
C98    C     0.75758   0.44183   0.23659   0.00000  Uiso   1.00
C99    C     0.73857   0.38685   0.27647   0.00000  Uiso   1.00
C100   C     0.77245   0.36185   0.35818   0.00000  Uiso   1.00
C101   C     0.81178   0.30259   0.49057   0.00000  Uiso   1.00
C102   C     0.77539   0.48726   0.06270   0.00000  Uiso   1.00
C103   C     0.77137   0.47045   0.95639   0.00000  Uiso   1.00
C104   C     0.82025   0.48368   0.89170   0.00000  Uiso   1.00
C105   C     0.88723   0.49493   0.75412   0.00000  Uiso   1.00
C106   C     0.82123   0.53053   0.22153   0.00000  Uiso   1.00
C107   C     0.76423   0.56794   0.23393   0.00000  Uiso   1.00
C108   C     0.76082   0.62467   0.27949   0.00000  Uiso   1.00
C109   C     0.70449   0.65142   0.28334   0.00000  Uiso   1.00
C110   C     0.80862   0.47082   0.27687   0.00000  Uiso   1.00
C111   C     0.84253   0.44590   0.35853   0.00000  Uiso   1.00
C112   C     0.82358   0.39089   0.39854   0.00000  Uiso   1.00
C113   C     0.82643   0.51625   0.10299   0.00000  Uiso   1.00
C114   C     0.87533   0.52950   0.03846   0.00000  Uiso   1.00
C115   C     0.87138   0.51272   0.93206   0.00000  Uiso   1.00
H116   H     0.68752   0.45458   0.11600   0.00000  Uiso   1.00
H117   H     0.61737   0.54317   0.16625   0.00000  Uiso   1.00
H118   H     0.69908   0.36442   0.24527   0.00000  Uiso   1.00
H119   H     0.73186   0.44801   0.92524   0.00000  Uiso   1.00
H120   H     0.56209   0.65416   0.23976   0.00000  Uiso   1.00
H121   H     0.73439   0.27725   0.40636   0.00000  Uiso   1.00
H122   H     0.80353   0.45351   0.73151   0.00000  Uiso   1.00
H123   H     0.86096   0.55310   0.25290   0.00000  Uiso   1.00
H124   H     0.80032   0.64709   0.31066   0.00000  Uiso   1.00
H125   H     0.88203   0.46834   0.38969   0.00000  Uiso   1.00
H126   H     0.91482   0.55193   0.06966   0.00000  Uiso   1.00
H127   H     0.71058   0.73851   0.35698   0.00000  Uiso   1.00
H128   H     0.88288   0.36160   0.52357   0.00000  Uiso   1.00
H129   H     0.95202   0.53786   0.84873   0.00000  Uiso   1.00
O130   O     0.59331   0.75638   0.33393   0.00000  Uiso   1.00
O131   O     0.81937   0.26189   0.55248   0.00000  Uiso   1.00
O132   O     0.91008   0.49314   0.66710   0.00000  Uiso   1.00
N133   N     0.60536   0.66112   0.25940   0.00000  Uiso   1.00
N134   N     0.76644   0.30874   0.41517   0.00000  Uiso   1.00
N135   N     0.83109   0.47351   0.78426   0.00000  Uiso   1.00
N136   N     0.68526   0.70650   0.32247   0.00000  Uiso   1.00
N137   N     0.84635   0.35412   0.47825   0.00000  Uiso   1.00
N138   N     0.91100   0.51890   0.84733   0.00000  Uiso   1.00
C139   C     0.27274   0.52284   0.14736   0.00000  Uiso   1.00
C140   C     0.28681   0.46105   0.19364   0.00000  Uiso   1.00
C141   C     0.34315   0.43438   0.19743   0.00000  Uiso   1.00
C142   C     0.34665   0.37762   0.24299   0.00000  Uiso   1.00
C143   C     0.37625   0.28609   0.30876   0.00000  Uiso   1.00
C144   C     0.24242   0.55817   0.23659   0.00000  Uiso   1.00
C145   C     0.26143   0.61315   0.27647   0.00000  Uiso   1.00
C146   C     0.22755   0.63815   0.35818   0.00000  Uiso   1.00
C147   C     0.18822   0.69741   0.49057   0.00000  Uiso   1.00
C148   C     0.22461   0.51274   0.06270   0.00000  Uiso   1.00
C149   C     0.22863   0.52955   0.95639   0.00000  Uiso   1.00
C150   C     0.17975   0.51632   0.89170   0.00000  Uiso   1.00
C151   C     0.11277   0.50507   0.75412   0.00000  Uiso   1.00
C152   C     0.17877   0.46947   0.22153   0.00000  Uiso   1.00
C153   C     0.23577   0.43206   0.23393   0.00000  Uiso   1.00
C154   C     0.23918   0.37533   0.27949   0.00000  Uiso   1.00
C155   C     0.29551   0.34858   0.28334   0.00000  Uiso   1.00
C156   C     0.19138   0.52918   0.27687   0.00000  Uiso   1.00
C157   C     0.15747   0.55410   0.35853   0.00000  Uiso   1.00
C158   C     0.17642   0.60911   0.39854   0.00000  Uiso   1.00
C159   C     0.17357   0.48375   0.10299   0.00000  Uiso   1.00
C160   C     0.12467   0.47050   0.03846   0.00000  Uiso   1.00
C161   C     0.12862   0.48728   0.93206   0.00000  Uiso   1.00
H162   H     0.31248   0.54542   0.11600   0.00000  Uiso   1.00
H163   H     0.38263   0.45683   0.16625   0.00000  Uiso   1.00
H164   H     0.30092   0.63558   0.24527   0.00000  Uiso   1.00
H165   H     0.26814   0.55199   0.92524   0.00000  Uiso   1.00
H166   H     0.43791   0.34584   0.23976   0.00000  Uiso   1.00
H167   H     0.26561   0.72275   0.40636   0.00000  Uiso   1.00
H168   H     0.19647   0.54649   0.73151   0.00000  Uiso   1.00
H169   H     0.13904   0.44690   0.25290   0.00000  Uiso   1.00
H170   H     0.19968   0.35291   0.31066   0.00000  Uiso   1.00
H171   H     0.11797   0.53166   0.38969   0.00000  Uiso   1.00
H172   H     0.08518   0.44807   0.06966   0.00000  Uiso   1.00
H173   H     0.28942   0.26149   0.35698   0.00000  Uiso   1.00
H174   H     0.11712   0.63840   0.52357   0.00000  Uiso   1.00
H175   H     0.04798   0.46214   0.84873   0.00000  Uiso   1.00
O176   O     0.40669   0.24362   0.33393   0.00000  Uiso   1.00
O177   O     0.18063   0.73811   0.55248   0.00000  Uiso   1.00
O178   O     0.08992   0.50686   0.66710   0.00000  Uiso   1.00
N179   N     0.39464   0.33888   0.25940   0.00000  Uiso   1.00
N180   N     0.23356   0.69126   0.41517   0.00000  Uiso   1.00
N181   N     0.16891   0.52649   0.78426   0.00000  Uiso   1.00
N182   N     0.31474   0.29350   0.32247   0.00000  Uiso   1.00
N183   N     0.15365   0.64588   0.47825   0.00000  Uiso   1.00
N184   N     0.08900   0.48110   0.84733   0.00000  Uiso   1.00
C185   C     0.02284   0.77274   0.35264   0.00000  Uiso   1.00
C186   C     0.96105   0.78681   0.30636   0.00000  Uiso   1.00
C187   C     0.93438   0.84315   0.30257   0.00000  Uiso   1.00
C188   C     0.87762   0.84665   0.25701   0.00000  Uiso   1.00
C189   C     0.78609   0.87625   0.19124   0.00000  Uiso   1.00
C190   C     0.05817   0.74242   0.26341   0.00000  Uiso   1.00
C191   C     0.11315   0.76143   0.22353   0.00000  Uiso   1.00
C192   C     0.13815   0.72755   0.14182   0.00000  Uiso   1.00
C193   C     0.19741   0.68822   0.00943   0.00000  Uiso   1.00
C194   C     0.01274   0.72461   0.43730   0.00000  Uiso   1.00
C195   C     0.02955   0.72863   0.54361   0.00000  Uiso   1.00
C196   C     0.01632   0.67975   0.60830   0.00000  Uiso   1.00
C197   C     0.00507   0.61277   0.74588   0.00000  Uiso   1.00
C198   C     0.96947   0.67877   0.27847   0.00000  Uiso   1.00
C199   C     0.93206   0.73577   0.26607   0.00000  Uiso   1.00
C200   C     0.87533   0.73918   0.22051   0.00000  Uiso   1.00
C201   C     0.84858   0.79551   0.21666   0.00000  Uiso   1.00
C202   C     0.02918   0.69138   0.22313   0.00000  Uiso   1.00
C203   C     0.05410   0.65747   0.14147   0.00000  Uiso   1.00
C204   C     0.10911   0.67642   0.10146   0.00000  Uiso   1.00
C205   C     0.98375   0.67357   0.39701   0.00000  Uiso   1.00
C206   C     0.97050   0.62467   0.46154   0.00000  Uiso   1.00
C207   C     0.98728   0.62862   0.56794   0.00000  Uiso   1.00
H208   H     0.04542   0.81248   0.38400   0.00000  Uiso   1.00
H209   H     0.95683   0.88263   0.33375   0.00000  Uiso   1.00
H210   H     0.13558   0.80092   0.25473   0.00000  Uiso   1.00
H211   H     0.05199   0.76814   0.57476   0.00000  Uiso   1.00
H212   H     0.84584   0.93791   0.26024   0.00000  Uiso   1.00
H213   H     0.22275   0.76561   0.09364   0.00000  Uiso   1.00
H214   H     0.04649   0.69647   0.76849   0.00000  Uiso   1.00
H215   H     0.94690   0.63904   0.24710   0.00000  Uiso   1.00
H216   H     0.85291   0.69968   0.18934   0.00000  Uiso   1.00
H217   H     0.03166   0.61797   0.11031   0.00000  Uiso   1.00
H218   H     0.94807   0.58518   0.43034   0.00000  Uiso   1.00
H219   H     0.76149   0.78942   0.14302   0.00000  Uiso   1.00
H220   H     0.13840   0.61712   0.97643   0.00000  Uiso   1.00
H221   H     0.96214   0.54798   0.65127   0.00000  Uiso   1.00
O222   O     0.74362   0.90669   0.16607   0.00000  Uiso   1.00
O223   O     0.23811   0.68063   0.94752   0.00000  Uiso   1.00
O224   O     0.00686   0.58992   0.83290   0.00000  Uiso   1.00
N225   N     0.83888   0.89464   0.24060   0.00000  Uiso   1.00
N226   N     0.19126   0.73356   0.08483   0.00000  Uiso   1.00
N227   N     0.02649   0.66891   0.71574   0.00000  Uiso   1.00
N228   N     0.79350   0.81474   0.17753   0.00000  Uiso   1.00
N229   N     0.14588   0.65365   0.02175   0.00000  Uiso   1.00
N230   N     0.98110   0.58900   0.65267   0.00000  Uiso   1.00
C231   C     0.97716   0.22726   0.35264   0.00000  Uiso   1.00
C232   C     0.03895   0.21319   0.30636   0.00000  Uiso   1.00
C233   C     0.06562   0.15685   0.30257   0.00000  Uiso   1.00
C234   C     0.12238   0.15335   0.25701   0.00000  Uiso   1.00
C235   C     0.21391   0.12375   0.19124   0.00000  Uiso   1.00
C236   C     0.94183   0.25758   0.26341   0.00000  Uiso   1.00
C237   C     0.88685   0.23857   0.22353   0.00000  Uiso   1.00
C238   C     0.86185   0.27245   0.14182   0.00000  Uiso   1.00
C239   C     0.80259   0.31178   0.00943   0.00000  Uiso   1.00
C240   C     0.98726   0.27539   0.43730   0.00000  Uiso   1.00
C241   C     0.97045   0.27137   0.54361   0.00000  Uiso   1.00
C242   C     0.98368   0.32025   0.60830   0.00000  Uiso   1.00
C243   C     0.99493   0.38723   0.74588   0.00000  Uiso   1.00
C244   C     0.03053   0.32123   0.27847   0.00000  Uiso   1.00
C245   C     0.06794   0.26423   0.26607   0.00000  Uiso   1.00
C246   C     0.12467   0.26082   0.22051   0.00000  Uiso   1.00
C247   C     0.15142   0.20449   0.21666   0.00000  Uiso   1.00
C248   C     0.97082   0.30862   0.22313   0.00000  Uiso   1.00
C249   C     0.94590   0.34253   0.14147   0.00000  Uiso   1.00
C250   C     0.89089   0.32358   0.10146   0.00000  Uiso   1.00
C251   C     0.01625   0.32643   0.39701   0.00000  Uiso   1.00
C252   C     0.02950   0.37533   0.46154   0.00000  Uiso   1.00
C253   C     0.01272   0.37138   0.56794   0.00000  Uiso   1.00
H254   H     0.95458   0.18752   0.38400   0.00000  Uiso   1.00
H255   H     0.04317   0.11737   0.33375   0.00000  Uiso   1.00
H256   H     0.86442   0.19908   0.25473   0.00000  Uiso   1.00
H257   H     0.94801   0.23186   0.57476   0.00000  Uiso   1.00
H258   H     0.15416   0.06209   0.26024   0.00000  Uiso   1.00
H259   H     0.77725   0.23439   0.09364   0.00000  Uiso   1.00
H260   H     0.95351   0.30353   0.76849   0.00000  Uiso   1.00
H261   H     0.05310   0.36096   0.24710   0.00000  Uiso   1.00
H262   H     0.14709   0.30032   0.18934   0.00000  Uiso   1.00
H263   H     0.96834   0.38203   0.11031   0.00000  Uiso   1.00
H264   H     0.05193   0.41482   0.43034   0.00000  Uiso   1.00
H265   H     0.23851   0.21058   0.14302   0.00000  Uiso   1.00
H266   H     0.86160   0.38288   0.97643   0.00000  Uiso   1.00
H267   H     0.03786   0.45202   0.65127   0.00000  Uiso   1.00
O268   O     0.25638   0.09331   0.16607   0.00000  Uiso   1.00
O269   O     0.76189   0.31937   0.94752   0.00000  Uiso   1.00
O270   O     0.99314   0.41008   0.83290   0.00000  Uiso   1.00
N271   N     0.16112   0.10536   0.24060   0.00000  Uiso   1.00
N272   N     0.80874   0.26644   0.08483   0.00000  Uiso   1.00
N273   N     0.97351   0.33109   0.71574   0.00000  Uiso   1.00
N274   N     0.20650   0.18526   0.17753   0.00000  Uiso   1.00
N275   N     0.85412   0.34635   0.02175   0.00000  Uiso   1.00
N276   N     0.01890   0.41100   0.65267   0.00000  Uiso   1.00
C277   C     0.22726   0.02284   0.64736   0.00000  Uiso   1.00
C278   C     0.21319   0.96105   0.69364   0.00000  Uiso   1.00
C279   C     0.15685   0.93438   0.69743   0.00000  Uiso   1.00
C280   C     0.15335   0.87762   0.74299   0.00000  Uiso   1.00
C281   C     0.12375   0.78609   0.80876   0.00000  Uiso   1.00
C282   C     0.25758   0.05817   0.73659   0.00000  Uiso   1.00
C283   C     0.23857   0.11315   0.77647   0.00000  Uiso   1.00
C284   C     0.27245   0.13815   0.85818   0.00000  Uiso   1.00
C285   C     0.31178   0.19741   0.99057   0.00000  Uiso   1.00
C286   C     0.27539   0.01274   0.56270   0.00000  Uiso   1.00
C287   C     0.27137   0.02955   0.45639   0.00000  Uiso   1.00
C288   C     0.32025   0.01632   0.39170   0.00000  Uiso   1.00
C289   C     0.38723   0.00507   0.25412   0.00000  Uiso   1.00
C290   C     0.32123   0.96947   0.72153   0.00000  Uiso   1.00
C291   C     0.26423   0.93206   0.73393   0.00000  Uiso   1.00
C292   C     0.26082   0.87533   0.77949   0.00000  Uiso   1.00
C293   C     0.20449   0.84858   0.78334   0.00000  Uiso   1.00
C294   C     0.30862   0.02918   0.77687   0.00000  Uiso   1.00
C295   C     0.34253   0.05410   0.85853   0.00000  Uiso   1.00
C296   C     0.32358   0.10911   0.89854   0.00000  Uiso   1.00
C297   C     0.32643   0.98375   0.60299   0.00000  Uiso   1.00
C298   C     0.37533   0.97050   0.53846   0.00000  Uiso   1.00
C299   C     0.37138   0.98728   0.43206   0.00000  Uiso   1.00
H300   H     0.18752   0.04542   0.61600   0.00000  Uiso   1.00
H301   H     0.11737   0.95683   0.66625   0.00000  Uiso   1.00
H302   H     0.19908   0.13558   0.74527   0.00000  Uiso   1.00
H303   H     0.23186   0.05199   0.42524   0.00000  Uiso   1.00
H304   H     0.06209   0.84584   0.73976   0.00000  Uiso   1.00
H305   H     0.23439   0.22275   0.90636   0.00000  Uiso   1.00
H306   H     0.30353   0.04649   0.23151   0.00000  Uiso   1.00
H307   H     0.36096   0.94690   0.75290   0.00000  Uiso   1.00
H308   H     0.30032   0.85291   0.81066   0.00000  Uiso   1.00
H309   H     0.38203   0.03166   0.88969   0.00000  Uiso   1.00
H310   H     0.41482   0.94807   0.56966   0.00000  Uiso   1.00
H311   H     0.21058   0.76149   0.85698   0.00000  Uiso   1.00
H312   H     0.38288   0.13840   0.02357   0.00000  Uiso   1.00
H313   H     0.45202   0.96214   0.34873   0.00000  Uiso   1.00
O314   O     0.09331   0.74362   0.83393   0.00000  Uiso   1.00
O315   O     0.31937   0.23811   0.05248   0.00000  Uiso   1.00
O316   O     0.41008   0.00686   0.16710   0.00000  Uiso   1.00
N317   N     0.10536   0.83888   0.75940   0.00000  Uiso   1.00
N318   N     0.26644   0.19126   0.91517   0.00000  Uiso   1.00
N319   N     0.33109   0.02649   0.28426   0.00000  Uiso   1.00
N320   N     0.18526   0.79350   0.82247   0.00000  Uiso   1.00
N321   N     0.34635   0.14588   0.97825   0.00000  Uiso   1.00
N322   N     0.41100   0.98110   0.34733   0.00000  Uiso   1.00
C323   C     0.77274   0.97716   0.64736   0.00000  Uiso   1.00
C324   C     0.78681   0.03895   0.69364   0.00000  Uiso   1.00
C325   C     0.84315   0.06562   0.69743   0.00000  Uiso   1.00
C326   C     0.84665   0.12238   0.74299   0.00000  Uiso   1.00
C327   C     0.87625   0.21391   0.80876   0.00000  Uiso   1.00
C328   C     0.74242   0.94183   0.73659   0.00000  Uiso   1.00
C329   C     0.76143   0.88685   0.77647   0.00000  Uiso   1.00
C330   C     0.72755   0.86185   0.85818   0.00000  Uiso   1.00
C331   C     0.68822   0.80259   0.99057   0.00000  Uiso   1.00
C332   C     0.72461   0.98726   0.56270   0.00000  Uiso   1.00
C333   C     0.72863   0.97045   0.45639   0.00000  Uiso   1.00
C334   C     0.67975   0.98368   0.39170   0.00000  Uiso   1.00
C335   C     0.61277   0.99493   0.25412   0.00000  Uiso   1.00
C336   C     0.67877   0.03053   0.72153   0.00000  Uiso   1.00
C337   C     0.73577   0.06794   0.73393   0.00000  Uiso   1.00
C338   C     0.73918   0.12467   0.77949   0.00000  Uiso   1.00
C339   C     0.79551   0.15142   0.78334   0.00000  Uiso   1.00
C340   C     0.69138   0.97082   0.77687   0.00000  Uiso   1.00
C341   C     0.65747   0.94590   0.85853   0.00000  Uiso   1.00
C342   C     0.67642   0.89089   0.89854   0.00000  Uiso   1.00
C343   C     0.67357   0.01625   0.60299   0.00000  Uiso   1.00
C344   C     0.62467   0.02950   0.53846   0.00000  Uiso   1.00
C345   C     0.62862   0.01272   0.43206   0.00000  Uiso   1.00
H346   H     0.81248   0.95458   0.61600   0.00000  Uiso   1.00
H347   H     0.88263   0.04317   0.66625   0.00000  Uiso   1.00
H348   H     0.80092   0.86442   0.74527   0.00000  Uiso   1.00
H349   H     0.76814   0.94801   0.42524   0.00000  Uiso   1.00
H350   H     0.93791   0.15416   0.73976   0.00000  Uiso   1.00
H351   H     0.76561   0.77725   0.90636   0.00000  Uiso   1.00
H352   H     0.69647   0.95351   0.23151   0.00000  Uiso   1.00
H353   H     0.63904   0.05310   0.75290   0.00000  Uiso   1.00
H354   H     0.69968   0.14709   0.81066   0.00000  Uiso   1.00
H355   H     0.61797   0.96834   0.88969   0.00000  Uiso   1.00
H356   H     0.58518   0.05193   0.56966   0.00000  Uiso   1.00
H357   H     0.78942   0.23851   0.85698   0.00000  Uiso   1.00
H358   H     0.61712   0.86160   0.02357   0.00000  Uiso   1.00
H359   H     0.54798   0.03786   0.34873   0.00000  Uiso   1.00
O360   O     0.90669   0.25638   0.83393   0.00000  Uiso   1.00
O361   O     0.68063   0.76189   0.05248   0.00000  Uiso   1.00
O362   O     0.58992   0.99314   0.16710   0.00000  Uiso   1.00
N363   N     0.89464   0.16112   0.75940   0.00000  Uiso   1.00
N364   N     0.73356   0.80874   0.91517   0.00000  Uiso   1.00
N365   N     0.66891   0.97351   0.28426   0.00000  Uiso   1.00
N366   N     0.81474   0.20650   0.82247   0.00000  Uiso   1.00
N367   N     0.65365   0.85412   0.97825   0.00000  Uiso   1.00
N368   N     0.58900   0.01890   0.34733   0.00000  Uiso   1.00
