data_job_06798
_audit_creation_date              2018-12-19
_audit_creation_method            'Materials Studio'
_symmetry_space_group_name_H-M    'P1'
_symmetry_Int_Tables_number       1
_symmetry_cell_setting            triclinic
loop_
_symmetry_equiv_pos_as_xyz
  x,y,z
_cell_length_a                    20.9565
_cell_length_b                    21.2755
_cell_length_c                    22.4684
_cell_angle_alpha                 90.4689
_cell_angle_beta                  63.4571
_cell_angle_gamma                 72.8808
loop_
_atom_site_label
_atom_site_type_symbol
_atom_site_fract_x
_atom_site_fract_y
_atom_site_fract_z
_atom_site_U_iso_or_equiv
_atom_site_adp_type
_atom_site_occupancy
C1     C     0.31834   0.47872   0.62681   0.00000  Uiso   1.00
C2     C     0.30861   0.42060   0.59558   0.00000  Uiso   1.00
C3     C     0.33346   0.35438   0.60261   0.00000  Uiso   1.00
C4     C     0.31909   0.30870   0.57006   0.00000  Uiso   1.00
C5     C     0.30978   0.21541   0.52735   0.00000  Uiso   1.00
C6     C     0.35962   0.51177   0.56835   0.00000  Uiso   1.00
C7     C     0.42735   0.52223   0.55251   0.00000  Uiso   1.00
C8     C     0.45591   0.55330   0.49705   0.00000  Uiso   1.00
C9     C     0.52576   0.60161   0.41211   0.00000  Uiso   1.00
C10    C     0.23903   0.52889   0.66831   0.00000  Uiso   1.00
C11    C     0.20537   0.55374   0.73650   0.00000  Uiso   1.00
C12    C     0.13241   0.59924   0.76520   0.00000  Uiso   1.00
C13    C     0.01503   0.67412   0.83545   0.00000  Uiso   1.00
C14    C     0.24864   0.51533   0.55651   0.00000  Uiso   1.00
C15    C     0.27076   0.44048   0.55739   0.00000  Uiso   1.00
C16    C     0.25634   0.39489   0.52483   0.00000  Uiso   1.00
C17    C     0.28116   0.32862   0.53181   0.00000  Uiso   1.00
C18    C     0.32176   0.53166   0.53017   0.00000  Uiso   1.00
C19    C     0.35023   0.56273   0.47473   0.00000  Uiso   1.00
C20    C     0.41798   0.57322   0.45880   0.00000  Uiso   1.00
C21    C     0.20117   0.54877   0.63013   0.00000  Uiso   1.00
C22    C     0.12825   0.59424   0.65873   0.00000  Uiso   1.00
C23    C     0.09449   0.61916   0.72695   0.00000  Uiso   1.00
H24    H     0.34782   0.46324   0.65653   0.00000  Uiso   1.00
H25    H     0.36276   0.33901   0.63215   0.00000  Uiso   1.00
H26    H     0.45663   0.50684   0.58207   0.00000  Uiso   1.00
H27    H     0.23469   0.53834   0.76603   0.00000  Uiso   1.00
H28    H     0.36266   0.21005   0.58827   0.00000  Uiso   1.00
H29    H     0.56057   0.56393   0.48267   0.00000  Uiso   1.00
H30    H     0.09256   0.63038   0.87060   0.00000  Uiso   1.00
H31    H     0.21916   0.53082   0.52678   0.00000  Uiso   1.00
H32    H     0.22704   0.41029   0.49528   0.00000  Uiso   1.00
H33    H     0.32091   0.57811   0.44520   0.00000  Uiso   1.00
H34    H     0.09897   0.60962   0.62916   0.00000  Uiso   1.00
H35    H     0.25250   0.26790   0.47718   0.00000  Uiso   1.00
H36    H     0.45042   0.62179   0.37158   0.00000  Uiso   1.00
H37    H     0.98241   0.68823   0.75951   0.00000  Uiso   1.00
O38    O     0.31511   0.15846   0.51433   0.00000  Uiso   1.00
O39    O     0.57475   0.62276   0.37580   0.00000  Uiso   1.00
O40    O     0.96074   0.70993   0.88475   0.00000  Uiso   1.00
N41    N     0.33564   0.24020   0.56646   0.00000  Uiso   1.00
N42    N     0.52068   0.57106   0.46773   0.00000  Uiso   1.00
N43    N     0.08314   0.63319   0.83040   0.00000  Uiso   1.00
N44    N     0.27636   0.27133   0.50668   0.00000  Uiso   1.00
N45    N     0.46141   0.60219   0.40795   0.00000  Uiso   1.00
N46    N     0.02387   0.66432   0.77063   0.00000  Uiso   1.00
C47    C     0.89106   0.97710   0.47368   0.00000  Uiso   1.00
C48    C     0.93932   0.93531   0.50304   0.00000  Uiso   1.00
C49    C     0.91289   0.92266   0.56882   0.00000  Uiso   1.00
C50    C     0.96608   0.88327   0.58585   0.00000  Uiso   1.00
C51    C     0.02933   0.82233   0.63862   0.00000  Uiso   1.00
C52    C     0.92497   0.03140   0.44604   0.00000  Uiso   1.00
C53    C     0.88647   0.09954   0.46387   0.00000  Uiso   1.00
C54    C     0.92758   0.14103   0.43290   0.00000  Uiso   1.00
C55    C     0.96853   0.22926   0.39714   0.00000  Uiso   1.00
C56    C     0.90584   0.93208   0.41252   0.00000  Uiso   1.00
C57    C     0.85125   0.91673   0.40216   0.00000  Uiso   1.00
C58    C     0.87626   0.87461   0.34296   0.00000  Uiso   1.00
C59    C     0.88751   0.80864   0.25515   0.00000  Uiso   1.00
C60    C     0.03252   0.92963   0.38695   0.00000  Uiso   1.00
C61    C     0.01615   0.90953   0.45594   0.00000  Uiso   1.00
C62    C     0.06940   0.87014   0.47287   0.00000  Uiso   1.00
C63    C     0.04305   0.85744   0.53865   0.00000  Uiso   1.00
C64    C     0.00180   0.00562   0.39893   0.00000  Uiso   1.00
C65    C     0.04297   0.04702   0.36792   0.00000  Uiso   1.00
C66    C     0.00455   0.11520   0.38571   0.00000  Uiso   1.00
C67    C     0.98267   0.90629   0.36541   0.00000  Uiso   1.00
C68    C     0.00776   0.86420   0.30621   0.00000  Uiso   1.00
C69    C     0.95323   0.84879   0.29576   0.00000  Uiso   1.00
H70    H     0.83124   0.99718   0.51035   0.00000  Uiso   1.00
H71    H     0.85343   0.94263   0.60526   0.00000  Uiso   1.00
H72    H     0.82701   0.11947   0.50032   0.00000  Uiso   1.00
H73    H     0.79180   0.93669   0.43862   0.00000  Uiso   1.00
H74    H     0.91191   0.87080   0.68972   0.00000  Uiso   1.00
H75    H     0.85619   0.24368   0.46844   0.00000  Uiso   1.00
H76    H     0.78195   0.85825   0.33833   0.00000  Uiso   1.00
H77    H     0.09234   0.90956   0.35027   0.00000  Uiso   1.00
H78    H     0.12885   0.85020   0.43640   0.00000  Uiso   1.00
H79    H     0.10243   0.02705   0.33147   0.00000  Uiso   1.00
H80    H     0.06723   0.84426   0.26977   0.00000  Uiso   1.00
H81    H     0.13546   0.79578   0.55267   0.00000  Uiso   1.00
H82    H     0.07974   0.16867   0.33139   0.00000  Uiso   1.00
H83    H     0.00550   0.78323   0.20128   0.00000  Uiso   1.00
O84    O     0.04300   0.79584   0.68075   0.00000  Uiso   1.00
O85    O     0.96989   0.28505   0.39043   0.00000  Uiso   1.00
O86    O     0.87249   0.77936   0.21973   0.00000  Uiso   1.00
N87    N     0.95951   0.86128   0.64564   0.00000  Uiso   1.00
N88    N     0.90742   0.20991   0.43877   0.00000  Uiso   1.00
N89    N     0.83801   0.84957   0.31712   0.00000  Uiso   1.00
N90    N     0.07980   0.82091   0.57190   0.00000  Uiso   1.00
N91    N     0.02771   0.16954   0.36502   0.00000  Uiso   1.00
N92    N     0.95830   0.80920   0.24337   0.00000  Uiso   1.00
C93    C     0.41320   0.46194   0.08594   0.00000  Uiso   1.00
C94    C     0.34736   0.52704   0.10720   0.00000  Uiso   1.00
C95    C     0.29760   0.54412   0.08036   0.00000  Uiso   1.00
C96    C     0.24114   0.60599   0.10663   0.00000  Uiso   1.00
C97    C     0.13990   0.70052   0.13181   0.00000  Uiso   1.00
C98    C     0.48364   0.48161   0.06542   0.00000  Uiso   1.00
C99    C     0.54846   0.46049   0.00344   0.00000  Uiso   1.00
C100   C     0.60672   0.48411   0.99454   0.00000  Uiso   1.00
C101   C     0.71708   0.50808   0.95487   0.00000  Uiso   1.00
C102   C     0.40052   0.43165   0.14990   0.00000  Uiso   1.00
C103   C     0.39548   0.36851   0.15895   0.00000  Uiso   1.00
C104   C     0.38377   0.35007   0.22118   0.00000  Uiso   1.00
C105   C     0.36507   0.29646   0.31268   0.00000  Uiso   1.00
C106   C     0.40140   0.54145   0.18034   0.00000  Uiso   1.00
C107   C     0.34096   0.57023   0.15847   0.00000  Uiso   1.00
C108   C     0.28455   0.63209   0.18480   0.00000  Uiso   1.00
C109   C     0.23471   0.64926   0.15799   0.00000  Uiso   1.00
C110   C     0.47723   0.52480   0.11668   0.00000  Uiso   1.00
C111   C     0.53541   0.54846   0.10788   0.00000  Uiso   1.00
C112   C     0.60030   0.52738   0.04590   0.00000  Uiso   1.00
C113   C     0.39411   0.47484   0.20117   0.00000  Uiso   1.00
C114   C     0.38241   0.45649   0.26339   0.00000  Uiso   1.00
C115   C     0.37735   0.39333   0.27254   0.00000  Uiso   1.00
H116   H     0.41820   0.42831   0.04602   0.00000  Uiso   1.00
H117   H     0.30259   0.51068   0.04067   0.00000  Uiso   1.00
H118   H     0.55341   0.42706   0.96377   0.00000  Uiso   1.00
H119   H     0.40044   0.33510   0.11926   0.00000  Uiso   1.00
H120   H     0.17160   0.62106   0.05734   0.00000  Uiso   1.00
H121   H     0.70048   0.44472   0.89519   0.00000  Uiso   1.00
H122   H     0.37792   0.25081   0.22307   0.00000  Uiso   1.00
H123   H     0.39641   0.57508   0.22026   0.00000  Uiso   1.00
H124   H     0.27960   0.66550   0.22447   0.00000  Uiso   1.00
H125   H     0.53043   0.58188   0.14757   0.00000  Uiso   1.00
H126   H     0.37746   0.48992   0.30306   0.00000  Uiso   1.00
H127   H     0.15295   0.74672   0.20651   0.00000  Uiso   1.00
H128   H     0.68183   0.57038   0.04437   0.00000  Uiso   1.00
H129   H     0.35927   0.37647   0.37225   0.00000  Uiso   1.00
O130   O     0.08584   0.74074   0.13154   0.00000  Uiso   1.00
O131   O     0.77972   0.50937   0.91882   0.00000  Uiso   1.00
O132   O     0.35652   0.25497   0.34899   0.00000  Uiso   1.00
N133   N     0.18323   0.63822   0.09188   0.00000  Uiso   1.00
N134   N     0.67770   0.47336   0.94028   0.00000  Uiso   1.00
N135   N     0.37615   0.29206   0.24681   0.00000  Uiso   1.00
N136   N     0.17320   0.70584   0.17215   0.00000  Uiso   1.00
N137   N     0.66766   0.54098   0.02055   0.00000  Uiso   1.00
N138   N     0.36611   0.35968   0.32708   0.00000  Uiso   1.00
C139   C     0.98876   0.29024   0.02095   0.00000  Uiso   1.00
C140   C     0.94463   0.28892   0.98261   0.00000  Uiso   1.00
C141   C     0.91459   0.34204   0.95686   0.00000  Uiso   1.00
C142   C     0.87612   0.33077   0.92335   0.00000  Uiso   1.00
C143   C     0.80886   0.33818   0.86491   0.00000  Uiso   1.00
C144   C     0.06450   0.23437   0.98249   0.00000  Uiso   1.00
C145   C     0.13525   0.24163   0.95665   0.00000  Uiso   1.00
C146   C     0.19769   0.18444   0.92305   0.00000  Uiso   1.00
C147   C     0.31654   0.10715   0.86448   0.00000  Uiso   1.00
C148   C     0.94695   0.26895   0.08835   0.00000  Uiso   1.00
C149   C     0.91888   0.30527   0.15153   0.00000  Uiso   1.00
C150   C     0.88236   0.27717   0.20706   0.00000  Uiso   1.00
C151   C     0.81869   0.25357   0.31286   0.00000  Uiso   1.00
C152   C     0.97386   0.17574   0.00724   0.00000  Uiso   1.00
C153   C     0.93654   0.22673   0.97516   0.00000  Uiso   1.00
C154   C     0.89810   0.21537   0.94168   0.00000  Uiso   1.00
C155   C     0.86801   0.26847   0.91589   0.00000  Uiso   1.00
C156   C     0.05641   0.17219   0.97504   0.00000  Uiso   1.00
C157   C     0.11876   0.11496   0.94148   0.00000  Uiso   1.00
C158   C     0.18959   0.12213   0.91559   0.00000  Uiso   1.00
C159   C     0.93885   0.20676   0.08091   0.00000  Uiso   1.00
C160   C     0.90239   0.17860   0.13635   0.00000  Uiso   1.00
C161   C     0.87426   0.21487   0.19960   0.00000  Uiso   1.00
H162   H     0.99507   0.33865   0.02675   0.00000  Uiso   1.00
H163   H     0.92087   0.39016   0.96263   0.00000  Uiso   1.00
H164   H     0.14150   0.28977   0.96243   0.00000  Uiso   1.00
H165   H     0.92515   0.35339   0.15727   0.00000  Uiso   1.00
H166   H     0.83506   0.41984   0.88823   0.00000  Uiso   1.00
H167   H     0.30027   0.20815   0.88782   0.00000  Uiso   1.00
H168   H     0.84406   0.34232   0.29870   0.00000  Uiso   1.00
H169   H     0.96756   0.12732   0.00144   0.00000  Uiso   1.00
H170   H     0.89185   0.16724   0.93593   0.00000  Uiso   1.00
H171   H     0.11248   0.06684   0.93572   0.00000  Uiso   1.00
H172   H     0.89613   0.13047   0.13057   0.00000  Uiso   1.00
H173   H     0.81151   0.23891   0.86655   0.00000  Uiso   1.00
H174   H     0.27672   0.02721   0.86615   0.00000  Uiso   1.00
H175   H     0.82051   0.16139   0.27702   0.00000  Uiso   1.00
O176   O     0.77400   0.35944   0.83473   0.00000  Uiso   1.00
O177   O     0.38433   0.08171   0.83422   0.00000  Uiso   1.00
O178   O     0.78579   0.25774   0.37327   0.00000  Uiso   1.00
N179   N     0.83990   0.37179   0.89213   0.00000  Uiso   1.00
N180   N     0.27483   0.17387   0.89174   0.00000  Uiso   1.00
N181   N     0.84834   0.29930   0.27587   0.00000  Uiso   1.00
N182   N     0.82722   0.27443   0.88047   0.00000  Uiso   1.00
N183   N     0.26216   0.07651   0.88008   0.00000  Uiso   1.00
N184   N     0.83566   0.20194   0.26421   0.00000  Uiso   1.00
C185   C     0.52948   0.92634   0.97902   0.00000  Uiso   1.00
C186   C     0.45148   0.97724   0.02367   0.00000  Uiso   1.00
C187   C     0.40896   0.98146   0.09275   0.00000  Uiso   1.00
C188   C     0.33898   0.03154   0.12443   0.00000  Uiso   1.00
C189   C     0.22190   0.10386   0.19927   0.00000  Uiso   1.00
C190   C     0.58121   0.96656   0.94369   0.00000  Uiso   1.00
C191   C     0.64777   0.96179   0.94553   0.00000  Uiso   1.00
C192   C     0.68700   0.00289   0.90988   0.00000  Uiso   1.00
C193   C     0.77136   0.05859   0.86051   0.00000  Uiso   1.00
C194   C     0.52239   0.89105   0.92406   0.00000  Uiso   1.00
C195   C     0.53952   0.82279   0.90937   0.00000  Uiso   1.00
C196   C     0.52924   0.80031   0.85718   0.00000  Uiso   1.00
C197   C     0.52228   0.73877   0.77733   0.00000  Uiso   1.00
C198   C     0.48079   0.00778   0.91243   0.00000  Uiso   1.00
C199   C     0.42504   0.02147   0.98750   0.00000  Uiso   1.00
C200   C     0.35510   0.07156   0.01908   0.00000  Uiso   1.00
C201   C     0.31248   0.07585   0.08820   0.00000  Uiso   1.00
C202   C     0.55477   0.01079   0.90753   0.00000  Uiso   1.00
C203   C     0.59391   0.05190   0.87186   0.00000  Uiso   1.00
C204   C     0.66051   0.04720   0.87364   0.00000  Uiso   1.00
C205   C     0.49594   0.93528   0.88789   0.00000  Uiso   1.00
C206   C     0.48565   0.91290   0.83570   0.00000  Uiso   1.00
C207   C     0.50275   0.84462   0.82094   0.00000  Uiso   1.00
H208   H     0.55007   0.89191   0.00718   0.00000  Uiso   1.00
H209   H     0.42945   0.94722   0.12073   0.00000  Uiso   1.00
H210   H     0.66823   0.92755   0.97352   0.00000  Uiso   1.00
H211   H     0.55998   0.78858   0.93737   0.00000  Uiso   1.00
H212   H     0.28407   0.02807   0.23068   0.00000  Uiso   1.00
H213   H     0.78755   0.98659   0.92026   0.00000  Uiso   1.00
H214   H     0.55930   0.69352   0.84404   0.00000  Uiso   1.00
H215   H     0.46021   0.04222   0.88427   0.00000  Uiso   1.00
H216   H     0.33465   0.10578   0.99108   0.00000  Uiso   1.00
H217   H     0.57343   0.08612   0.84387   0.00000  Uiso   1.00
H218   H     0.46518   0.94714   0.80772   0.00000  Uiso   1.00
H219   H     0.20712   0.15676   0.12545   0.00000  Uiso   1.00
H220   H     0.71062   0.11528   0.81503   0.00000  Uiso   1.00
H221   H     0.48236   0.82222   0.73881   0.00000  Uiso   1.00
O222   O     0.16463   0.13153   0.25055   0.00000  Uiso   1.00
O223   O     0.82520   0.07710   0.84328   0.00000  Uiso   1.00
O224   O     0.52573   0.69261   0.74328   0.00000  Uiso   1.00
N225   N     0.28318   0.04962   0.19125   0.00000  Uiso   1.00
N226   N     0.75391   0.01085   0.90104   0.00000  Uiso   1.00
N227   N     0.54053   0.73686   0.82976   0.00000  Uiso   1.00
N228   N     0.24178   0.11887   0.13463   0.00000  Uiso   1.00
N229   N     0.71251   0.08010   0.84442   0.00000  Uiso   1.00
N230   N     0.49913   0.80611   0.77314   0.00000  Uiso   1.00
C231   C     0.37275   0.92525   0.56248   0.00000  Uiso   1.00
C232   C     0.41753   0.85866   0.57167   0.00000  Uiso   1.00
C233   C     0.46963   0.80530   0.52063   0.00000  Uiso   1.00
C234   C     0.50463   0.74875   0.53938   0.00000  Uiso   1.00
C235   C     0.57670   0.64582   0.54338   0.00000  Uiso   1.00
C236   C     0.39025   0.97856   0.59240   0.00000  Uiso   1.00
C237   C     0.41941   0.02602   0.55880   0.00000  Uiso   1.00
C238   C     0.43143   0.07041   0.59500   0.00000  Uiso   1.00
C239   C     0.46110   0.15366   0.63121   0.00000  Uiso   1.00
C240   C     0.28958   0.93474   0.60839   0.00000  Uiso   1.00
C241   C     0.23409   0.94536   0.58823   0.00000  Uiso   1.00
C242   C     0.16135   0.95287   0.63790   0.00000  Uiso   1.00
C243   C     0.03473   0.96808   0.69893   0.00000  Uiso   1.00
C244   C     0.34225   0.91971   0.68653   0.00000  Uiso   1.00
C245   C     0.40096   0.85565   0.63904   0.00000  Uiso   1.00
C246   C     0.43588   0.79917   0.65787   0.00000  Uiso   1.00
C247   C     0.48803   0.74573   0.60687   0.00000  Uiso   1.00
C248   C     0.37368   0.97556   0.65977   0.00000  Uiso   1.00
C249   C     0.38566   0.01989   0.69604   0.00000  Uiso   1.00
C250   C     0.41483   0.06740   0.66250   0.00000  Uiso   1.00
C251   C     0.27301   0.93173   0.67576   0.00000  Uiso   1.00
C252   C     0.20035   0.93923   0.72547   0.00000  Uiso   1.00
C253   C     0.14476   0.94986   0.70540   0.00000  Uiso   1.00
H254   H     0.38565   0.92760   0.51003   0.00000  Uiso   1.00
H255   H     0.48244   0.80765   0.46849   0.00000  Uiso   1.00
H256   H     0.43222   0.02834   0.50666   0.00000  Uiso   1.00
H257   H     0.24694   0.94769   0.53609   0.00000  Uiso   1.00
H258   H     0.58247   0.67334   0.45216   0.00000  Uiso   1.00
H259   H     0.47654   0.13869   0.53263   0.00000  Uiso   1.00
H260   H     0.08583   0.96863   0.59469   0.00000  Uiso   1.00
H261   H     0.32935   0.91737   0.73898   0.00000  Uiso   1.00
H262   H     0.42305   0.79686   0.71002   0.00000  Uiso   1.00
H263   H     0.37283   0.01755   0.74818   0.00000  Uiso   1.00
H264   H     0.18754   0.93690   0.77761   0.00000  Uiso   1.00
H265   H     0.53426   0.66459   0.64818   0.00000  Uiso   1.00
H266   H     0.42833   0.12994   0.72866   0.00000  Uiso   1.00
H267   H     0.03763   0.95988   0.79072   0.00000  Uiso   1.00
O268   O     0.62104   0.58988   0.52698   0.00000  Uiso   1.00
O269   O     0.48205   0.20041   0.63256   0.00000  Uiso   1.00
O270   O     0.96946   0.97729   0.71398   0.00000  Uiso   1.00
N271   N     0.55825   0.68782   0.50227   0.00000  Uiso   1.00
N272   N     0.45923   0.12289   0.57751   0.00000  Uiso   1.00
N273   N     0.09395   0.96391   0.63553   0.00000  Uiso   1.00
N274   N     0.53231   0.68310   0.60775   0.00000  Uiso   1.00
N275   N     0.43329   0.11817   0.68299   0.00000  Uiso   1.00
N276   N     0.06801   0.95920   0.74101   0.00000  Uiso   1.00
C277   C     0.90948   0.51182   0.30302   0.00000  Uiso   1.00
C278   C     0.91465   0.55707   0.35249   0.00000  Uiso   1.00
C279   C     0.90481   0.62451   0.35269   0.00000  Uiso   1.00
C280   C     0.91181   0.65709   0.40210   0.00000  Uiso   1.00
C281   C     0.91733   0.73249   0.47171   0.00000  Uiso   1.00
C282   C     0.84972   0.48137   0.34587   0.00000  Uiso   1.00
C283   C     0.78529   0.48514   0.34049   0.00000  Uiso   1.00
C284   C     0.73763   0.45399   0.38433   0.00000  Uiso   1.00
C285   C     0.64237   0.41181   0.44362   0.00000  Uiso   1.00
C286   C     0.98457   0.45451   0.27060   0.00000  Uiso   1.00
C287   C     0.03352   0.43569   0.20195   0.00000  Uiso   1.00
C288   C     0.09940   0.38192   0.18241   0.00000  Uiso   1.00
C289   C     0.21352   0.29804   0.12485   0.00000  Uiso   1.00
C290   C     0.93942   0.44977   0.39041   0.00000  Uiso   1.00
C291   C     0.93091   0.52337   0.39995   0.00000  Uiso   1.00
C292   C     0.93793   0.55586   0.44938   0.00000  Uiso   1.00
C293   C     0.92811   0.62333   0.44965   0.00000  Uiso   1.00
C294   C     0.86598   0.44766   0.39333   0.00000  Uiso   1.00
C295   C     0.81841   0.41650   0.43718   0.00000  Uiso   1.00
C296   C     0.75392   0.42023   0.43188   0.00000  Uiso   1.00
C297   C     0.00084   0.42081   0.31807   0.00000  Uiso   1.00
C298   C     0.06665   0.36705   0.29864   0.00000  Uiso   1.00
C299   C     0.11569   0.34816   0.22996   0.00000  Uiso   1.00
H300   H     0.89681   0.53806   0.26607   0.00000  Uiso   1.00
H301   H     0.89222   0.65057   0.31595   0.00000  Uiso   1.00
H302   H     0.77272   0.51122   0.30375   0.00000  Uiso   1.00
H303   H     0.02091   0.46178   0.16523   0.00000  Uiso   1.00
H304   H     0.89427   0.76046   0.39220   0.00000  Uiso   1.00
H305   H     0.64231   0.46661   0.36646   0.00000  Uiso   1.00
H306   H     0.16568   0.36236   0.07436   0.00000  Uiso   1.00
H307   H     0.95208   0.42353   0.42737   0.00000  Uiso   1.00
H308   H     0.95052   0.52976   0.48610   0.00000  Uiso   1.00
H309   H     0.83102   0.39042   0.47390   0.00000  Uiso   1.00
H310   H     0.07921   0.34098   0.33538   0.00000  Uiso   1.00
H311   H     0.94158   0.66241   0.53031   0.00000  Uiso   1.00
H312   H     0.68963   0.36856   0.50457   0.00000  Uiso   1.00
H313   H     0.21300   0.26431   0.21246   0.00000  Uiso   1.00
O314   O     0.91588   0.78339   0.49700   0.00000  Uiso   1.00
O315   O     0.58533   0.39786   0.46322   0.00000  Uiso   1.00
O316   O     0.27198   0.26109   0.07999   0.00000  Uiso   1.00
N317   N     0.90563   0.72280   0.41664   0.00000  Uiso   1.00
N318   N     0.67006   0.44808   0.39258   0.00000  Uiso   1.00
N319   N     0.15936   0.35060   0.11949   0.00000  Uiso   1.00
N320   N     0.93109   0.67004   0.49095   0.00000  Uiso   1.00
N321   N     0.69552   0.39532   0.46689   0.00000  Uiso   1.00
N322   N     0.18482   0.29784   0.19380   0.00000  Uiso   1.00
C323   C     0.11887   0.15673   0.60042   0.00000  Uiso   1.00
C324   C     0.13959   0.18423   0.53430   0.00000  Uiso   1.00
C325   C     0.18702   0.14705   0.47022   0.00000  Uiso   1.00
C326   C     0.19882   0.18151   0.41614   0.00000  Uiso   1.00
C327   C     0.23620   0.21368   0.31198   0.00000  Uiso   1.00
C328   C     0.03273   0.17831   0.63746   0.00000  Uiso   1.00
C329   C     0.99031   0.13616   0.66013   0.00000  Uiso   1.00
C330   C     0.91216   0.16564   0.69291   0.00000  Uiso   1.00
C331   C     0.78363   0.18863   0.74897   0.00000  Uiso   1.00
C332   C     0.14087   0.19488   0.64177   0.00000  Uiso   1.00
C333   C     0.18936   0.16666   0.66808   0.00000  Uiso   1.00
C334   C     0.20224   0.21009   0.70450   0.00000  Uiso   1.00
C335   C     0.24161   0.25881   0.76725   0.00000  Uiso   1.00
C336   C     0.05551   0.28403   0.61833   0.00000  Uiso   1.00
C337   C     0.10517   0.25337   0.54402   0.00000  Uiso   1.00
C338   C     0.11691   0.28789   0.49003   0.00000  Uiso   1.00
C339   C     0.16435   0.25077   0.42588   0.00000  Uiso   1.00
C340   C     0.99831   0.24745   0.64719   0.00000  Uiso   1.00
C341   C     0.92021   0.27700   0.67994   0.00000  Uiso   1.00
C342   C     0.87768   0.23490   0.70265   0.00000  Uiso   1.00
C343   C     0.10645   0.26403   0.65150   0.00000  Uiso   1.00
C344   C     0.11925   0.30750   0.68789   0.00000  Uiso   1.00
C345   C     0.16775   0.27936   0.71425   0.00000  Uiso   1.00
H346   H     0.14566   0.10290   0.59285   0.00000  Uiso   1.00
H347   H     0.21364   0.09354   0.46271   0.00000  Uiso   1.00
H348   H     0.01696   0.08266   0.65261   0.00000  Uiso   1.00
H349   H     0.21598   0.11315   0.66055   0.00000  Uiso   1.00
H350   H     0.27379   0.11366   0.32272   0.00000  Uiso   1.00
H351   H     0.85910   0.09070   0.72314   0.00000  Uiso   1.00
H352   H     0.27876   0.15501   0.73989   0.00000  Uiso   1.00
H353   H     0.02871   0.33786   0.62590   0.00000  Uiso   1.00
H354   H     0.09027   0.34140   0.49757   0.00000  Uiso   1.00
H355   H     0.89359   0.33051   0.68746   0.00000  Uiso   1.00
H356   H     0.09261   0.36101   0.69540   0.00000  Uiso   1.00
H357   H     0.17366   0.31483   0.35101   0.00000  Uiso   1.00
H358   H     0.75896   0.29187   0.75143   0.00000  Uiso   1.00
H359   H     0.17863   0.35618   0.76818   0.00000  Uiso   1.00
O360   O     0.26631   0.21233   0.25185   0.00000  Uiso   1.00
O361   O     0.72225   0.18221   0.77719   0.00000  Uiso   1.00
O362   O     0.27284   0.26659   0.79917   0.00000  Uiso   1.00
N363   N     0.24179   0.16052   0.34699   0.00000  Uiso   1.00
N364   N     0.85407   0.13905   0.72135   0.00000  Uiso   1.00
N365   N     0.24641   0.19918   0.73702   0.00000  Uiso   1.00
N366   N     0.18791   0.26877   0.36221   0.00000  Uiso   1.00
N367   N     0.80019   0.24730   0.73657   0.00000  Uiso   1.00
N368   N     0.19253   0.30743   0.75225   0.00000  Uiso   1.00
C369   C     0.74439   0.65937   0.83819   0.00000  Uiso   1.00
C370   C     0.82527   0.61159   0.81044   0.00000  Uiso   1.00
C371   C     0.86523   0.59462   0.84659   0.00000  Uiso   1.00
C372   C     0.93856   0.55004   0.81208   0.00000  Uiso   1.00
C373   C     0.05924   0.47988   0.77938   0.00000  Uiso   1.00
C374   C     0.70048   0.62012   0.82497   0.00000  Uiso   1.00
C375   C     0.63551   0.61033   0.87332   0.00000  Uiso   1.00
C376   C     0.60380   0.57293   0.85104   0.00000  Uiso   1.00
C377   C     0.53070   0.51604   0.84087   0.00000  Uiso   1.00
C378   C     0.74799   0.71281   0.79312   0.00000  Uiso   1.00
C379   C     0.72295   0.78097   0.81470   0.00000  Uiso   1.00
C380   C     0.73122   0.82162   0.76560   0.00000  Uiso   1.00
C381   C     0.73189   0.90866   0.70600   0.00000  Uiso   1.00
C382   C     0.80358   0.61037   0.71263   0.00000  Uiso   1.00
C383   C     0.85741   0.58498   0.74224   0.00000  Uiso   1.00
C384   C     0.93071   0.54041   0.70767   0.00000  Uiso   1.00
C385   C     0.97077   0.52338   0.74376   0.00000  Uiso   1.00
C386   C     0.73262   0.59350   0.75677   0.00000  Uiso   1.00
C387   C     0.70100   0.55612   0.73440   0.00000  Uiso   1.00
C388   C     0.63600   0.54627   0.78271   0.00000  Uiso   1.00
C389   C     0.78014   0.68620   0.72492   0.00000  Uiso   1.00
C390   C     0.78844   0.72675   0.67578   0.00000  Uiso   1.00
C391   C     0.76342   0.79495   0.69728   0.00000  Uiso   1.00
H392   H     0.71936   0.68009   0.89129   0.00000  Uiso   1.00
H393   H     0.84032   0.61523   0.89937   0.00000  Uiso   1.00
H394   H     0.61064   0.63093   0.92610   0.00000  Uiso   1.00
H395   H     0.69808   0.80154   0.86748   0.00000  Uiso   1.00
H396   H     0.98860   0.53156   0.87826   0.00000  Uiso   1.00
H397   H     0.50429   0.56470   0.93461   0.00000  Uiso   1.00
H398   H     0.68866   0.92447   0.81101   0.00000  Uiso   1.00
H399   H     0.82861   0.58965   0.65953   0.00000  Uiso   1.00
H400   H     0.95557   0.51983   0.65489   0.00000  Uiso   1.00
H401   H     0.72589   0.53553   0.68162   0.00000  Uiso   1.00
H402   H     0.81332   0.70614   0.62301   0.00000  Uiso   1.00
H403   H     0.08214   0.45413   0.67984   0.00000  Uiso   1.00
H404   H     0.59783   0.48727   0.73618   0.00000  Uiso   1.00
H405   H     0.78219   0.84703   0.61259   0.00000  Uiso   1.00
O406   O     0.11691   0.44853   0.78019   0.00000  Uiso   1.00
O407   O     0.48151   0.49201   0.85411   0.00000  Uiso   1.00
O408   O     0.72339   0.96402   0.69196   0.00000  Uiso   1.00
N409   N     0.99320   0.52293   0.83220   0.00000  Uiso   1.00
N410   N     0.54040   0.55390   0.88488   0.00000  Uiso   1.00
N411   N     0.71275   0.89026   0.76933   0.00000  Uiso   1.00
N412   N     0.04353   0.48126   0.72542   0.00000  Uiso   1.00
N413   N     0.59074   0.51224   0.77811   0.00000  Uiso   1.00
N414   N     0.76308   0.84859   0.66256   0.00000  Uiso   1.00
C415   C     0.30230   0.66785   0.84619   0.00000  Uiso   1.00
C416   C     0.27790   0.72878   0.89741   0.00000  Uiso   1.00
C417   C     0.32580   0.75190   0.91161   0.00000  Uiso   1.00
C418   C     0.29244   0.80845   0.96015   0.00000  Uiso   1.00
C419   C     0.26649   0.89813   0.03467   0.00000  Uiso   1.00
C420   C     0.25890   0.62281   0.88507   0.00000  Uiso   1.00
C421   C     0.29083   0.55682   0.88890   0.00000  Uiso   1.00
C422   C     0.24147   0.52417   0.92704   0.00000  Uiso   1.00
C423   C     0.18602   0.44931   0.98236   0.00000  Uiso   1.00
C424   C     0.27111   0.69263   0.79786   0.00000  Uiso   1.00
C425   C     0.31329   0.68533   0.72835   0.00000  Uiso   1.00
C426   C     0.27421   0.71145   0.69306   0.00000  Uiso   1.00
C427   C     0.23771   0.74499   0.61297   0.00000  Uiso   1.00
C428   C     0.15787   0.72718   0.90713   0.00000  Uiso   1.00
C429   C     0.19945   0.76100   0.93051   0.00000  Uiso   1.00
C430   C     0.16601   0.81753   0.97903   0.00000  Uiso   1.00
C431   C     0.21385   0.84073   0.99331   0.00000  Uiso   1.00
C432   C     0.18046   0.65503   0.91817   0.00000  Uiso   1.00
C433   C     0.13104   0.62246   0.95631   0.00000  Uiso   1.00
C434   C     0.16288   0.55645   0.96020   0.00000  Uiso   1.00
C435   C     0.19266   0.72485   0.83095   0.00000  Uiso   1.00
C436   C     0.15350   0.75097   0.79577   0.00000  Uiso   1.00
C437   C     0.19562   0.74372   0.72622   0.00000  Uiso   1.00
H438   H     0.36337   0.64276   0.82042   0.00000  Uiso   1.00
H439   H     0.38651   0.72694   0.88599   0.00000  Uiso   1.00
H440   H     0.35154   0.53190   0.86327   0.00000  Uiso   1.00
H441   H     0.37400   0.66039   0.70275   0.00000  Uiso   1.00
H442   H     0.37756   0.83447   0.97330   0.00000  Uiso   1.00
H443   H     0.30383   0.42320   0.92538   0.00000  Uiso   1.00
H444   H     0.35119   0.69415   0.58689   0.00000  Uiso   1.00
H445   H     0.09679   0.75226   0.93289   0.00000  Uiso   1.00
H446   H     0.10530   0.84246   0.00464   0.00000  Uiso   1.00
H447   H     0.07033   0.64741   0.98192   0.00000  Uiso   1.00
H448   H     0.09279   0.77590   0.82140   0.00000  Uiso   1.00
H449   H     0.14932   0.92822   0.06960   0.00000  Uiso   1.00
H450   H     0.07559   0.51695   0.02167   0.00000  Uiso   1.00
H451   H     0.12295   0.78791   0.68318   0.00000  Uiso   1.00
O452   O     0.27385   0.93869   0.06663   0.00000  Uiso   1.00
O453   O     0.17712   0.39912   0.00374   0.00000  Uiso   1.00
O454   O     0.23925   0.75460   0.55965   0.00000  Uiso   1.00
N455   N     0.32268   0.84416   0.98611   0.00000  Uiso   1.00
N456   N     0.25375   0.45966   0.94131   0.00000  Uiso   1.00
N457   N     0.29802   0.71296   0.62485   0.00000  Uiso   1.00
N458   N     0.19987   0.89461   0.03793   0.00000  Uiso   1.00
N459   N     0.13093   0.51011   0.99313   0.00000  Uiso   1.00
N460   N     0.17521   0.76341   0.67667   0.00000  Uiso   1.00
C461   C     0.63655   0.17952   0.11037   0.00000  Uiso   1.00
C462   C     0.71664   0.12946   0.07453   0.00000  Uiso   1.00
C463   C     0.76334   0.11447   0.00532   0.00000  Uiso   1.00
C464   C     0.83463   0.06724   0.98246   0.00000  Uiso   1.00
C465   C     0.95537   0.99421   0.91999   0.00000  Uiso   1.00
C466   C     0.58622   0.14099   0.15323   0.00000  Uiso   1.00
C467   C     0.52326   0.13571   0.15019   0.00000  Uiso   1.00
C468   C     0.48476   0.09819   0.19360   0.00000  Uiso   1.00
C469   C     0.40300   0.04312   0.25334   0.00000  Uiso   1.00
C470   C     0.63664   0.22888   0.15990   0.00000  Uiso   1.00
C471   C     0.61605   0.29750   0.16248   0.00000  Uiso   1.00
C472   C     0.61999   0.33398   0.21151   0.00000  Uiso   1.00
C473   C     0.61651   0.41536   0.28161   0.00000  Uiso   1.00
C474   C     0.68012   0.12230   0.19288   0.00000  Uiso   1.00
C475   C     0.74031   0.09838   0.11935   0.00000  Uiso   1.00
C476   C     0.81155   0.05116   0.09660   0.00000  Uiso   1.00
C477   C     0.85834   0.03610   0.02736   0.00000  Uiso   1.00
C478   C     0.60989   0.10991   0.19804   0.00000  Uiso   1.00
C479   C     0.57147   0.07240   0.24147   0.00000  Uiso   1.00
C480   C     0.50847   0.06706   0.23849   0.00000  Uiso   1.00
C481   C     0.66031   0.19780   0.20471   0.00000  Uiso   1.00
C482   C     0.66427   0.23419   0.25376   0.00000  Uiso   1.00
C483   C     0.64370   0.30284   0.25641   0.00000  Uiso   1.00
H484   H     0.61812   0.20371   0.07549   0.00000  Uiso   1.00
H485   H     0.74500   0.13853   0.97065   0.00000  Uiso   1.00
H486   H     0.50496   0.15977   0.11551   0.00000  Uiso   1.00
H487   H     0.59774   0.32153   0.12779   0.00000  Uiso   1.00
H488   H     0.89609   0.05253   0.87418   0.00000  Uiso   1.00
H489   H     0.38994   0.09734   0.17964   0.00000  Uiso   1.00
H490   H     0.58558   0.43845   0.20554   0.00000  Uiso   1.00
H491   H     0.69855   0.09810   0.22777   0.00000  Uiso   1.00
H492   H     0.82985   0.02712   0.13129   0.00000  Uiso   1.00
H493   H     0.58980   0.04836   0.27614   0.00000  Uiso   1.00
H494   H     0.68259   0.21012   0.28843   0.00000  Uiso   1.00
H495   H     0.96496   0.96211   0.00456   0.00000  Uiso   1.00
H496   H     0.45880   0.00692   0.31002   0.00000  Uiso   1.00
H497   H     0.65445   0.34802   0.33592   0.00000  Uiso   1.00
O498   O     0.01543   0.96251   0.87315   0.00000  Uiso   1.00
O499   O     0.35137   0.02132   0.27391   0.00000  Uiso   1.00
O500   O     0.60806   0.46883   0.30789   0.00000  Uiso   1.00
N501   N     0.89428   0.04100   0.91811   0.00000  Uiso   1.00
N502   N     0.42107   0.08289   0.20368   0.00000  Uiso   1.00
N503   N     0.60396   0.40179   0.22791   0.00000  Uiso   1.00
N504   N     0.93134   0.99234   0.98826   0.00000  Uiso   1.00
N505   N     0.45813   0.03423   0.27384   0.00000  Uiso   1.00
N506   N     0.64102   0.35314   0.29807   0.00000  Uiso   1.00
C507   C     0.70288   0.10884   0.43616   0.00000  Uiso   1.00
C508   C     0.63850   0.15468   0.42606   0.00000  Uiso   1.00
C509   C     0.60913   0.22359   0.44361   0.00000  Uiso   1.00
C510   C     0.55028   0.25648   0.43023   0.00000  Uiso   1.00
C511   C     0.45462   0.33295   0.41911   0.00000  Uiso   1.00
C512   C     0.67157   0.05878   0.47801   0.00000  Uiso   1.00
C513   C     0.67002   0.04705   0.53923   0.00000  Uiso   1.00
C514   C     0.63902   0.99921   0.56959   0.00000  Uiso   1.00
C515   C     0.59476   0.92675   0.63910   0.00000  Uiso   1.00
C516   C     0.76272   0.06913   0.36675   0.00000  Uiso   1.00
C517   C     0.83782   0.06609   0.33444   0.00000  Uiso   1.00
C518   C     0.88357   0.02695   0.27113   0.00000  Uiso   1.00
C519   C     0.98082   0.97058   0.16790   0.00000  Uiso   1.00
C520   C     0.65060   0.04473   0.38119   0.00000  Uiso   1.00
C521   C     0.61010   0.11985   0.39620   0.00000  Uiso   1.00
C522   C     0.55129   0.15265   0.38279   0.00000  Uiso   1.00
C523   C     0.52184   0.22160   0.40032   0.00000  Uiso   1.00
C524   C     0.64318   0.02396   0.44816   0.00000  Uiso   1.00
C525   C     0.61218   0.97612   0.47842   0.00000  Uiso   1.00
C526   C     0.61058   0.96432   0.53968   0.00000  Uiso   1.00
C527   C     0.73433   0.03431   0.33690   0.00000  Uiso   1.00
C528   C     0.77997   0.99516   0.27363   0.00000  Uiso   1.00
C529   C     0.85512   0.99207   0.24122   0.00000  Uiso   1.00
H530   H     0.72498   0.13595   0.45941   0.00000  Uiso   1.00
H531   H     0.63112   0.25052   0.46672   0.00000  Uiso   1.00
H532   H     0.69201   0.07400   0.56232   0.00000  Uiso   1.00
H533   H     0.85977   0.09305   0.35756   0.00000  Uiso   1.00
H534   H     0.51451   0.36217   0.46167   0.00000  Uiso   1.00
H535   H     0.64292   0.98997   0.66326   0.00000  Uiso   1.00
H536   H     0.99669   0.03012   0.23147   0.00000  Uiso   1.00
H537   H     0.62849   0.01762   0.35795   0.00000  Uiso   1.00
H538   H     0.52932   0.12569   0.35969   0.00000  Uiso   1.00
H539   H     0.59021   0.94918   0.45530   0.00000  Uiso   1.00
H540   H     0.75798   0.96822   0.25054   0.00000  Uiso   1.00
H541   H     0.43188   0.26086   0.37481   0.00000  Uiso   1.00
H542   H     0.56030   0.88865   0.57640   0.00000  Uiso   1.00
H543   H     0.91407   0.92881   0.14461   0.00000  Uiso   1.00
O544   O     0.40969   0.38475   0.42124   0.00000  Uiso   1.00
O545   O     0.57818   0.89642   0.68570   0.00000  Uiso   1.00
O546   O     0.04231   0.94911   0.11921   0.00000  Uiso   1.00
N547   N     0.50868   0.32350   0.44098   0.00000  Uiso   1.00
N548   N     0.62873   0.97552   0.62946   0.00000  Uiso   1.00
N549   N     0.95948   0.01305   0.22578   0.00000  Uiso   1.00
N550   N     0.46422   0.26898   0.39424   0.00000  Uiso   1.00
N551   N     0.58427   0.92100   0.58271   0.00000  Uiso   1.00
N552   N     0.91502   0.95853   0.17904   0.00000  Uiso   1.00
