data_job_07100
_audit_creation_date              2018-12-19
_audit_creation_method            'Materials Studio'
_symmetry_space_group_name_H-M    'P1'
_symmetry_Int_Tables_number       1
_symmetry_cell_setting            triclinic
loop_
_symmetry_equiv_pos_as_xyz
  x,y,z
_cell_length_a                    21.0765
_cell_length_b                    20.4209
_cell_length_c                    22.6805
_cell_angle_alpha                 70.1951
_cell_angle_beta                  83.5758
_cell_angle_gamma                 79.4325
loop_
_atom_site_label
_atom_site_type_symbol
_atom_site_fract_x
_atom_site_fract_y
_atom_site_fract_z
_atom_site_U_iso_or_equiv
_atom_site_adp_type
_atom_site_occupancy
C1     C     0.84278   0.08162   0.32227   0.00000  Uiso   1.00
C2     C     0.83650   0.08119   0.39003   0.00000  Uiso   1.00
C3     C     0.78360   0.11330   0.41785   0.00000  Uiso   1.00
C4     C     0.78724   0.10687   0.48036   0.00000  Uiso   1.00
C5     C     0.76919   0.11190   0.58048   0.00000  Uiso   1.00
C6     C     0.90423   0.11218   0.29337   0.00000  Uiso   1.00
C7     C     0.90827   0.17033   0.23991   0.00000  Uiso   1.00
C8     C     0.96893   0.18997   0.22104   0.00000  Uiso   1.00
C9     C     0.05604   0.24308   0.17107   0.00000  Uiso   1.00
C10    C     0.85652   0.00453   0.32558   0.00000  Uiso   1.00
C11    C     0.82047   0.97217   0.29919   0.00000  Uiso   1.00
C12    C     0.84097   0.90118   0.30744   0.00000  Uiso   1.00
C13    C     0.85401   0.78715   0.30749   0.00000  Uiso   1.00
C14    C     0.94332   0.01308   0.38382   0.00000  Uiso   1.00
C15    C     0.89111   0.04397   0.42346   0.00000  Uiso   1.00
C16    C     0.89483   0.03748   0.48595   0.00000  Uiso   1.00
C17    C     0.84194   0.06957   0.51385   0.00000  Uiso   1.00
C18    C     0.95883   0.07495   0.32680   0.00000  Uiso   1.00
C19    C     0.01950   0.09451   0.30801   0.00000  Uiso   1.00
C20    C     0.02364   0.15268   0.25454   0.00000  Uiso   1.00
C21    C     0.91113   0.96730   0.35902   0.00000  Uiso   1.00
C22    C     0.93170   0.89635   0.36730   0.00000  Uiso   1.00
C23    C     0.89568   0.86389   0.34093   0.00000  Uiso   1.00
H24    H     0.80027   0.11060   0.29624   0.00000  Uiso   1.00
H25    H     0.74135   0.14211   0.39195   0.00000  Uiso   1.00
H26    H     0.86601   0.19912   0.21404   0.00000  Uiso   1.00
H27    H     0.77822   0.00100   0.27333   0.00000  Uiso   1.00
H28    H     0.70012   0.16065   0.51281   0.00000  Uiso   1.00
H29    H     0.96296   0.28086   0.13766   0.00000  Uiso   1.00
H30    H     0.77784   0.86306   0.26267   0.00000  Uiso   1.00
H31    H     0.98583   0.98410   0.40985   0.00000  Uiso   1.00
H32    H     0.93709   0.00867   0.51181   0.00000  Uiso   1.00
H33    H     0.06175   0.06569   0.33389   0.00000  Uiso   1.00
H34    H     0.97395   0.86756   0.39318   0.00000  Uiso   1.00
H35    H     0.85899   0.05235   0.61009   0.00000  Uiso   1.00
H36    H     0.12184   0.17255   0.23493   0.00000  Uiso   1.00
H37    H     0.93671   0.75476   0.35995   0.00000  Uiso   1.00
O38    O     0.74415   0.12497   0.62647   0.00000  Uiso   1.00
O39    O     0.08900   0.28266   0.13427   0.00000  Uiso   1.00
O40    O     0.84611   0.73453   0.29829   0.00000  Uiso   1.00
N41    N     0.74419   0.13178   0.52172   0.00000  Uiso   1.00
N42    N     0.98994   0.24417   0.17098   0.00000  Uiso   1.00
N43    N     0.81687   0.85357   0.28784   0.00000  Uiso   1.00
N44    N     0.82968   0.07350   0.57406   0.00000  Uiso   1.00
N45    N     0.07542   0.18589   0.22332   0.00000  Uiso   1.00
N46    N     0.90235   0.79530   0.34018   0.00000  Uiso   1.00
C47    C     0.12170   0.61656   0.52129   0.00000  Uiso   1.00
C48    C     0.19218   0.62634   0.51792   0.00000  Uiso   1.00
C49    C     0.24379   0.57305   0.53900   0.00000  Uiso   1.00
C50    C     0.30456   0.59282   0.53169   0.00000  Uiso   1.00
C51    C     0.41266   0.59728   0.53066   0.00000  Uiso   1.00
C52    C     0.08407   0.66374   0.55716   0.00000  Uiso   1.00
C53    C     0.04478   0.64188   0.61123   0.00000  Uiso   1.00
C54    C     0.01454   0.69314   0.63694   0.00000  Uiso   1.00
C55    C     0.95476   0.75567   0.69680   0.00000  Uiso   1.00
C56    C     0.09991   0.64861   0.45421   0.00000  Uiso   1.00
C57    C     0.07392   0.61405   0.42172   0.00000  Uiso   1.00
C58    C     0.05699   0.65257   0.36077   0.00000  Uiso   1.00
C59    C     0.02181   0.69161   0.26079   0.00000  Uiso   1.00
C60    C     0.13784   0.74645   0.47082   0.00000  Uiso   1.00
C61    C     0.20095   0.69690   0.49051   0.00000  Uiso   1.00
C62    C     0.26165   0.71675   0.48316   0.00000  Uiso   1.00
C63    C     0.31334   0.66349   0.50423   0.00000  Uiso   1.00
C64    C     0.09284   0.73429   0.52975   0.00000  Uiso   1.00
C65    C     0.06264   0.78559   0.55539   0.00000  Uiso   1.00
C66    C     0.02332   0.76382   0.60948   0.00000  Uiso   1.00
C67    C     0.10868   0.71916   0.42680   0.00000  Uiso   1.00
C68    C     0.09178   0.75775   0.36588   0.00000  Uiso   1.00
C69    C     0.06578   0.72325   0.33331   0.00000  Uiso   1.00
H70    H     0.11487   0.56164   0.54264   0.00000  Uiso   1.00
H71    H     0.23699   0.51846   0.56022   0.00000  Uiso   1.00
H72    H     0.03800   0.58729   0.63243   0.00000  Uiso   1.00
H73    H     0.06714   0.55945   0.44295   0.00000  Uiso   1.00
H74    H     0.37623   0.50170   0.56764   0.00000  Uiso   1.00
H75    H     0.95665   0.64683   0.71989   0.00000  Uiso   1.00
H76    H     0.01809   0.58813   0.32035   0.00000  Uiso   1.00
H77    H     0.14467   0.80138   0.44948   0.00000  Uiso   1.00
H78    H     0.26842   0.77135   0.46195   0.00000  Uiso   1.00
H79    H     0.06944   0.84018   0.53416   0.00000  Uiso   1.00
H80    H     0.09858   0.81234   0.34469   0.00000  Uiso   1.00
H81    H     0.40175   0.70696   0.48789   0.00000  Uiso   1.00
H82    H     0.98216   0.85209   0.64013   0.00000  Uiso   1.00
H83    H     0.04360   0.79339   0.24059   0.00000  Uiso   1.00
O84    O     0.46986   0.58026   0.53767   0.00000  Uiso   1.00
O85    O     0.91937   0.77066   0.73740   0.00000  Uiso   1.00
O86    O     0.99998   0.69365   0.21321   0.00000  Uiso   1.00
N87    N     0.36526   0.55413   0.54715   0.00000  Uiso   1.00
N88    N     0.97298   0.68981   0.68950   0.00000  Uiso   1.00
N89    N     0.03040   0.63494   0.31596   0.00000  Uiso   1.00
N90    N     0.37899   0.66457   0.50423   0.00000  Uiso   1.00
N91    N     0.98671   0.80026   0.64658   0.00000  Uiso   1.00
N92    N     0.04413   0.74539   0.27304   0.00000  Uiso   1.00
C93    C     0.15193   0.82735   0.08623   0.00000  Uiso   1.00
C94    C     0.21529   0.85707   0.07298   0.00000  Uiso   1.00
C95    C     0.24950   0.87588   0.01536   0.00000  Uiso   1.00
C96    C     0.30641   0.90205   0.01291   0.00000  Uiso   1.00
C97    C     0.40147   0.94709   0.98423   0.00000  Uiso   1.00
C98    C     0.16414   0.75740   0.13933   0.00000  Uiso   1.00
C99    C     0.15533   0.69243   0.13750   0.00000  Uiso   1.00
C100   C     0.16918   0.63470   0.19092   0.00000  Uiso   1.00
C101   C     0.18479   0.52502   0.26526   0.00000  Uiso   1.00
C102   C     0.10395   0.87648   0.11363   0.00000  Uiso   1.00
C103   C     0.04454   0.91161   0.09021   0.00000  Uiso   1.00
C104   C     0.00771   0.95412   0.12200   0.00000  Uiso   1.00
C105   C     0.92987   0.02932   0.15645   0.00000  Uiso   1.00
C106   C     0.19217   0.84036   0.18435   0.00000  Uiso   1.00
C107   C     0.23714   0.86414   0.12627   0.00000  Uiso   1.00
C108   C     0.29401   0.89029   0.12391   0.00000  Uiso   1.00
C109   C     0.32830   0.90914   0.06630   0.00000  Uiso   1.00
C110   C     0.18599   0.76447   0.19262   0.00000  Uiso   1.00
C111   C     0.19985   0.70683   0.24606   0.00000  Uiso   1.00
C112   C     0.19107   0.64178   0.24431   0.00000  Uiso   1.00
C113   C     0.12581   0.88355   0.16693   0.00000  Uiso   1.00
C114   C     0.08906   0.92601   0.19876   0.00000  Uiso   1.00
C115   C     0.02960   0.96120   0.17539   0.00000  Uiso   1.00
H116   H     0.13492   0.82184   0.04474   0.00000  Uiso   1.00
H117   H     0.23257   0.87040   0.97413   0.00000  Uiso   1.00
H118   H     0.13842   0.68697   0.09625   0.00000  Uiso   1.00
H119   H     0.02764   0.90612   0.04897   0.00000  Uiso   1.00
H120   H     0.35049   0.92733   0.91934   0.00000  Uiso   1.00
H121   H     0.15193   0.54057   0.17686   0.00000  Uiso   1.00
H122   H     0.91835   0.00269   0.07715   0.00000  Uiso   1.00
H123   H     0.20918   0.84587   0.22584   0.00000  Uiso   1.00
H124   H     0.31091   0.89575   0.16516   0.00000  Uiso   1.00
H125   H     0.21675   0.71232   0.28729   0.00000  Uiso   1.00
H126   H     0.10598   0.93147   0.24000   0.00000  Uiso   1.00
H127   H     0.41408   0.94790   0.07439   0.00000  Uiso   1.00
H128   H     0.21551   0.56114   0.33191   0.00000  Uiso   1.00
H129   H     0.98193   0.02326   0.23220   0.00000  Uiso   1.00
O130   O     0.44788   0.96998   0.95368   0.00000  Uiso   1.00
O131   O     0.18736   0.46256   0.29155   0.00000  Uiso   1.00
O132   O     0.88091   0.06885   0.16073   0.00000  Uiso   1.00
N133   N     0.35149   0.92534   0.96416   0.00000  Uiso   1.00
N134   N     0.16586   0.56374   0.20492   0.00000  Uiso   1.00
N135   N     0.94747   0.99577   0.11171   0.00000  Uiso   1.00
N136   N     0.38570   0.93641   0.04759   0.00000  Uiso   1.00
N137   N     0.20007   0.57481   0.28835   0.00000  Uiso   1.00
N138   N     0.98168   0.00684   0.19514   0.00000  Uiso   1.00
C139   C     0.33260   0.27338   0.96819   0.00000  Uiso   1.00
C140   C     0.30345   0.32703   0.00081   0.00000  Uiso   1.00
C141   C     0.24375   0.32893   0.03346   0.00000  Uiso   1.00
C142   C     0.22581   0.38218   0.05995   0.00000  Uiso   1.00
C143   C     0.17442   0.45792   0.11153   0.00000  Uiso   1.00
C144   C     0.39792   0.23966   0.99622   0.00000  Uiso   1.00
C145   C     0.41767   0.16810   0.02501   0.00000  Uiso   1.00
C146   C     0.47926   0.14781   0.04763   0.00000  Uiso   1.00
C147   C     0.57456   0.08790   0.09206   0.00000  Uiso   1.00
C148   C     0.34734   0.31595   0.89999   0.00000  Uiso   1.00
C149   C     0.32456   0.30853   0.84786   0.00000  Uiso   1.00
C150   C     0.34358   0.35247   0.78946   0.00000  Uiso   1.00
C151   C     0.36034   0.41102   0.68447   0.00000  Uiso   1.00
C152   C     0.40688   0.36458   0.95716   0.00000  Uiso   1.00
C153   C     0.34379   0.37656   0.99481   0.00000  Uiso   1.00
C154   C     0.32593   0.42983   0.02126   0.00000  Uiso   1.00
C155   C     0.26622   0.43181   0.05395   0.00000  Uiso   1.00
C156   C     0.43827   0.28919   0.99023   0.00000  Uiso   1.00
C157   C     0.49985   0.26900   0.01281   0.00000  Uiso   1.00
C158   C     0.51968   0.19743   0.04163   0.00000  Uiso   1.00
C159   C     0.38768   0.36549   0.89399   0.00000  Uiso   1.00
C160   C     0.40674   0.40944   0.83566   0.00000  Uiso   1.00
C161   C     0.38400   0.40209   0.78346   0.00000  Uiso   1.00
H162   H     0.30119   0.23481   0.97285   0.00000  Uiso   1.00
H163   H     0.21255   0.29058   0.03809   0.00000  Uiso   1.00
H164   H     0.38644   0.12978   0.02964   0.00000  Uiso   1.00
H165   H     0.29335   0.27020   0.85252   0.00000  Uiso   1.00
H166   H     0.13207   0.37424   0.10780   0.00000  Uiso   1.00
H167   H     0.49873   0.03517   0.08995   0.00000  Uiso   1.00
H168   H     0.30243   0.33127   0.71645   0.00000  Uiso   1.00
H169   H     0.43829   0.40314   0.95249   0.00000  Uiso   1.00
H170   H     0.35716   0.46815   0.01662   0.00000  Uiso   1.00
H171   H     0.53105   0.30734   0.00816   0.00000  Uiso   1.00
H172   H     0.43796   0.44776   0.83104   0.00000  Uiso   1.00
H173   H     0.24945   0.51836   0.09037   0.00000  Uiso   1.00
H174   H     0.61611   0.17929   0.07252   0.00000  Uiso   1.00
H175   H     0.41981   0.47539   0.69903   0.00000  Uiso   1.00
O176   O     0.13493   0.48601   0.14165   0.00000  Uiso   1.00
O177   O     0.61598   0.04117   0.11822   0.00000  Uiso   1.00
O178   O     0.35843   0.42964   0.62821   0.00000  Uiso   1.00
N179   N     0.17082   0.39924   0.09489   0.00000  Uiso   1.00
N180   N     0.51363   0.08224   0.07821   0.00000  Uiso   1.00
N181   N     0.33011   0.35905   0.72902   0.00000  Uiso   1.00
N182   N     0.23398   0.47679   0.08551   0.00000  Uiso   1.00
N183   N     0.57679   0.15979   0.06883   0.00000  Uiso   1.00
N184   N     0.39327   0.43660   0.71964   0.00000  Uiso   1.00
C185   C     0.67330   0.58494   0.55775   0.00000  Uiso   1.00
C186   C     0.71346   0.57712   0.61233   0.00000  Uiso   1.00
C187   C     0.77280   0.59943   0.60722   0.00000  Uiso   1.00
C188   C     0.80181   0.58745   0.66273   0.00000  Uiso   1.00
C189   C     0.86862   0.58038   0.73858   0.00000  Uiso   1.00
C190   C     0.60735   0.62508   0.56968   0.00000  Uiso   1.00
C191   C     0.57747   0.68771   0.52870   0.00000  Uiso   1.00
C192   C     0.51715   0.71609   0.54831   0.00000  Uiso   1.00
C193   C     0.41920   0.78345   0.55792   0.00000  Uiso   1.00
C194   C     0.66208   0.51086   0.56504   0.00000  Uiso   1.00
C195   C     0.67820   0.47744   0.52015   0.00000  Uiso   1.00
C196   C     0.66394   0.40965   0.53585   0.00000  Uiso   1.00
C197   C     0.65096   0.29966   0.53826   0.00000  Uiso   1.00
C198   C     0.61930   0.52399   0.66544   0.00000  Uiso   1.00
C199   C     0.68413   0.54402   0.67083   0.00000  Uiso   1.00
C200   C     0.71306   0.53199   0.72636   0.00000  Uiso   1.00
C201   C     0.77243   0.55428   0.72133   0.00000  Uiso   1.00
C202   C     0.57802   0.59198   0.62817   0.00000  Uiso   1.00
C203   C     0.51773   0.62027   0.64784   0.00000  Uiso   1.00
C204   C     0.48777   0.68292   0.60690   0.00000  Uiso   1.00
C205   C     0.63275   0.47774   0.62353   0.00000  Uiso   1.00
C206   C     0.61846   0.41000   0.63930   0.00000  Uiso   1.00
C207   C     0.63456   0.37649   0.59444   0.00000  Uiso   1.00
H208   H     0.69613   0.61072   0.51221   0.00000  Uiso   1.00
H209   H     0.79548   0.62506   0.56194   0.00000  Uiso   1.00
H210   H     0.60018   0.71331   0.48343   0.00000  Uiso   1.00
H211   H     0.70089   0.50308   0.47489   0.00000  Uiso   1.00
H212   H     0.89268   0.62638   0.64287   0.00000  Uiso   1.00
H213   H     0.48087   0.81246   0.47732   0.00000  Uiso   1.00
H214   H     0.69324   0.36913   0.45931   0.00000  Uiso   1.00
H215   H     0.59646   0.49821   0.71098   0.00000  Uiso   1.00
H216   H     0.69035   0.50637   0.77162   0.00000  Uiso   1.00
H217   H     0.49504   0.59463   0.69311   0.00000  Uiso   1.00
H218   H     0.59576   0.38440   0.68457   0.00000  Uiso   1.00
H219   H     0.80735   0.53005   0.81305   0.00000  Uiso   1.00
H220   H     0.39554   0.71613   0.64751   0.00000  Uiso   1.00
H221   H     0.60791   0.27281   0.62949   0.00000  Uiso   1.00
O222   O     0.91357   0.58563   0.76426   0.00000  Uiso   1.00
O223   O     0.37328   0.82976   0.54707   0.00000  Uiso   1.00
O224   O     0.65191   0.24813   0.52343   0.00000  Uiso   1.00
N225   N     0.85972   0.60257   0.67460   0.00000  Uiso   1.00
N226   N     0.47470   0.77655   0.51983   0.00000  Uiso   1.00
N227   N     0.67324   0.36209   0.50298   0.00000  Uiso   1.00
N228   N     0.81381   0.55074   0.76617   0.00000  Uiso   1.00
N229   N     0.42879   0.72472   0.61140   0.00000  Uiso   1.00
N230   N     0.62733   0.31026   0.59455   0.00000  Uiso   1.00
C231   C     0.73655   0.12582   0.89152   0.00000  Uiso   1.00
C232   C     0.75309   0.17140   0.92701   0.00000  Uiso   1.00
C233   C     0.78323   0.14681   0.98349   0.00000  Uiso   1.00
C234   C     0.79413   0.19697   0.00838   0.00000  Uiso   1.00
C235   C     0.82268   0.25676   0.06812   0.00000  Uiso   1.00
C236   C     0.76907   0.15138   0.82605   0.00000  Uiso   1.00
C237   C     0.81264   0.10996   0.79764   0.00000  Uiso   1.00
C238   C     0.83698   0.14327   0.73753   0.00000  Uiso   1.00
C239   C     0.89031   0.17198   0.64051   0.00000  Uiso   1.00
C240   C     0.66401   0.14571   0.88295   0.00000  Uiso   1.00
C241   C     0.61924   0.09951   0.90236   0.00000  Uiso   1.00
C242   C     0.55513   0.12804   0.89013   0.00000  Uiso   1.00
C243   C     0.44533   0.14794   0.88145   0.00000  Uiso   1.00
C244   C     0.70229   0.25864   0.83528   0.00000  Uiso   1.00
C245   C     0.73449   0.24354   0.89646   0.00000  Uiso   1.00
C246   C     0.74534   0.29375   0.92127   0.00000  Uiso   1.00
C247   C     0.77549   0.26924   0.97778   0.00000  Uiso   1.00
C248   C     0.75047   0.22352   0.79550   0.00000  Uiso   1.00
C249   C     0.77475   0.25690   0.73542   0.00000  Uiso   1.00
C250   C     0.81835   0.21554   0.70692   0.00000  Uiso   1.00
C251   C     0.64540   0.21785   0.85240   0.00000  Uiso   1.00
C252   C     0.58135   0.24646   0.84014   0.00000  Uiso   1.00
C253   C     0.53650   0.20031   0.85953   0.00000  Uiso   1.00
H254   H     0.75103   0.06966   0.91530   0.00000  Uiso   1.00
H255   H     0.79763   0.09098   0.00712   0.00000  Uiso   1.00
H256   H     0.82703   0.05413   0.82129   0.00000  Uiso   1.00
H257   H     0.63366   0.04369   0.92599   0.00000  Uiso   1.00
H258   H     0.84111   0.14642   0.09543   0.00000  Uiso   1.00
H259   H     0.90308   0.06873   0.70360   0.00000  Uiso   1.00
H260   H     0.49532   0.04671   0.92439   0.00000  Uiso   1.00
H261   H     0.68781   0.31480   0.81149   0.00000  Uiso   1.00
H262   H     0.73094   0.34957   0.89762   0.00000  Uiso   1.00
H263   H     0.76034   0.31272   0.71179   0.00000  Uiso   1.00
H264   H     0.56697   0.30228   0.81649   0.00000  Uiso   1.00
H265   H     0.78698   0.35631   0.00656   0.00000  Uiso   1.00
H266   H     0.84895   0.27861   0.61472   0.00000  Uiso   1.00
H267   H     0.44120   0.25659   0.83551   0.00000  Uiso   1.00
O268   O     0.84357   0.26981   0.10951   0.00000  Uiso   1.00
O269   O     0.92486   0.16788   0.59544   0.00000  Uiso   1.00
O270   O     0.38991   0.13899   0.88511   0.00000  Uiso   1.00
N271   N     0.82244   0.19105   0.06270   0.00000  Uiso   1.00
N272   N     0.88038   0.11841   0.69636   0.00000  Uiso   1.00
N273   N     0.49917   0.09782   0.90277   0.00000  Uiso   1.00
N274   N     0.79331   0.30398   0.01488   0.00000  Uiso   1.00
N275   N     0.85126   0.23135   0.64854   0.00000  Uiso   1.00
N276   N     0.47005   0.21076   0.85494   0.00000  Uiso   1.00
C277   C     0.92298   0.43401   0.11612   0.00000  Uiso   1.00
C278   C     0.92564   0.42202   0.05303   0.00000  Uiso   1.00
C279   C     0.97600   0.38226   0.02934   0.00000  Uiso   1.00
C280   C     0.96921   0.37772   0.97072   0.00000  Uiso   1.00
C281   C     0.98173   0.35390   0.87789   0.00000  Uiso   1.00
C282   C     0.86112   0.40926   0.15121   0.00000  Uiso   1.00
C283   C     0.85723   0.35878   0.21009   0.00000  Uiso   1.00
C284   C     0.79613   0.34351   0.23412   0.00000  Uiso   1.00
C285   C     0.70847   0.29992   0.29374   0.00000  Uiso   1.00
C286   C     0.91255   0.51366   0.10165   0.00000  Uiso   1.00
C287   C     0.95189   0.55097   0.11887   0.00000  Uiso   1.00
C288   C     0.93409   0.62360   0.10119   0.00000  Uiso   1.00
C289   C     0.92629   0.74211   0.08385   0.00000  Uiso   1.00
C290   C     0.82139   0.49665   0.05413   0.00000  Uiso   1.00
C291   C     0.87046   0.45604   0.01936   0.00000  Uiso   1.00
C292   C     0.86360   0.45156   0.96076   0.00000  Uiso   1.00
C293   C     0.91394   0.41180   0.93699   0.00000  Uiso   1.00
C294   C     0.80595   0.44328   0.11754   0.00000  Uiso   1.00
C295   C     0.74484   0.42808   0.14150   0.00000  Uiso   1.00
C296   C     0.74085   0.37759   0.20039   0.00000  Uiso   1.00
C297   C     0.85738   0.54769   0.06798   0.00000  Uiso   1.00
C298   C     0.83950   0.62027   0.05027   0.00000  Uiso   1.00
C299   C     0.87881   0.65768   0.06746   0.00000  Uiso   1.00
H300   H     0.96593   0.40752   0.14234   0.00000  Uiso   1.00
H301   H     0.01869   0.35593   0.05542   0.00000  Uiso   1.00
H302   H     0.89994   0.33246   0.23614   0.00000  Uiso   1.00
H303   H     0.99459   0.52462   0.14492   0.00000  Uiso   1.00
H304   H     0.05283   0.31372   0.94421   0.00000  Uiso   1.00
H305   H     0.80244   0.26426   0.32527   0.00000  Uiso   1.00
H306   H     0.00203   0.66946   0.13294   0.00000  Uiso   1.00
H307   H     0.77843   0.52314   0.02792   0.00000  Uiso   1.00
H308   H     0.82090   0.47790   0.93471   0.00000  Uiso   1.00
H309   H     0.70215   0.45443   0.11543   0.00000  Uiso   1.00
H310   H     0.79680   0.64658   0.02422   0.00000  Uiso   1.00
H311   H     0.89230   0.41271   0.84624   0.00000  Uiso   1.00
H312   H     0.64190   0.36325   0.22731   0.00000  Uiso   1.00
H313   H     0.84150   0.76845   0.03496   0.00000  Uiso   1.00
O314   O     0.00387   0.33135   0.83599   0.00000  Uiso   1.00
O315   O     0.67537   0.26647   0.33593   0.00000  Uiso   1.00
O316   O     0.93723   0.79808   0.08358   0.00000  Uiso   1.00
N317   N     0.00922   0.34324   0.93394   0.00000  Uiso   1.00
N318   N     0.77512   0.29698   0.29021   0.00000  Uiso   1.00
N319   N     0.96172   0.67581   0.11040   0.00000  Uiso   1.00
N320   N     0.92284   0.39651   0.88122   0.00000  Uiso   1.00
N321   N     0.68874   0.35025   0.23749   0.00000  Uiso   1.00
N322   N     0.87534   0.72908   0.05768   0.00000  Uiso   1.00
C323   C     0.62262   0.90387   0.91279   0.00000  Uiso   1.00
C324   C     0.58455   0.84786   0.91115   0.00000  Uiso   1.00
C325   C     0.52040   0.85951   0.89640   0.00000  Uiso   1.00
C326   C     0.49438   0.80134   0.89752   0.00000  Uiso   1.00
C327   C     0.42968   0.72462   0.89262   0.00000  Uiso   1.00
C328   C     0.68182   0.89994   0.86811   0.00000  Uiso   1.00
C329   C     0.69946   0.95539   0.81719   0.00000  Uiso   1.00
C330   C     0.75533   0.94107   0.78209   0.00000  Uiso   1.00
C331   C     0.84166   0.94522   0.71040   0.00000  Uiso   1.00
C332   C     0.64799   0.87883   0.97841   0.00000  Uiso   1.00
C333   C     0.63720   0.91653   0.02023   0.00000  Uiso   1.00
C334   C     0.66461   0.88443   0.07799   0.00000  Uiso   1.00
C335   C     0.69842   0.85580   0.17756   0.00000  Uiso   1.00
C336   C     0.69049   0.77986   0.94099   0.00000  Uiso   1.00
C337   C     0.62142   0.78050   0.92647   0.00000  Uiso   1.00
C338   C     0.59549   0.72230   0.92761   0.00000  Uiso   1.00
C339   C     0.53131   0.73386   0.91287   0.00000  Uiso   1.00
C340   C     0.71869   0.83259   0.88343   0.00000  Uiso   1.00
C341   C     0.77455   0.81818   0.84840   0.00000  Uiso   1.00
C342   C     0.79226   0.87359   0.79744   0.00000  Uiso   1.00
C343   C     0.68486   0.81147   0.99374   0.00000  Uiso   1.00
C344   C     0.71229   0.77931   0.05144   0.00000  Uiso   1.00
C345   C     0.70154   0.81695   0.09333   0.00000  Uiso   1.00
H346   H     0.59392   0.95632   0.90085   0.00000  Uiso   1.00
H347   H     0.49189   0.91165   0.88454   0.00000  Uiso   1.00
H348   H     0.67092   0.00751   0.80535   0.00000  Uiso   1.00
H349   H     0.60867   0.96865   0.00836   0.00000  Uiso   1.00
H350   H     0.39503   0.83242   0.87320   0.00000  Uiso   1.00
H351   H     0.77254   0.03457   0.70623   0.00000  Uiso   1.00
H352   H     0.64128   0.95262   0.13430   0.00000  Uiso   1.00
H353   H     0.71920   0.72741   0.95292   0.00000  Uiso   1.00
H354   H     0.62404   0.67018   0.93947   0.00000  Uiso   1.00
H355   H     0.80307   0.76605   0.86027   0.00000  Uiso   1.00
H356   H     0.74082   0.72718   0.06328   0.00000  Uiso   1.00
H357   H     0.50229   0.63644   0.91777   0.00000  Uiso   1.00
H358   H     0.87980   0.83858   0.75080   0.00000  Uiso   1.00
H359   H     0.74854   0.75663   0.17888   0.00000  Uiso   1.00
O360   O     0.38381   0.70091   0.88568   0.00000  Uiso   1.00
O361   O     0.87909   0.96612   0.66663   0.00000  Uiso   1.00
O362   O     0.70688   0.85861   0.22825   0.00000  Uiso   1.00
N363   N     0.43333   0.79415   0.88555   0.00000  Uiso   1.00
N364   N     0.78627   0.98314   0.72943   0.00000  Uiso   1.00
N365   N     0.66357   0.90654   0.12964   0.00000  Uiso   1.00
N366   N     0.49104   0.68869   0.90953   0.00000  Uiso   1.00
N367   N     0.84399   0.87768   0.75342   0.00000  Uiso   1.00
N368   N     0.72129   0.80108   0.15363   0.00000  Uiso   1.00
C369   C     0.63860   0.64535   0.34703   0.00000  Uiso   1.00
C370   C     0.59995   0.58432   0.36943   0.00000  Uiso   1.00
C371   C     0.57033   0.55921   0.42877   0.00000  Uiso   1.00
C372   C     0.53724   0.50293   0.44003   0.00000  Uiso   1.00
C373   C     0.47770   0.41276   0.48186   0.00000  Uiso   1.00
C374   C     0.60667   0.69791   0.28874   0.00000  Uiso   1.00
C375   C     0.58271   0.76830   0.28023   0.00000  Uiso   1.00
C376   C     0.55528   0.80764   0.22356   0.00000  Uiso   1.00
C377   C     0.50622   0.89383   0.14011   0.00000  Uiso   1.00
C378   C     0.70500   0.61593   0.32431   0.00000  Uiso   1.00
C379   C     0.76372   0.61740   0.34570   0.00000  Uiso   1.00
C380   C     0.81909   0.58773   0.31896   0.00000  Uiso   1.00
C381   C     0.92271   0.54664   0.29073   0.00000  Uiso   1.00
C382   C     0.63251   0.59005   0.26150   0.00000  Uiso   1.00
C383   C     0.59664   0.55429   0.32297   0.00000  Uiso   1.00
C384   C     0.56359   0.49803   0.33414   0.00000  Uiso   1.00
C385   C     0.53393   0.47284   0.39349   0.00000  Uiso   1.00
C386   C     0.60336   0.66788   0.24228   0.00000  Uiso   1.00
C387   C     0.57597   0.70712   0.18561   0.00000  Uiso   1.00
C388   C     0.55197   0.77755   0.17702   0.00000  Uiso   1.00
C389   C     0.70170   0.58589   0.27785   0.00000  Uiso   1.00
C390   C     0.75699   0.55622   0.25107   0.00000  Uiso   1.00
C391   C     0.81578   0.55765   0.27242   0.00000  Uiso   1.00
H392   H     0.64117   0.66873   0.38319   0.00000  Uiso   1.00
H393   H     0.57289   0.58247   0.46471   0.00000  Uiso   1.00
H394   H     0.58528   0.79152   0.31619   0.00000  Uiso   1.00
H395   H     0.76626   0.64065   0.38165   0.00000  Uiso   1.00
H396   H     0.49572   0.47360   0.53458   0.00000  Uiso   1.00
H397   H     0.52185   0.91441   0.22143   0.00000  Uiso   1.00
H398   H     0.90349   0.59627   0.35945   0.00000  Uiso   1.00
H399   H     0.62994   0.56667   0.22533   0.00000  Uiso   1.00
H400   H     0.56104   0.47480   0.29818   0.00000  Uiso   1.00
H401   H     0.57342   0.68386   0.14966   0.00000  Uiso   1.00
H402   H     0.75441   0.53299   0.21512   0.00000  Uiso   1.00
H403   H     0.48609   0.38622   0.39942   0.00000  Uiso   1.00
H404   H     0.51223   0.82703   0.08626   0.00000  Uiso   1.00
H405   H     0.89387   0.50888   0.22429   0.00000  Uiso   1.00
O406   O     0.44577   0.37133   0.51777   0.00000  Uiso   1.00
O407   O     0.48007   0.94966   0.10691   0.00000  Uiso   1.00
O408   O     0.98077   0.53226   0.28800   0.00000  Uiso   1.00
N409   N     0.50292   0.46563   0.49278   0.00000  Uiso   1.00
N410   N     0.52734   0.87776   0.20000   0.00000  Uiso   1.00
N411   N     0.88415   0.58034   0.32903   0.00000  Uiso   1.00
N412   N     0.49774   0.41861   0.42005   0.00000  Uiso   1.00
N413   N     0.52216   0.83074   0.12727   0.00000  Uiso   1.00
N414   N     0.87897   0.53332   0.25630   0.00000  Uiso   1.00
C415   C     0.43242   0.12721   0.51255   0.00000  Uiso   1.00
C416   C     0.43546   0.08610   0.46707   0.00000  Uiso   1.00
C417   C     0.49077   0.06446   0.43489   0.00000  Uiso   1.00
C418   C     0.48344   0.02744   0.39546   0.00000  Uiso   1.00
C419   C     0.49735   0.96589   0.32587   0.00000  Uiso   1.00
C420   C     0.38329   0.19357   0.48761   0.00000  Uiso   1.00
C421   C     0.39474   0.26229   0.47272   0.00000  Uiso   1.00
C422   C     0.34348   0.31573   0.45058   0.00000  Uiso   1.00
C423   C     0.27639   0.42102   0.41293   0.00000  Uiso   1.00
C424   C     0.40218   0.08329   0.57418   0.00000  Uiso   1.00
C425   C     0.42951   0.05929   0.63208   0.00000  Uiso   1.00
C426   C     0.39415   0.01990   0.68283   0.00000  Uiso   1.00
C427   C     0.35640   0.95396   0.77959   0.00000  Uiso   1.00
C428   C     0.32104   0.09994   0.49972   0.00000  Uiso   1.00
C429   C     0.37496   0.07129   0.46010   0.00000  Uiso   1.00
C430   C     0.36754   0.03429   0.42070   0.00000  Uiso   1.00
C431   C     0.42283   0.01260   0.38848   0.00000  Uiso   1.00
C432   C     0.32280   0.17876   0.48064   0.00000  Uiso   1.00
C433   C     0.27151   0.23211   0.45853   0.00000  Uiso   1.00
C434   C     0.28288   0.30089   0.44360   0.00000  Uiso   1.00
C435   C     0.34169   0.06847   0.56721   0.00000  Uiso   1.00
C436   C     0.30628   0.02912   0.61789   0.00000  Uiso   1.00
C437   C     0.33354   0.00506   0.67585   0.00000  Uiso   1.00
H438   H     0.47952   0.13875   0.51797   0.00000  Uiso   1.00
H439   H     0.53758   0.07594   0.44030   0.00000  Uiso   1.00
H440   H     0.44156   0.27373   0.47812   0.00000  Uiso   1.00
H441   H     0.47632   0.07076   0.63746   0.00000  Uiso   1.00
H442   H     0.57527   0.99980   0.35108   0.00000  Uiso   1.00
H443   H     0.37280   0.41685   0.43086   0.00000  Uiso   1.00
H444   H     0.44610   0.98885   0.76685   0.00000  Uiso   1.00
H445   H     0.27394   0.08841   0.49430   0.00000  Uiso   1.00
H446   H     0.32072   0.02284   0.41532   0.00000  Uiso   1.00
H447   H     0.22470   0.22063   0.45314   0.00000  Uiso   1.00
H448   H     0.25947   0.01766   0.61248   0.00000  Uiso   1.00
H449   H     0.39925   0.95670   0.33081   0.00000  Uiso   1.00
H450   H     0.19679   0.37375   0.41059   0.00000  Uiso   1.00
H451   H     0.27009   0.94575   0.74658   0.00000  Uiso   1.00
O452   O     0.52174   0.93604   0.28940   0.00000  Uiso   1.00
O453   O     0.25611   0.48319   0.39408   0.00000  Uiso   1.00
O454   O     0.35229   0.92167   0.83489   0.00000  Uiso   1.00
N455   N     0.52742   0.99864   0.35716   0.00000  Uiso   1.00
N456   N     0.33813   0.38856   0.43174   0.00000  Uiso   1.00
N457   N     0.40666   0.98843   0.74586   0.00000  Uiso   1.00
N458   N     0.43271   0.97545   0.34625   0.00000  Uiso   1.00
N459   N     0.24342   0.36537   0.42083   0.00000  Uiso   1.00
N460   N     0.31195   0.96524   0.73496   0.00000  Uiso   1.00
C461   C     0.14763   0.92977   0.86983   0.00000  Uiso   1.00
C462   C     0.07575   0.92515   0.87447   0.00000  Uiso   1.00
C463   C     0.03946   0.89712   0.92933   0.00000  Uiso   1.00
C464   C     0.97442   0.89775   0.92369   0.00000  Uiso   1.00
C465   C     0.86702   0.88634   0.93979   0.00000  Uiso   1.00
C466   C     0.17894   0.89173   0.82398   0.00000  Uiso   1.00
C467   C     0.22943   0.83561   0.83640   0.00000  Uiso   1.00
C468   C     0.25126   0.80811   0.78825   0.00000  Uiso   1.00
C469   C     0.30411   0.74486   0.72595   0.00000  Uiso   1.00
C470   C     0.15327   0.00734   0.83730   0.00000  Uiso   1.00
C471   C     0.18218   0.04841   0.86089   0.00000  Uiso   1.00
C472   C     0.18241   0.11825   0.82394   0.00000  Uiso   1.00
C473   C     0.19539   0.23449   0.78231   0.00000  Uiso   1.00
C474   C     0.09665   0.98074   0.76224   0.00000  Uiso   1.00
C475   C     0.04806   0.95284   0.81603   0.00000  Uiso   1.00
C476   C     0.98305   0.95352   0.81031   0.00000  Uiso   1.00
C477   C     0.94667   0.92549   0.86515   0.00000  Uiso   1.00
C478   C     0.15125   0.91942   0.76555   0.00000  Uiso   1.00
C479   C     0.17302   0.89200   0.71737   0.00000  Uiso   1.00
C480   C     0.22352   0.83585   0.72971   0.00000  Uiso   1.00
C481   C     0.12557   0.03503   0.77886   0.00000  Uiso   1.00
C482   C     0.12576   0.10481   0.74187   0.00000  Uiso   1.00
C483   C     0.15467   0.14599   0.76540   0.00000  Uiso   1.00
H484   H     0.16920   0.90821   0.91532   0.00000  Uiso   1.00
H485   H     0.06091   0.87569   0.97455   0.00000  Uiso   1.00
H486   H     0.25086   0.81420   0.88162   0.00000  Uiso   1.00
H487   H     0.20361   0.02697   0.90611   0.00000  Uiso   1.00
H488   H     0.92865   0.85183   0.01444   0.00000  Uiso   1.00
H489   H     0.32917   0.72218   0.81850   0.00000  Uiso   1.00
H490   H     0.22954   0.17085   0.87014   0.00000  Uiso   1.00
H491   H     0.07508   0.00230   0.71675   0.00000  Uiso   1.00
H492   H     0.96163   0.97494   0.76508   0.00000  Uiso   1.00
H493   H     0.15157   0.91345   0.67215   0.00000  Uiso   1.00
H494   H     0.10433   0.12622   0.69665   0.00000  Uiso   1.00
H495   H     0.84807   0.93238   0.84443   0.00000  Uiso   1.00
H496   H     0.24859   0.80273   0.64848   0.00000  Uiso   1.00
H497   H     0.14896   0.25141   0.70013   0.00000  Uiso   1.00
O498   O     0.81543   0.87239   0.96481   0.00000  Uiso   1.00
O499   O     0.34090   0.70231   0.70774   0.00000  Uiso   1.00
O500   O     0.21019   0.29096   0.77550   0.00000  Uiso   1.00
N501   N     0.92525   0.87455   0.96780   0.00000  Uiso   1.00
N502   N     0.29971   0.75333   0.78460   0.00000  Uiso   1.00
N503   N     0.20658   0.17280   0.83288   0.00000  Uiso   1.00
N504   N     0.88189   0.91790   0.87631   0.00000  Uiso   1.00
N505   N     0.25635   0.79668   0.69312   0.00000  Uiso   1.00
N506   N     0.16322   0.21614   0.74140   0.00000  Uiso   1.00
C507   C     0.10637   0.38627   0.53841   0.00000  Uiso   1.00
C508   C     0.08753   0.36087   0.48780   0.00000  Uiso   1.00
C509   C     0.07822   0.40158   0.42562   0.00000  Uiso   1.00
C510   C     0.06111   0.36857   0.38670   0.00000  Uiso   1.00
C511   C     0.03295   0.33996   0.30470   0.00000  Uiso   1.00
C512   C     0.05414   0.37058   0.59126   0.00000  Uiso   1.00
C513   C     0.01678   0.41945   0.61608   0.00000  Uiso   1.00
C514   C     0.97157   0.39460   0.66426   0.00000  Uiso   1.00
C515   C     0.89162   0.38105   0.74292   0.00000  Uiso   1.00
C516   C     0.16797   0.33758   0.56456   0.00000  Uiso   1.00
C517   C     0.22631   0.35870   0.56694   0.00000  Uiso   1.00
C518   C     0.27694   0.30607   0.59265   0.00000  Uiso   1.00
C519   C     0.37373   0.24130   0.62986   0.00000  Uiso   1.00
C520   C     0.09255   0.25525   0.57985   0.00000  Uiso   1.00
C521   C     0.08001   0.28971   0.51031   0.00000  Uiso   1.00
C522   C     0.06292   0.25662   0.47147   0.00000  Uiso   1.00
C523   C     0.05359   0.29727   0.40924   0.00000  Uiso   1.00
C524   C     0.04663   0.29942   0.61377   0.00000  Uiso   1.00
C525   C     0.00148   0.27449   0.66193   0.00000  Uiso   1.00
C526   C     0.96405   0.32331   0.68681   0.00000  Uiso   1.00
C527   C     0.16047   0.26642   0.58707   0.00000  Uiso   1.00
C528   C     0.21101   0.21374   0.61279   0.00000  Uiso   1.00
C529   C     0.26942   0.23478   0.61520   0.00000  Uiso   1.00
H530   H     0.11222   0.44168   0.52089   0.00000  Uiso   1.00
H531   H     0.08403   0.45666   0.40822   0.00000  Uiso   1.00
H532   H     0.02260   0.47452   0.59866   0.00000  Uiso   1.00
H533   H     0.23211   0.41378   0.54952   0.00000  Uiso   1.00
H534   H     0.04944   0.44188   0.29324   0.00000  Uiso   1.00
H535   H     0.91993   0.47954   0.69480   0.00000  Uiso   1.00
H536   H     0.36171   0.35147   0.59119   0.00000  Uiso   1.00
H537   H     0.08670   0.19984   0.59737   0.00000  Uiso   1.00
H538   H     0.05711   0.20155   0.48890   0.00000  Uiso   1.00
H539   H     0.99568   0.21941   0.67934   0.00000  Uiso   1.00
H540   H     0.20519   0.15868   0.63020   0.00000  Uiso   1.00
H541   H     0.02759   0.23483   0.35873   0.00000  Uiso   1.00
H542   H     0.89809   0.27249   0.76028   0.00000  Uiso   1.00
H543   H     0.33986   0.14441   0.65667   0.00000  Uiso   1.00
O544   O     0.01949   0.34384   0.25326   0.00000  Uiso   1.00
O545   O     0.84959   0.39325   0.78009   0.00000  Uiso   1.00
O546   O     0.42920   0.22522   0.64415   0.00000  Uiso   1.00
N547   N     0.04837   0.39291   0.32354   0.00000  Uiso   1.00
N548   N     0.92728   0.42812   0.69896   0.00000  Uiso   1.00
N549   N     0.34030   0.30839   0.60211   0.00000  Uiso   1.00
N550   N     0.03661   0.28150   0.35877   0.00000  Uiso   1.00
N551   N     0.91553   0.31671   0.73420   0.00000  Uiso   1.00
N552   N     0.32855   0.19697   0.63735   0.00000  Uiso   1.00
