data_job_01727
_audit_creation_date              2018-12-19
_audit_creation_method            'Materials Studio'
_symmetry_space_group_name_H-M    'P1'
_symmetry_Int_Tables_number       1
_symmetry_cell_setting            triclinic
loop_
_symmetry_equiv_pos_as_xyz
  x,y,z
_cell_length_a                    7.4169
_cell_length_b                    16.1023
_cell_length_c                    22.6669
_cell_angle_alpha                 90.0000
_cell_angle_beta                  115.2014
_cell_angle_gamma                 90.0000
loop_
_atom_site_label
_atom_site_type_symbol
_atom_site_fract_x
_atom_site_fract_y
_atom_site_fract_z
_atom_site_U_iso_or_equiv
_atom_site_adp_type
_atom_site_occupancy
C1     C     0.01498   0.82008   0.28924   0.00000  Uiso   1.00
C2     C     0.09369   0.74243   0.33087   0.00000  Uiso   1.00
C3     C     0.99719   0.69880   0.36183   0.00000  Uiso   1.00
C4     C     0.09396   0.62938   0.39765   0.00000  Uiso   1.00
C5     C     0.18784   0.51261   0.46161   0.00000  Uiso   1.00
C6     C     0.17466   0.88647   0.31964   0.00000  Uiso   1.00
C7     C     0.14623   0.96396   0.34115   0.00000  Uiso   1.00
C8     C     0.31117   0.01579   0.36750   0.00000  Uiso   1.00
C9     C     0.53073   0.12267   0.41398   0.00000  Uiso   1.00
C10    C     0.01198   0.80002   0.22308   0.00000  Uiso   1.00
C11    C     0.84677   0.80484   0.16340   0.00000  Uiso   1.00
C12    C     0.87475   0.78390   0.10845   0.00000  Uiso   1.00
C13    C     0.84171   0.75656   0.00501   0.00000  Uiso   1.00
C14    C     0.35844   0.77438   0.29780   0.00000  Uiso   1.00
C15    C     0.28024   0.71761   0.33552   0.00000  Uiso   1.00
C16    C     0.37718   0.64823   0.37130   0.00000  Uiso   1.00
C17    C     0.28085   0.60451   0.40230   0.00000  Uiso   1.00
C18    C     0.36121   0.86165   0.32429   0.00000  Uiso   1.00
C19    C     0.52623   0.91339   0.35061   0.00000  Uiso   1.00
C20    C     0.49806   0.99092   0.37216   0.00000  Uiso   1.00
C21    C     0.19853   0.77520   0.22773   0.00000  Uiso   1.00
C22    C     0.22677   0.75426   0.17287   0.00000  Uiso   1.00
C23    C     0.06164   0.75904   0.11311   0.00000  Uiso   1.00
H24    H     0.86975   0.83941   0.28563   0.00000  Uiso   1.00
H25    H     0.85283   0.71804   0.35823   0.00000  Uiso   1.00
H26    H     0.00185   0.98315   0.33754   0.00000  Uiso   1.00
H27    H     0.70244   0.82405   0.15982   0.00000  Uiso   1.00
H28    H     0.91637   0.57254   0.44079   0.00000  Uiso   1.00
H29    H     0.23057   0.13156   0.39714   0.00000  Uiso   1.00
H30    H     0.59919   0.79606   0.02239   0.00000  Uiso   1.00
H31    H     0.50368   0.75505   0.30142   0.00000  Uiso   1.00
H32    H     0.52155   0.62904   0.37489   0.00000  Uiso   1.00
H33    H     0.67056   0.89416   0.35420   0.00000  Uiso   1.00
H34    H     0.37115   0.73506   0.17648   0.00000  Uiso   1.00
H35    H     0.45913   0.50031   0.45431   0.00000  Uiso   1.00
H36    H     0.77333   0.05933   0.41067   0.00000  Uiso   1.00
H37    H     0.14195   0.72383   0.03591   0.00000  Uiso   1.00
O38    O     0.18810   0.45507   0.49561   0.00000  Uiso   1.00
O39    O     0.60029   0.18848   0.43834   0.00000  Uiso   1.00
O40    O     0.77195   0.74832   0.94667   0.00000  Uiso   1.00
N41    N     0.04164   0.57282   0.43388   0.00000  Uiso   1.00
N42    N     0.33540   0.09547   0.39308   0.00000  Uiso   1.00
N43    N     0.74513   0.78183   0.04271   0.00000  Uiso   1.00
N44    N     0.33369   0.53395   0.44115   0.00000  Uiso   1.00
N45    N     0.62746   0.05660   0.40036   0.00000  Uiso   1.00
N46    N     0.03718   0.74296   0.04999   0.00000  Uiso   1.00
C47    C     0.98502   0.32008   0.21076   0.00000  Uiso   1.00
C48    C     0.90631   0.24243   0.16913   0.00000  Uiso   1.00
C49    C     0.00281   0.19880   0.13817   0.00000  Uiso   1.00
C50    C     0.90604   0.12938   0.10235   0.00000  Uiso   1.00
C51    C     0.81216   0.01261   0.03839   0.00000  Uiso   1.00
C52    C     0.82534   0.38647   0.18036   0.00000  Uiso   1.00
C53    C     0.85377   0.46396   0.15885   0.00000  Uiso   1.00
C54    C     0.68883   0.51579   0.13250   0.00000  Uiso   1.00
C55    C     0.46927   0.62267   0.08602   0.00000  Uiso   1.00
C56    C     0.98802   0.30002   0.27692   0.00000  Uiso   1.00
C57    C     0.15323   0.30484   0.33660   0.00000  Uiso   1.00
C58    C     0.12525   0.28390   0.39155   0.00000  Uiso   1.00
C59    C     0.15829   0.25656   0.49499   0.00000  Uiso   1.00
C60    C     0.64156   0.27438   0.20220   0.00000  Uiso   1.00
C61    C     0.71976   0.21761   0.16448   0.00000  Uiso   1.00
C62    C     0.62282   0.14823   0.12870   0.00000  Uiso   1.00
C63    C     0.71915   0.10451   0.09770   0.00000  Uiso   1.00
C64    C     0.63879   0.36165   0.17571   0.00000  Uiso   1.00
C65    C     0.47377   0.41339   0.14939   0.00000  Uiso   1.00
C66    C     0.50194   0.49092   0.12784   0.00000  Uiso   1.00
C67    C     0.80147   0.27520   0.27227   0.00000  Uiso   1.00
C68    C     0.77323   0.25426   0.32713   0.00000  Uiso   1.00
C69    C     0.93836   0.25904   0.38689   0.00000  Uiso   1.00
H70    H     0.13025   0.33941   0.21437   0.00000  Uiso   1.00
H71    H     0.14717   0.21804   0.14177   0.00000  Uiso   1.00
H72    H     0.99815   0.48315   0.16246   0.00000  Uiso   1.00
H73    H     0.29756   0.32405   0.34018   0.00000  Uiso   1.00
H74    H     0.08363   0.07254   0.05921   0.00000  Uiso   1.00
H75    H     0.76943   0.63156   0.10286   0.00000  Uiso   1.00
H76    H     0.40081   0.29606   0.47761   0.00000  Uiso   1.00
H77    H     0.49632   0.25505   0.19858   0.00000  Uiso   1.00
H78    H     0.47845   0.12904   0.12511   0.00000  Uiso   1.00
H79    H     0.32944   0.39416   0.14580   0.00000  Uiso   1.00
H80    H     0.62885   0.23506   0.32352   0.00000  Uiso   1.00
H81    H     0.54087   0.00031   0.04569   0.00000  Uiso   1.00
H82    H     0.22667   0.55933   0.08933   0.00000  Uiso   1.00
H83    H     0.85805   0.22383   0.46409   0.00000  Uiso   1.00
O84    O     0.81190   0.95507   0.00439   0.00000  Uiso   1.00
O85    O     0.39971   0.68848   0.06166   0.00000  Uiso   1.00
O86    O     0.22805   0.24832   0.55333   0.00000  Uiso   1.00
N87    N     0.95836   0.07282   0.06612   0.00000  Uiso   1.00
N88    N     0.66460   0.59547   0.10692   0.00000  Uiso   1.00
N89    N     0.25487   0.28183   0.45729   0.00000  Uiso   1.00
N90    N     0.66631   0.03395   0.05885   0.00000  Uiso   1.00
N91    N     0.37254   0.55660   0.09964   0.00000  Uiso   1.00
N92    N     0.96282   0.24296   0.45001   0.00000  Uiso   1.00
C93    C     0.98502   0.17992   0.71076   0.00000  Uiso   1.00
C94    C     0.90631   0.25757   0.66913   0.00000  Uiso   1.00
C95    C     0.00281   0.30120   0.63817   0.00000  Uiso   1.00
C96    C     0.90604   0.37062   0.60235   0.00000  Uiso   1.00
C97    C     0.81216   0.48739   0.53839   0.00000  Uiso   1.00
C98    C     0.82534   0.11353   0.68036   0.00000  Uiso   1.00
C99    C     0.85377   0.03604   0.65885   0.00000  Uiso   1.00
C100   C     0.68883   0.98421   0.63250   0.00000  Uiso   1.00
C101   C     0.46927   0.87733   0.58602   0.00000  Uiso   1.00
C102   C     0.98802   0.19998   0.77692   0.00000  Uiso   1.00
C103   C     0.15323   0.19516   0.83660   0.00000  Uiso   1.00
C104   C     0.12525   0.21610   0.89155   0.00000  Uiso   1.00
C105   C     0.15829   0.24344   0.99499   0.00000  Uiso   1.00
C106   C     0.64156   0.22562   0.70220   0.00000  Uiso   1.00
C107   C     0.71976   0.28239   0.66448   0.00000  Uiso   1.00
C108   C     0.62282   0.35177   0.62870   0.00000  Uiso   1.00
C109   C     0.71915   0.39549   0.59770   0.00000  Uiso   1.00
C110   C     0.63879   0.13835   0.67571   0.00000  Uiso   1.00
C111   C     0.47377   0.08661   0.64939   0.00000  Uiso   1.00
C112   C     0.50194   0.00908   0.62784   0.00000  Uiso   1.00
C113   C     0.80147   0.22480   0.77227   0.00000  Uiso   1.00
C114   C     0.77323   0.24574   0.82713   0.00000  Uiso   1.00
C115   C     0.93836   0.24096   0.88689   0.00000  Uiso   1.00
H116   H     0.13025   0.16059   0.71437   0.00000  Uiso   1.00
H117   H     0.14717   0.28196   0.64177   0.00000  Uiso   1.00
H118   H     0.99815   0.01685   0.66246   0.00000  Uiso   1.00
H119   H     0.29756   0.17595   0.84018   0.00000  Uiso   1.00
H120   H     0.08363   0.42746   0.55921   0.00000  Uiso   1.00
H121   H     0.76943   0.86844   0.60286   0.00000  Uiso   1.00
H122   H     0.40081   0.20394   0.97761   0.00000  Uiso   1.00
H123   H     0.49632   0.24495   0.69858   0.00000  Uiso   1.00
H124   H     0.47845   0.37096   0.62511   0.00000  Uiso   1.00
H125   H     0.32944   0.10584   0.64580   0.00000  Uiso   1.00
H126   H     0.62885   0.26494   0.82352   0.00000  Uiso   1.00
H127   H     0.54087   0.49969   0.54569   0.00000  Uiso   1.00
H128   H     0.22667   0.94067   0.58933   0.00000  Uiso   1.00
H129   H     0.85805   0.27617   0.96409   0.00000  Uiso   1.00
O130   O     0.81190   0.54493   0.50439   0.00000  Uiso   1.00
O131   O     0.39971   0.81152   0.56166   0.00000  Uiso   1.00
O132   O     0.22805   0.25168   0.05333   0.00000  Uiso   1.00
N133   N     0.95836   0.42718   0.56612   0.00000  Uiso   1.00
N134   N     0.66460   0.90453   0.60692   0.00000  Uiso   1.00
N135   N     0.25487   0.21817   0.95729   0.00000  Uiso   1.00
N136   N     0.66631   0.46605   0.55885   0.00000  Uiso   1.00
N137   N     0.37254   0.94340   0.59964   0.00000  Uiso   1.00
N138   N     0.96282   0.25704   0.95001   0.00000  Uiso   1.00
C139   C     0.01498   0.67992   0.78924   0.00000  Uiso   1.00
C140   C     0.09369   0.75757   0.83087   0.00000  Uiso   1.00
C141   C     0.99719   0.80120   0.86183   0.00000  Uiso   1.00
C142   C     0.09396   0.87062   0.89765   0.00000  Uiso   1.00
C143   C     0.18784   0.98739   0.96161   0.00000  Uiso   1.00
C144   C     0.17466   0.61353   0.81964   0.00000  Uiso   1.00
C145   C     0.14623   0.53604   0.84115   0.00000  Uiso   1.00
C146   C     0.31117   0.48421   0.86750   0.00000  Uiso   1.00
C147   C     0.53073   0.37733   0.91398   0.00000  Uiso   1.00
C148   C     0.01198   0.69998   0.72308   0.00000  Uiso   1.00
C149   C     0.84677   0.69516   0.66340   0.00000  Uiso   1.00
C150   C     0.87475   0.71610   0.60845   0.00000  Uiso   1.00
C151   C     0.84171   0.74344   0.50501   0.00000  Uiso   1.00
C152   C     0.35844   0.72562   0.79780   0.00000  Uiso   1.00
C153   C     0.28024   0.78239   0.83552   0.00000  Uiso   1.00
C154   C     0.37718   0.85177   0.87130   0.00000  Uiso   1.00
C155   C     0.28085   0.89549   0.90230   0.00000  Uiso   1.00
C156   C     0.36121   0.63835   0.82429   0.00000  Uiso   1.00
C157   C     0.52623   0.58661   0.85061   0.00000  Uiso   1.00
C158   C     0.49806   0.50908   0.87216   0.00000  Uiso   1.00
C159   C     0.19853   0.72480   0.72773   0.00000  Uiso   1.00
C160   C     0.22677   0.74574   0.67287   0.00000  Uiso   1.00
C161   C     0.06164   0.74096   0.61311   0.00000  Uiso   1.00
H162   H     0.86975   0.66059   0.78563   0.00000  Uiso   1.00
H163   H     0.85283   0.78196   0.85823   0.00000  Uiso   1.00
H164   H     0.00185   0.51685   0.83754   0.00000  Uiso   1.00
H165   H     0.70244   0.67595   0.65982   0.00000  Uiso   1.00
H166   H     0.91637   0.92746   0.94079   0.00000  Uiso   1.00
H167   H     0.23057   0.36844   0.89714   0.00000  Uiso   1.00
H168   H     0.59919   0.70394   0.52239   0.00000  Uiso   1.00
H169   H     0.50368   0.74495   0.80142   0.00000  Uiso   1.00
H170   H     0.52155   0.87096   0.87489   0.00000  Uiso   1.00
H171   H     0.67056   0.60584   0.85420   0.00000  Uiso   1.00
H172   H     0.37115   0.76494   0.67648   0.00000  Uiso   1.00
H173   H     0.45913   0.99969   0.95431   0.00000  Uiso   1.00
H174   H     0.77333   0.44067   0.91067   0.00000  Uiso   1.00
H175   H     0.14195   0.77617   0.53591   0.00000  Uiso   1.00
O176   O     0.18810   0.04493   0.99561   0.00000  Uiso   1.00
O177   O     0.60029   0.31152   0.93834   0.00000  Uiso   1.00
O178   O     0.77195   0.75168   0.44667   0.00000  Uiso   1.00
N179   N     0.04164   0.92718   0.93388   0.00000  Uiso   1.00
N180   N     0.33540   0.40453   0.89308   0.00000  Uiso   1.00
N181   N     0.74513   0.71817   0.54271   0.00000  Uiso   1.00
N182   N     0.33369   0.96605   0.94115   0.00000  Uiso   1.00
N183   N     0.62746   0.44340   0.90036   0.00000  Uiso   1.00
N184   N     0.03718   0.75704   0.54999   0.00000  Uiso   1.00
