data_job_00166
_audit_creation_date              2018-12-19
_audit_creation_method            'Materials Studio'
_symmetry_space_group_name_H-M    'P1'
_symmetry_Int_Tables_number       1
_symmetry_cell_setting            triclinic
loop_
_symmetry_equiv_pos_as_xyz
  x,y,z
_cell_length_a                    18.8133
_cell_length_b                    7.4418
_cell_length_c                    20.4606
_cell_angle_alpha                 90.0000
_cell_angle_beta                  114.6980
_cell_angle_gamma                 90.0000
loop_
_atom_site_label
_atom_site_type_symbol
_atom_site_fract_x
_atom_site_fract_y
_atom_site_fract_z
_atom_site_U_iso_or_equiv
_atom_site_adp_type
_atom_site_occupancy
C1     C     0.29417   0.67323   0.19229   0.00000  Uiso   1.00
C2     C     0.28506   0.59409   0.25712   0.00000  Uiso   1.00
C3     C     0.27741   0.69166   0.31163   0.00000  Uiso   1.00
C4     C     0.26975   0.59426   0.36621   0.00000  Uiso   1.00
C5     C     0.36956   0.59409   0.19369   0.00000  Uiso   1.00
C6     C     0.43295   0.69166   0.19486   0.00000  Uiso   1.00
C7     C     0.49642   0.59426   0.19604   0.00000  Uiso   1.00
C8     C     0.22791   0.59409   0.12608   0.00000  Uiso   1.00
C9     C     0.17220   0.69166   0.07039   0.00000  Uiso   1.00
C10    C     0.11642   0.59426   0.01462   0.00000  Uiso   1.00
H11    H     0.29418   0.81975   0.19229   0.00000  Uiso   1.00
H12    H     0.27742   0.83729   0.31161   0.00000  Uiso   1.00
H13    H     0.43293   0.83729   0.19486   0.00000  Uiso   1.00
H14    H     0.17222   0.83729   0.07040   0.00000  Uiso   1.00
H15    H     0.25887   0.77376   0.44391   0.00000  Uiso   1.00
H16    H     0.58676   0.77376   0.19770   0.00000  Uiso   1.00
H17    H     0.03700   0.77376   0.93526   0.00000  Uiso   1.00
N18    N     0.26116   0.64731   0.42753   0.00000  Uiso   1.00
N19    N     0.56772   0.64731   0.19735   0.00000  Uiso   1.00
N20    N     0.05375   0.64731   0.95198   0.00000  Uiso   1.00
C21    C     0.79417   0.17323   0.19229   0.00000  Uiso   1.00
C22    C     0.78506   0.09409   0.25712   0.00000  Uiso   1.00
C23    C     0.77741   0.19166   0.31163   0.00000  Uiso   1.00
C24    C     0.76975   0.09426   0.36621   0.00000  Uiso   1.00
C25    C     0.86956   0.09409   0.19369   0.00000  Uiso   1.00
C26    C     0.93295   0.19166   0.19486   0.00000  Uiso   1.00
C27    C     0.99642   0.09426   0.19604   0.00000  Uiso   1.00
C28    C     0.72791   0.09409   0.12608   0.00000  Uiso   1.00
C29    C     0.67220   0.19166   0.07039   0.00000  Uiso   1.00
C30    C     0.61642   0.09426   0.01462   0.00000  Uiso   1.00
H31    H     0.79418   0.31975   0.19229   0.00000  Uiso   1.00
H32    H     0.77742   0.33729   0.31161   0.00000  Uiso   1.00
H33    H     0.93293   0.33729   0.19486   0.00000  Uiso   1.00
H34    H     0.67222   0.33729   0.07040   0.00000  Uiso   1.00
H35    H     0.75887   0.27376   0.44391   0.00000  Uiso   1.00
H36    H     0.08676   0.27376   0.19770   0.00000  Uiso   1.00
H37    H     0.53700   0.27376   0.93526   0.00000  Uiso   1.00
N38    N     0.76116   0.14731   0.42753   0.00000  Uiso   1.00
N39    N     0.06772   0.14731   0.19735   0.00000  Uiso   1.00
N40    N     0.55375   0.14731   0.95198   0.00000  Uiso   1.00
C41    C     0.70583   0.67323   0.80771   0.00000  Uiso   1.00
C42    C     0.71494   0.59409   0.74288   0.00000  Uiso   1.00
C43    C     0.72259   0.69166   0.68837   0.00000  Uiso   1.00
C44    C     0.73025   0.59426   0.63379   0.00000  Uiso   1.00
C45    C     0.63044   0.59409   0.80631   0.00000  Uiso   1.00
C46    C     0.56705   0.69166   0.80514   0.00000  Uiso   1.00
C47    C     0.50358   0.59426   0.80396   0.00000  Uiso   1.00
C48    C     0.77209   0.59409   0.87392   0.00000  Uiso   1.00
C49    C     0.82780   0.69166   0.92961   0.00000  Uiso   1.00
C50    C     0.88358   0.59426   0.98538   0.00000  Uiso   1.00
H51    H     0.70582   0.81975   0.80771   0.00000  Uiso   1.00
H52    H     0.72258   0.83729   0.68839   0.00000  Uiso   1.00
H53    H     0.56707   0.83729   0.80514   0.00000  Uiso   1.00
H54    H     0.82778   0.83729   0.92960   0.00000  Uiso   1.00
H55    H     0.74113   0.77376   0.55609   0.00000  Uiso   1.00
H56    H     0.41324   0.77376   0.80230   0.00000  Uiso   1.00
H57    H     0.96300   0.77376   0.06474   0.00000  Uiso   1.00
N58    N     0.73884   0.64731   0.57247   0.00000  Uiso   1.00
N59    N     0.43228   0.64731   0.80265   0.00000  Uiso   1.00
N60    N     0.94625   0.64731   0.04802   0.00000  Uiso   1.00
C61    C     0.20583   0.17323   0.80771   0.00000  Uiso   1.00
C62    C     0.21494   0.09409   0.74288   0.00000  Uiso   1.00
C63    C     0.22259   0.19166   0.68837   0.00000  Uiso   1.00
C64    C     0.23025   0.09426   0.63379   0.00000  Uiso   1.00
C65    C     0.13044   0.09409   0.80631   0.00000  Uiso   1.00
C66    C     0.06705   0.19166   0.80514   0.00000  Uiso   1.00
C67    C     0.00358   0.09426   0.80396   0.00000  Uiso   1.00
C68    C     0.27209   0.09409   0.87392   0.00000  Uiso   1.00
C69    C     0.32780   0.19166   0.92961   0.00000  Uiso   1.00
C70    C     0.38358   0.09426   0.98538   0.00000  Uiso   1.00
H71    H     0.20582   0.31975   0.80771   0.00000  Uiso   1.00
H72    H     0.22258   0.33729   0.68839   0.00000  Uiso   1.00
H73    H     0.06707   0.33729   0.80514   0.00000  Uiso   1.00
H74    H     0.32778   0.33729   0.92960   0.00000  Uiso   1.00
H75    H     0.24113   0.27376   0.55609   0.00000  Uiso   1.00
H76    H     0.91324   0.27376   0.80230   0.00000  Uiso   1.00
H77    H     0.46300   0.27376   0.06474   0.00000  Uiso   1.00
N78    N     0.23884   0.14731   0.57247   0.00000  Uiso   1.00
N79    N     0.93228   0.14731   0.80265   0.00000  Uiso   1.00
N80    N     0.44625   0.14731   0.04802   0.00000  Uiso   1.00
C81    C     0.70583   0.32677   0.80771   0.00000  Uiso   1.00
C82    C     0.71494   0.40591   0.74288   0.00000  Uiso   1.00
C83    C     0.72259   0.30834   0.68837   0.00000  Uiso   1.00
C84    C     0.73025   0.40574   0.63379   0.00000  Uiso   1.00
C85    C     0.63044   0.40591   0.80631   0.00000  Uiso   1.00
C86    C     0.56705   0.30834   0.80514   0.00000  Uiso   1.00
C87    C     0.50358   0.40574   0.80396   0.00000  Uiso   1.00
C88    C     0.77209   0.40591   0.87392   0.00000  Uiso   1.00
C89    C     0.82780   0.30834   0.92961   0.00000  Uiso   1.00
C90    C     0.88358   0.40574   0.98538   0.00000  Uiso   1.00
H91    H     0.70582   0.18025   0.80771   0.00000  Uiso   1.00
H92    H     0.72258   0.16271   0.68839   0.00000  Uiso   1.00
H93    H     0.56707   0.16271   0.80514   0.00000  Uiso   1.00
H94    H     0.82778   0.16271   0.92960   0.00000  Uiso   1.00
H95    H     0.74113   0.22624   0.55609   0.00000  Uiso   1.00
H96    H     0.41324   0.22624   0.80230   0.00000  Uiso   1.00
H97    H     0.96300   0.22624   0.06474   0.00000  Uiso   1.00
N98    N     0.73884   0.35269   0.57247   0.00000  Uiso   1.00
N99    N     0.43228   0.35269   0.80265   0.00000  Uiso   1.00
N100   N     0.94625   0.35269   0.04802   0.00000  Uiso   1.00
C101   C     0.20583   0.82677   0.80771   0.00000  Uiso   1.00
C102   C     0.21494   0.90591   0.74288   0.00000  Uiso   1.00
C103   C     0.22259   0.80834   0.68837   0.00000  Uiso   1.00
C104   C     0.23025   0.90574   0.63379   0.00000  Uiso   1.00
C105   C     0.13044   0.90591   0.80631   0.00000  Uiso   1.00
C106   C     0.06705   0.80834   0.80514   0.00000  Uiso   1.00
C107   C     0.00358   0.90574   0.80396   0.00000  Uiso   1.00
C108   C     0.27209   0.90591   0.87392   0.00000  Uiso   1.00
C109   C     0.32780   0.80834   0.92961   0.00000  Uiso   1.00
C110   C     0.38358   0.90574   0.98538   0.00000  Uiso   1.00
H111   H     0.20582   0.68025   0.80771   0.00000  Uiso   1.00
H112   H     0.22258   0.66271   0.68839   0.00000  Uiso   1.00
H113   H     0.06707   0.66271   0.80514   0.00000  Uiso   1.00
H114   H     0.32778   0.66271   0.92960   0.00000  Uiso   1.00
H115   H     0.24113   0.72624   0.55609   0.00000  Uiso   1.00
H116   H     0.91324   0.72624   0.80230   0.00000  Uiso   1.00
H117   H     0.46300   0.72624   0.06474   0.00000  Uiso   1.00
N118   N     0.23884   0.85269   0.57247   0.00000  Uiso   1.00
N119   N     0.93228   0.85269   0.80265   0.00000  Uiso   1.00
N120   N     0.44625   0.85269   0.04802   0.00000  Uiso   1.00
C121   C     0.29417   0.32677   0.19229   0.00000  Uiso   1.00
C122   C     0.28506   0.40591   0.25712   0.00000  Uiso   1.00
C123   C     0.27741   0.30834   0.31163   0.00000  Uiso   1.00
C124   C     0.26975   0.40574   0.36621   0.00000  Uiso   1.00
C125   C     0.36956   0.40591   0.19369   0.00000  Uiso   1.00
C126   C     0.43295   0.30834   0.19486   0.00000  Uiso   1.00
C127   C     0.49642   0.40574   0.19604   0.00000  Uiso   1.00
C128   C     0.22791   0.40591   0.12608   0.00000  Uiso   1.00
C129   C     0.17220   0.30834   0.07039   0.00000  Uiso   1.00
C130   C     0.11642   0.40574   0.01462   0.00000  Uiso   1.00
H131   H     0.29418   0.18025   0.19229   0.00000  Uiso   1.00
H132   H     0.27742   0.16271   0.31161   0.00000  Uiso   1.00
H133   H     0.43293   0.16271   0.19486   0.00000  Uiso   1.00
H134   H     0.17222   0.16271   0.07040   0.00000  Uiso   1.00
H135   H     0.25887   0.22624   0.44391   0.00000  Uiso   1.00
H136   H     0.58676   0.22624   0.19770   0.00000  Uiso   1.00
H137   H     0.03700   0.22624   0.93526   0.00000  Uiso   1.00
N138   N     0.26116   0.35269   0.42753   0.00000  Uiso   1.00
N139   N     0.56772   0.35269   0.19735   0.00000  Uiso   1.00
N140   N     0.05375   0.35269   0.95198   0.00000  Uiso   1.00
C141   C     0.79417   0.82677   0.19229   0.00000  Uiso   1.00
C142   C     0.78506   0.90591   0.25712   0.00000  Uiso   1.00
C143   C     0.77741   0.80834   0.31163   0.00000  Uiso   1.00
C144   C     0.76975   0.90574   0.36621   0.00000  Uiso   1.00
C145   C     0.86956   0.90591   0.19369   0.00000  Uiso   1.00
C146   C     0.93295   0.80834   0.19486   0.00000  Uiso   1.00
C147   C     0.99642   0.90574   0.19604   0.00000  Uiso   1.00
C148   C     0.72791   0.90591   0.12608   0.00000  Uiso   1.00
C149   C     0.67220   0.80834   0.07039   0.00000  Uiso   1.00
C150   C     0.61642   0.90574   0.01462   0.00000  Uiso   1.00
H151   H     0.79418   0.68025   0.19229   0.00000  Uiso   1.00
H152   H     0.77742   0.66271   0.31161   0.00000  Uiso   1.00
H153   H     0.93293   0.66271   0.19486   0.00000  Uiso   1.00
H154   H     0.67222   0.66271   0.07040   0.00000  Uiso   1.00
H155   H     0.75887   0.72624   0.44391   0.00000  Uiso   1.00
H156   H     0.08676   0.72624   0.19770   0.00000  Uiso   1.00
H157   H     0.53700   0.72624   0.93526   0.00000  Uiso   1.00
N158   N     0.76116   0.85269   0.42753   0.00000  Uiso   1.00
N159   N     0.06772   0.85269   0.19735   0.00000  Uiso   1.00
N160   N     0.55375   0.85269   0.95198   0.00000  Uiso   1.00
C161   C     0.25565   0.50000   0.46688   0.00000  Uiso   1.00
C162   C     0.61348   0.50000   0.19819   0.00000  Uiso   1.00
C163   C     0.01353   0.50000   0.91179   0.00000  Uiso   1.00
O164   O     0.24788   0.50000   0.52242   0.00000  Uiso   1.00
O165   O     0.67805   0.50000   0.19938   0.00000  Uiso   1.00
O166   O     0.95678   0.50000   0.85507   0.00000  Uiso   1.00
C167   C     0.75565  -0.00000   0.46688   0.00000  Uiso   1.00
C168   C     0.11348  -0.00000   0.19819   0.00000  Uiso   1.00
C169   C     0.51353  -0.00000   0.91179   0.00000  Uiso   1.00
O170   O     0.74788  -0.00000   0.52242   0.00000  Uiso   1.00
O171   O     0.17805  -0.00000   0.19938   0.00000  Uiso   1.00
O172   O     0.45678  -0.00000   0.85507   0.00000  Uiso   1.00
C173   C     0.74435   0.50000   0.53312   0.00000  Uiso   1.00
C174   C     0.38652   0.50000   0.80181   0.00000  Uiso   1.00
C175   C     0.98647   0.50000   0.08821   0.00000  Uiso   1.00
O176   O     0.75212   0.50000   0.47758   0.00000  Uiso   1.00
O177   O     0.32195   0.50000   0.80062   0.00000  Uiso   1.00
O178   O     0.04322   0.50000   0.14493   0.00000  Uiso   1.00
C179   C     0.24435  -0.00000   0.53312   0.00000  Uiso   1.00
C180   C     0.88652  -0.00000   0.80181   0.00000  Uiso   1.00
C181   C     0.48647  -0.00000   0.08821   0.00000  Uiso   1.00
O182   O     0.25212  -0.00000   0.47758   0.00000  Uiso   1.00
O183   O     0.82195  -0.00000   0.80062   0.00000  Uiso   1.00
O184   O     0.54322  -0.00000   0.14493   0.00000  Uiso   1.00
