data_job_03179
_audit_creation_date              2018-12-19
_audit_creation_method            'Materials Studio'
_symmetry_space_group_name_H-M    'P1'
_symmetry_Int_Tables_number       1
_symmetry_cell_setting            triclinic
loop_
_symmetry_equiv_pos_as_xyz
  x,y,z
_cell_length_a                    9.7564
_cell_length_b                    9.9263
_cell_length_c                    19.5307
_cell_angle_alpha                 95.8942
_cell_angle_beta                  102.5174
_cell_angle_gamma                 75.4320
loop_
_atom_site_label
_atom_site_type_symbol
_atom_site_fract_x
_atom_site_fract_y
_atom_site_fract_z
_atom_site_U_iso_or_equiv
_atom_site_adp_type
_atom_site_occupancy
C1     C     0.62258   0.71717   0.64366   0.00000  Uiso   1.00
C2     C     0.62362   0.87050   0.64351   0.00000  Uiso   1.00
C3     C     0.67667   0.92884   0.59617   0.00000  Uiso   1.00
C4     C     0.66780   0.07116   0.60491   0.00000  Uiso   1.00
C5     C     0.67858   0.29692   0.59646   0.00000  Uiso   1.00
C6     C     0.70310   0.66945   0.71636   0.00000  Uiso   1.00
C7     C     0.82294   0.55872   0.73028   0.00000  Uiso   1.00
C8     C     0.88096   0.53178   0.80035   0.00000  Uiso   1.00
C9     C     0.01506   0.44534   0.90501   0.00000  Uiso   1.00
C10    C     0.46559   0.71367   0.63941   0.00000  Uiso   1.00
C11    C     0.38574   0.64010   0.58864   0.00000  Uiso   1.00
C12    C     0.24379   0.65036   0.59393   0.00000  Uiso   1.00
C13    C     0.00912   0.63258   0.57912   0.00000  Uiso   1.00
C14    C     0.51249   0.86618   0.74334   0.00000  Uiso   1.00
C15    C     0.56383   0.95144   0.69766   0.00000  Uiso   1.00
C16    C     0.55487   0.09370   0.70646   0.00000  Uiso   1.00
C17    C     0.60789   0.15224   0.65915   0.00000  Uiso   1.00
C18    C     0.64331   0.75038   0.77051   0.00000  Uiso   1.00
C19    C     0.70115   0.72359   0.84057   0.00000  Uiso   1.00
C20    C     0.82106   0.61286   0.85459   0.00000  Uiso   1.00
C21    C     0.40579   0.79461   0.69356   0.00000  Uiso   1.00
C22    C     0.26394   0.80497   0.69893   0.00000  Uiso   1.00
C23    C     0.18389   0.73144   0.64817   0.00000  Uiso   1.00
H24    H     0.66914   0.65415   0.60151   0.00000  Uiso   1.00
H25    H     0.72295   0.86617   0.55428   0.00000  Uiso   1.00
H26    H     0.86918   0.49610   0.68837   0.00000  Uiso   1.00
H27    H     0.43205   0.57748   0.54675   0.00000  Uiso   1.00
H28    H     0.75629   0.13691   0.52582   0.00000  Uiso   1.00
H29    H     0.06461   0.35658   0.80855   0.00000  Uiso   1.00
H30    H     0.14282   0.52817   0.50992   0.00000  Uiso   1.00
H31    H     0.46594   0.92919   0.78550   0.00000  Uiso   1.00
H32    H     0.50859   0.15631   0.74837   0.00000  Uiso   1.00
H33    H     0.65484   0.78624   0.88246   0.00000  Uiso   1.00
H34    H     0.21770   0.86762   0.74084   0.00000  Uiso   1.00
H35    H     0.58231   0.37240   0.68335   0.00000  Uiso   1.00
H36    H     0.89064   0.59206   0.96608   0.00000  Uiso   1.00
H37    H     0.96885   0.76366   0.66745   0.00000  Uiso   1.00
O38    O     0.70107   0.39908   0.57685   0.00000  Uiso   1.00
O39    O     0.10556   0.37530   0.94778   0.00000  Uiso   1.00
O40    O     0.89620   0.60043   0.55598   0.00000  Uiso   1.00
N41    N     0.70946   0.16117   0.56798   0.00000  Uiso   1.00
N42    N     0.99774   0.43162   0.83232   0.00000  Uiso   1.00
N43    N     0.13595   0.59201   0.55313   0.00000  Uiso   1.00
N44    N     0.61585   0.28788   0.65275   0.00000  Uiso   1.00
N45    N     0.90413   0.55833   0.91708   0.00000  Uiso   1.00
N46    N     0.04234   0.71872   0.63790   0.00000  Uiso   1.00
C47    C     0.37742   0.28283   0.35634   0.00000  Uiso   1.00
C48    C     0.37638   0.12950   0.35649   0.00000  Uiso   1.00
C49    C     0.32333   0.07116   0.40383   0.00000  Uiso   1.00
C50    C     0.33220   0.92884   0.39509   0.00000  Uiso   1.00
C51    C     0.32142   0.70308   0.40354   0.00000  Uiso   1.00
C52    C     0.29690   0.33055   0.28364   0.00000  Uiso   1.00
C53    C     0.17706   0.44128   0.26972   0.00000  Uiso   1.00
C54    C     0.11904   0.46822   0.19965   0.00000  Uiso   1.00
C55    C     0.98494   0.55466   0.09499   0.00000  Uiso   1.00
C56    C     0.53441   0.28633   0.36059   0.00000  Uiso   1.00
C57    C     0.61426   0.35990   0.41136   0.00000  Uiso   1.00
C58    C     0.75621   0.34964   0.40607   0.00000  Uiso   1.00
C59    C     0.99088   0.36742   0.42088   0.00000  Uiso   1.00
C60    C     0.48751   0.13382   0.25666   0.00000  Uiso   1.00
C61    C     0.43617   0.04856   0.30234   0.00000  Uiso   1.00
C62    C     0.44513   0.90630   0.29354   0.00000  Uiso   1.00
C63    C     0.39211   0.84776   0.34085   0.00000  Uiso   1.00
C64    C     0.35669   0.24962   0.22949   0.00000  Uiso   1.00
C65    C     0.29885   0.27641   0.15943   0.00000  Uiso   1.00
C66    C     0.17894   0.38714   0.14541   0.00000  Uiso   1.00
C67    C     0.59421   0.20539   0.30644   0.00000  Uiso   1.00
C68    C     0.73606   0.19503   0.30107   0.00000  Uiso   1.00
C69    C     0.81611   0.26856   0.35183   0.00000  Uiso   1.00
H70    H     0.33086   0.34585   0.39849   0.00000  Uiso   1.00
H71    H     0.27705   0.13383   0.44572   0.00000  Uiso   1.00
H72    H     0.13082   0.50390   0.31163   0.00000  Uiso   1.00
H73    H     0.56795   0.42252   0.45325   0.00000  Uiso   1.00
H74    H     0.24371   0.86309   0.47418   0.00000  Uiso   1.00
H75    H     0.93539   0.64342   0.19145   0.00000  Uiso   1.00
H76    H     0.85718   0.47183   0.49008   0.00000  Uiso   1.00
H77    H     0.53406   0.07081   0.21450   0.00000  Uiso   1.00
H78    H     0.49141   0.84369   0.25163   0.00000  Uiso   1.00
H79    H     0.34516   0.21376   0.11754   0.00000  Uiso   1.00
H80    H     0.78230   0.13238   0.25916   0.00000  Uiso   1.00
H81    H     0.41769   0.62760   0.31665   0.00000  Uiso   1.00
H82    H     0.10936   0.40794   0.03392   0.00000  Uiso   1.00
H83    H     0.03115   0.23634   0.33255   0.00000  Uiso   1.00
O84    O     0.29893   0.60092   0.42315   0.00000  Uiso   1.00
O85    O     0.89444   0.62470   0.05222   0.00000  Uiso   1.00
O86    O     0.10380   0.39957   0.44402   0.00000  Uiso   1.00
N87    N     0.29054   0.83883   0.43202   0.00000  Uiso   1.00
N88    N     0.00226   0.56838   0.16768   0.00000  Uiso   1.00
N89    N     0.86405   0.40799   0.44687   0.00000  Uiso   1.00
N90    N     0.38415   0.71212   0.34725   0.00000  Uiso   1.00
N91    N     0.09587   0.44167   0.08292   0.00000  Uiso   1.00
N92    N     0.95766   0.28128   0.36210   0.00000  Uiso   1.00
