data_job_02359
_audit_creation_date              2018-12-19
_audit_creation_method            'Materials Studio'
_symmetry_space_group_name_H-M    'P1'
_symmetry_Int_Tables_number       1
_symmetry_cell_setting            triclinic
loop_
_symmetry_equiv_pos_as_xyz
  x,y,z
_cell_length_a                    28.6269
_cell_length_b                    12.3591
_cell_length_c                    13.2022
_cell_angle_alpha                 90.0000
_cell_angle_beta                  108.3460
_cell_angle_gamma                 90.0000
loop_
_atom_site_label
_atom_site_type_symbol
_atom_site_fract_x
_atom_site_fract_y
_atom_site_fract_z
_atom_site_U_iso_or_equiv
_atom_site_adp_type
_atom_site_occupancy
C1     C     0.17462   0.48524   0.35067   0.00000  Uiso   1.00
C2     C     0.20472   0.45379   0.27828   0.00000  Uiso   1.00
C3     C     0.25411   0.47708   0.29656   0.00000  Uiso   1.00
C4     C     0.27494   0.44130   0.22077   0.00000  Uiso   1.00
C5     C     0.32587   0.40119   0.12214   0.00000  Uiso   1.00
C6     C     0.13086   0.54993   0.28125   0.00000  Uiso   1.00
C7     C     0.11816   0.65404   0.30203   0.00000  Uiso   1.00
C8     C     0.07681   0.69918   0.22874   0.00000  Uiso   1.00
C9     C     0.01306   0.80829   0.13476   0.00000  Uiso   1.00
C10    C     0.15342   0.38008   0.37797   0.00000  Uiso   1.00
C11    C     0.15966   0.34139   0.48008   0.00000  Uiso   1.00
C12    C     0.13729   0.24353   0.48823   0.00000  Uiso   1.00
C13    C     0.10856   0.08893   0.54443   0.00000  Uiso   1.00
C14    C     0.12376   0.38027   0.18358   0.00000  Uiso   1.00
C15    C     0.17709   0.39678   0.18752   0.00000  Uiso   1.00
C16    C     0.19785   0.36094   0.11169   0.00000  Uiso   1.00
C17    C     0.24727   0.38418   0.12985   0.00000  Uiso   1.00
C18    C     0.10324   0.49291   0.19049   0.00000  Uiso   1.00
C19    C     0.06189   0.53790   0.11716   0.00000  Uiso   1.00
C20    C     0.04913   0.64206   0.13781   0.00000  Uiso   1.00
C21    C     0.12579   0.32305   0.28721   0.00000  Uiso   1.00
C22    C     0.10340   0.22525   0.29520   0.00000  Uiso   1.00
C23    C     0.10961   0.18642   0.39730   0.00000  Uiso   1.00
H24    H     0.19612   0.52963   0.42133   0.00000  Uiso   1.00
H25    H     0.27548   0.52122   0.36680   0.00000  Uiso   1.00
H26    H     0.13954   0.69814   0.37228   0.00000  Uiso   1.00
H27    H     0.18104   0.38554   0.55030   0.00000  Uiso   1.00
H28    H     0.35127   0.48678   0.26630   0.00000  Uiso   1.00
H29    H     0.06463   0.85982   0.27786   0.00000  Uiso   1.00
H30    H     0.15215   0.20063   0.65326   0.00000  Uiso   1.00
H31    H     0.10225   0.33587   0.11291   0.00000  Uiso   1.00
H32    H     0.17646   0.31682   0.04146   0.00000  Uiso   1.00
H33    H     0.04052   0.49375   0.04693   0.00000  Uiso   1.00
H34    H     0.08203   0.18114   0.22495   0.00000  Uiso   1.00
H35    H     0.27091   0.32089   0.00224   0.00000  Uiso   1.00
H36    H     0.98427   0.69393   0.01380   0.00000  Uiso   1.00
H37    H     0.07178   0.03474   0.38919   0.00000  Uiso   1.00
O38    O     0.36160   0.39483   0.09281   0.00000  Uiso   1.00
O39    O     0.98553   0.88423   0.10799   0.00000  Uiso   1.00
O40    O     0.10035   0.01939   0.60050   0.00000  Uiso   1.00
N41    N     0.32218   0.45033   0.21397   0.00000  Uiso   1.00
N42    N     0.05419   0.79911   0.22477   0.00000  Uiso   1.00
N43    N     0.13600   0.18284   0.57573   0.00000  Uiso   1.00
N44    N     0.27893   0.36107   0.07188   0.00000  Uiso   1.00
N45    N     0.01095   0.70984   0.08268   0.00000  Uiso   1.00
N46    N     0.09275   0.09357   0.43364   0.00000  Uiso   1.00
C47    C     0.67462   0.98524   0.35067   0.00000  Uiso   1.00
C48    C     0.70472   0.95379   0.27828   0.00000  Uiso   1.00
C49    C     0.75411   0.97708   0.29656   0.00000  Uiso   1.00
C50    C     0.77494   0.94130   0.22077   0.00000  Uiso   1.00
C51    C     0.82587   0.90119   0.12214   0.00000  Uiso   1.00
C52    C     0.63086   0.04993   0.28125   0.00000  Uiso   1.00
C53    C     0.61816   0.15404   0.30203   0.00000  Uiso   1.00
C54    C     0.57681   0.19918   0.22874   0.00000  Uiso   1.00
C55    C     0.51306   0.30829   0.13476   0.00000  Uiso   1.00
C56    C     0.65342   0.88008   0.37797   0.00000  Uiso   1.00
C57    C     0.65966   0.84139   0.48008   0.00000  Uiso   1.00
C58    C     0.63729   0.74353   0.48823   0.00000  Uiso   1.00
C59    C     0.60856   0.58893   0.54443   0.00000  Uiso   1.00
C60    C     0.62376   0.88027   0.18358   0.00000  Uiso   1.00
C61    C     0.67709   0.89678   0.18752   0.00000  Uiso   1.00
C62    C     0.69785   0.86094   0.11169   0.00000  Uiso   1.00
C63    C     0.74727   0.88418   0.12985   0.00000  Uiso   1.00
C64    C     0.60324   0.99291   0.19049   0.00000  Uiso   1.00
C65    C     0.56189   0.03790   0.11716   0.00000  Uiso   1.00
C66    C     0.54913   0.14206   0.13781   0.00000  Uiso   1.00
C67    C     0.62579   0.82305   0.28721   0.00000  Uiso   1.00
C68    C     0.60340   0.72525   0.29520   0.00000  Uiso   1.00
C69    C     0.60961   0.68642   0.39730   0.00000  Uiso   1.00
H70    H     0.69612   0.02963   0.42133   0.00000  Uiso   1.00
H71    H     0.77548   0.02122   0.36680   0.00000  Uiso   1.00
H72    H     0.63954   0.19814   0.37228   0.00000  Uiso   1.00
H73    H     0.68104   0.88554   0.55030   0.00000  Uiso   1.00
H74    H     0.85127   0.98678   0.26630   0.00000  Uiso   1.00
H75    H     0.56463   0.35982   0.27786   0.00000  Uiso   1.00
H76    H     0.65215   0.70063   0.65326   0.00000  Uiso   1.00
H77    H     0.60225   0.83587   0.11291   0.00000  Uiso   1.00
H78    H     0.67646   0.81682   0.04146   0.00000  Uiso   1.00
H79    H     0.54052   0.99375   0.04693   0.00000  Uiso   1.00
H80    H     0.58203   0.68114   0.22495   0.00000  Uiso   1.00
H81    H     0.77091   0.82089   0.00224   0.00000  Uiso   1.00
H82    H     0.48427   0.19393   0.01380   0.00000  Uiso   1.00
H83    H     0.57178   0.53474   0.38919   0.00000  Uiso   1.00
O84    O     0.86160   0.89483   0.09281   0.00000  Uiso   1.00
O85    O     0.48553   0.38423   0.10799   0.00000  Uiso   1.00
O86    O     0.60035   0.51939   0.60050   0.00000  Uiso   1.00
N87    N     0.82218   0.95033   0.21397   0.00000  Uiso   1.00
N88    N     0.55419   0.29911   0.22477   0.00000  Uiso   1.00
N89    N     0.63600   0.68284   0.57573   0.00000  Uiso   1.00
N90    N     0.77893   0.86107   0.07188   0.00000  Uiso   1.00
N91    N     0.51095   0.20984   0.08268   0.00000  Uiso   1.00
N92    N     0.59275   0.59357   0.43364   0.00000  Uiso   1.00
C93    C     0.82538   0.48524   0.14933   0.00000  Uiso   1.00
C94    C     0.79528   0.45379   0.22172   0.00000  Uiso   1.00
C95    C     0.74589   0.47708   0.20344   0.00000  Uiso   1.00
C96    C     0.72506   0.44130   0.27923   0.00000  Uiso   1.00
C97    C     0.67413   0.40119   0.37786   0.00000  Uiso   1.00
C98    C     0.86914   0.54993   0.21875   0.00000  Uiso   1.00
C99    C     0.88184   0.65404   0.19797   0.00000  Uiso   1.00
C100   C     0.92319   0.69918   0.27126   0.00000  Uiso   1.00
C101   C     0.98694   0.80829   0.36524   0.00000  Uiso   1.00
C102   C     0.84658   0.38008   0.12203   0.00000  Uiso   1.00
C103   C     0.84034   0.34139   0.01992   0.00000  Uiso   1.00
C104   C     0.86271   0.24353   0.01177   0.00000  Uiso   1.00
C105   C     0.89144   0.08893   0.95557   0.00000  Uiso   1.00
C106   C     0.87624   0.38027   0.31642   0.00000  Uiso   1.00
C107   C     0.82291   0.39678   0.31248   0.00000  Uiso   1.00
C108   C     0.80215   0.36094   0.38831   0.00000  Uiso   1.00
C109   C     0.75273   0.38418   0.37015   0.00000  Uiso   1.00
C110   C     0.89676   0.49291   0.30951   0.00000  Uiso   1.00
C111   C     0.93811   0.53790   0.38284   0.00000  Uiso   1.00
C112   C     0.95087   0.64206   0.36219   0.00000  Uiso   1.00
C113   C     0.87421   0.32305   0.21279   0.00000  Uiso   1.00
C114   C     0.89660   0.22525   0.20480   0.00000  Uiso   1.00
C115   C     0.89039   0.18642   0.10270   0.00000  Uiso   1.00
H116   H     0.80388   0.52963   0.07867   0.00000  Uiso   1.00
H117   H     0.72452   0.52122   0.13320   0.00000  Uiso   1.00
H118   H     0.86046   0.69814   0.12772   0.00000  Uiso   1.00
H119   H     0.81896   0.38554   0.94970   0.00000  Uiso   1.00
H120   H     0.64873   0.48678   0.23370   0.00000  Uiso   1.00
H121   H     0.93537   0.85982   0.22214   0.00000  Uiso   1.00
H122   H     0.84785   0.20063   0.84674   0.00000  Uiso   1.00
H123   H     0.89775   0.33587   0.38709   0.00000  Uiso   1.00
H124   H     0.82354   0.31682   0.45854   0.00000  Uiso   1.00
H125   H     0.95948   0.49375   0.45307   0.00000  Uiso   1.00
H126   H     0.91797   0.18114   0.27505   0.00000  Uiso   1.00
H127   H     0.72909   0.32089   0.49776   0.00000  Uiso   1.00
H128   H     0.01573   0.69393   0.48620   0.00000  Uiso   1.00
H129   H     0.92822   0.03474   0.11081   0.00000  Uiso   1.00
O130   O     0.63840   0.39483   0.40719   0.00000  Uiso   1.00
O131   O     0.01447   0.88423   0.39201   0.00000  Uiso   1.00
O132   O     0.89965   0.01939   0.89950   0.00000  Uiso   1.00
N133   N     0.67782   0.45033   0.28603   0.00000  Uiso   1.00
N134   N     0.94581   0.79911   0.27523   0.00000  Uiso   1.00
N135   N     0.86400   0.18284   0.92427   0.00000  Uiso   1.00
N136   N     0.72107   0.36107   0.42812   0.00000  Uiso   1.00
N137   N     0.98905   0.70984   0.41732   0.00000  Uiso   1.00
N138   N     0.90725   0.09357   0.06636   0.00000  Uiso   1.00
C139   C     0.32538   0.98524   0.14933   0.00000  Uiso   1.00
C140   C     0.29528   0.95379   0.22172   0.00000  Uiso   1.00
C141   C     0.24589   0.97708   0.20344   0.00000  Uiso   1.00
C142   C     0.22506   0.94130   0.27923   0.00000  Uiso   1.00
C143   C     0.17413   0.90119   0.37786   0.00000  Uiso   1.00
C144   C     0.36914   0.04993   0.21875   0.00000  Uiso   1.00
C145   C     0.38184   0.15404   0.19797   0.00000  Uiso   1.00
C146   C     0.42319   0.19918   0.27126   0.00000  Uiso   1.00
C147   C     0.48694   0.30829   0.36524   0.00000  Uiso   1.00
C148   C     0.34658   0.88008   0.12203   0.00000  Uiso   1.00
C149   C     0.34034   0.84139   0.01992   0.00000  Uiso   1.00
C150   C     0.36271   0.74353   0.01177   0.00000  Uiso   1.00
C151   C     0.39144   0.58893   0.95557   0.00000  Uiso   1.00
C152   C     0.37624   0.88027   0.31642   0.00000  Uiso   1.00
C153   C     0.32291   0.89678   0.31248   0.00000  Uiso   1.00
C154   C     0.30215   0.86094   0.38831   0.00000  Uiso   1.00
C155   C     0.25273   0.88418   0.37015   0.00000  Uiso   1.00
C156   C     0.39676   0.99291   0.30951   0.00000  Uiso   1.00
C157   C     0.43811   0.03790   0.38284   0.00000  Uiso   1.00
C158   C     0.45087   0.14206   0.36219   0.00000  Uiso   1.00
C159   C     0.37421   0.82305   0.21279   0.00000  Uiso   1.00
C160   C     0.39660   0.72525   0.20480   0.00000  Uiso   1.00
C161   C     0.39039   0.68642   0.10270   0.00000  Uiso   1.00
H162   H     0.30388   0.02963   0.07867   0.00000  Uiso   1.00
H163   H     0.22452   0.02122   0.13320   0.00000  Uiso   1.00
H164   H     0.36046   0.19814   0.12772   0.00000  Uiso   1.00
H165   H     0.31896   0.88554   0.94970   0.00000  Uiso   1.00
H166   H     0.14873   0.98678   0.23370   0.00000  Uiso   1.00
H167   H     0.43537   0.35982   0.22214   0.00000  Uiso   1.00
H168   H     0.34785   0.70063   0.84674   0.00000  Uiso   1.00
H169   H     0.39775   0.83587   0.38709   0.00000  Uiso   1.00
H170   H     0.32354   0.81682   0.45854   0.00000  Uiso   1.00
H171   H     0.45948   0.99375   0.45307   0.00000  Uiso   1.00
H172   H     0.41797   0.68114   0.27505   0.00000  Uiso   1.00
H173   H     0.22909   0.82089   0.49776   0.00000  Uiso   1.00
H174   H     0.51573   0.19393   0.48620   0.00000  Uiso   1.00
H175   H     0.42822   0.53474   0.11081   0.00000  Uiso   1.00
O176   O     0.13840   0.89483   0.40719   0.00000  Uiso   1.00
O177   O     0.51447   0.38423   0.39201   0.00000  Uiso   1.00
O178   O     0.39965   0.51939   0.89950   0.00000  Uiso   1.00
N179   N     0.17782   0.95033   0.28603   0.00000  Uiso   1.00
N180   N     0.44581   0.29911   0.27523   0.00000  Uiso   1.00
N181   N     0.36400   0.68284   0.92427   0.00000  Uiso   1.00
N182   N     0.22107   0.86107   0.42812   0.00000  Uiso   1.00
N183   N     0.48905   0.20984   0.41732   0.00000  Uiso   1.00
N184   N     0.40725   0.59357   0.06636   0.00000  Uiso   1.00
C185   C     0.82538   0.51476   0.64933   0.00000  Uiso   1.00
C186   C     0.79528   0.54621   0.72172   0.00000  Uiso   1.00
C187   C     0.74589   0.52292   0.70344   0.00000  Uiso   1.00
C188   C     0.72506   0.55870   0.77923   0.00000  Uiso   1.00
C189   C     0.67413   0.59881   0.87785   0.00000  Uiso   1.00
C190   C     0.86914   0.45007   0.71875   0.00000  Uiso   1.00
C191   C     0.88184   0.34596   0.69797   0.00000  Uiso   1.00
C192   C     0.92319   0.30082   0.77126   0.00000  Uiso   1.00
C193   C     0.98694   0.19171   0.86524   0.00000  Uiso   1.00
C194   C     0.84658   0.61992   0.62203   0.00000  Uiso   1.00
C195   C     0.84034   0.65861   0.51992   0.00000  Uiso   1.00
C196   C     0.86271   0.75647   0.51177   0.00000  Uiso   1.00
C197   C     0.89144   0.91107   0.45557   0.00000  Uiso   1.00
C198   C     0.87624   0.61973   0.81642   0.00000  Uiso   1.00
C199   C     0.82291   0.60322   0.81248   0.00000  Uiso   1.00
C200   C     0.80215   0.63906   0.88831   0.00000  Uiso   1.00
C201   C     0.75273   0.61582   0.87015   0.00000  Uiso   1.00
C202   C     0.89676   0.50709   0.80951   0.00000  Uiso   1.00
C203   C     0.93811   0.46210   0.88284   0.00000  Uiso   1.00
C204   C     0.95087   0.35794   0.86219   0.00000  Uiso   1.00
C205   C     0.87421   0.67695   0.71279   0.00000  Uiso   1.00
C206   C     0.89660   0.77475   0.70480   0.00000  Uiso   1.00
C207   C     0.89039   0.81358   0.60270   0.00000  Uiso   1.00
H208   H     0.80388   0.47037   0.57867   0.00000  Uiso   1.00
H209   H     0.72452   0.47878   0.63320   0.00000  Uiso   1.00
H210   H     0.86046   0.30186   0.62772   0.00000  Uiso   1.00
H211   H     0.81896   0.61446   0.44970   0.00000  Uiso   1.00
H212   H     0.64873   0.51322   0.73370   0.00000  Uiso   1.00
H213   H     0.93537   0.14018   0.72214   0.00000  Uiso   1.00
H214   H     0.84785   0.79937   0.34674   0.00000  Uiso   1.00
H215   H     0.89775   0.66413   0.88709   0.00000  Uiso   1.00
H216   H     0.82354   0.68318   0.95854   0.00000  Uiso   1.00
H217   H     0.95948   0.50625   0.95307   0.00000  Uiso   1.00
H218   H     0.91797   0.81886   0.77505   0.00000  Uiso   1.00
H219   H     0.72909   0.67911   0.99776   0.00000  Uiso   1.00
H220   H     0.01573   0.30607   0.98620   0.00000  Uiso   1.00
H221   H     0.92822   0.96526   0.61081   0.00000  Uiso   1.00
O222   O     0.63840   0.60517   0.90719   0.00000  Uiso   1.00
O223   O     0.01447   0.11577   0.89201   0.00000  Uiso   1.00
O224   O     0.89965   0.98061   0.39950   0.00000  Uiso   1.00
N225   N     0.67782   0.54967   0.78603   0.00000  Uiso   1.00
N226   N     0.94581   0.20089   0.77523   0.00000  Uiso   1.00
N227   N     0.86400   0.81716   0.42427   0.00000  Uiso   1.00
N228   N     0.72107   0.63893   0.92812   0.00000  Uiso   1.00
N229   N     0.98905   0.29016   0.91732   0.00000  Uiso   1.00
N230   N     0.90725   0.90643   0.56636   0.00000  Uiso   1.00
C231   C     0.32538   0.01476   0.64933   0.00000  Uiso   1.00
C232   C     0.29528   0.04621   0.72172   0.00000  Uiso   1.00
C233   C     0.24589   0.02292   0.70344   0.00000  Uiso   1.00
C234   C     0.22506   0.05870   0.77923   0.00000  Uiso   1.00
C235   C     0.17413   0.09881   0.87785   0.00000  Uiso   1.00
C236   C     0.36914   0.95007   0.71875   0.00000  Uiso   1.00
C237   C     0.38184   0.84596   0.69797   0.00000  Uiso   1.00
C238   C     0.42319   0.80082   0.77126   0.00000  Uiso   1.00
C239   C     0.48694   0.69171   0.86524   0.00000  Uiso   1.00
C240   C     0.34658   0.11992   0.62203   0.00000  Uiso   1.00
C241   C     0.34034   0.15861   0.51992   0.00000  Uiso   1.00
C242   C     0.36271   0.25647   0.51177   0.00000  Uiso   1.00
C243   C     0.39144   0.41107   0.45557   0.00000  Uiso   1.00
C244   C     0.37624   0.11973   0.81642   0.00000  Uiso   1.00
C245   C     0.32291   0.10322   0.81248   0.00000  Uiso   1.00
C246   C     0.30215   0.13906   0.88831   0.00000  Uiso   1.00
C247   C     0.25273   0.11582   0.87015   0.00000  Uiso   1.00
C248   C     0.39676   0.00709   0.80951   0.00000  Uiso   1.00
C249   C     0.43811   0.96210   0.88284   0.00000  Uiso   1.00
C250   C     0.45087   0.85794   0.86219   0.00000  Uiso   1.00
C251   C     0.37421   0.17695   0.71279   0.00000  Uiso   1.00
C252   C     0.39660   0.27475   0.70480   0.00000  Uiso   1.00
C253   C     0.39039   0.31358   0.60270   0.00000  Uiso   1.00
H254   H     0.30388   0.97037   0.57867   0.00000  Uiso   1.00
H255   H     0.22452   0.97878   0.63320   0.00000  Uiso   1.00
H256   H     0.36046   0.80186   0.62772   0.00000  Uiso   1.00
H257   H     0.31896   0.11446   0.44970   0.00000  Uiso   1.00
H258   H     0.14873   0.01322   0.73370   0.00000  Uiso   1.00
H259   H     0.43537   0.64018   0.72214   0.00000  Uiso   1.00
H260   H     0.34785   0.29937   0.34674   0.00000  Uiso   1.00
H261   H     0.39775   0.16413   0.88709   0.00000  Uiso   1.00
H262   H     0.32354   0.18318   0.95854   0.00000  Uiso   1.00
H263   H     0.45948   0.00625   0.95307   0.00000  Uiso   1.00
H264   H     0.41797   0.31886   0.77505   0.00000  Uiso   1.00
H265   H     0.22909   0.17911   0.99776   0.00000  Uiso   1.00
H266   H     0.51573   0.80607   0.98620   0.00000  Uiso   1.00
H267   H     0.42822   0.46526   0.61081   0.00000  Uiso   1.00
O268   O     0.13840   0.10517   0.90719   0.00000  Uiso   1.00
O269   O     0.51447   0.61577   0.89201   0.00000  Uiso   1.00
O270   O     0.39965   0.48061   0.39950   0.00000  Uiso   1.00
N271   N     0.17782   0.04967   0.78603   0.00000  Uiso   1.00
N272   N     0.44581   0.70089   0.77523   0.00000  Uiso   1.00
N273   N     0.36400   0.31716   0.42427   0.00000  Uiso   1.00
N274   N     0.22107   0.13893   0.92812   0.00000  Uiso   1.00
N275   N     0.48905   0.79016   0.91732   0.00000  Uiso   1.00
N276   N     0.40725   0.40643   0.56636   0.00000  Uiso   1.00
C277   C     0.17462   0.51476   0.85067   0.00000  Uiso   1.00
C278   C     0.20472   0.54621   0.77828   0.00000  Uiso   1.00
C279   C     0.25411   0.52292   0.79656   0.00000  Uiso   1.00
C280   C     0.27494   0.55870   0.72077   0.00000  Uiso   1.00
C281   C     0.32587   0.59881   0.62214   0.00000  Uiso   1.00
C282   C     0.13086   0.45007   0.78125   0.00000  Uiso   1.00
C283   C     0.11816   0.34596   0.80203   0.00000  Uiso   1.00
C284   C     0.07681   0.30082   0.72874   0.00000  Uiso   1.00
C285   C     0.01306   0.19171   0.63476   0.00000  Uiso   1.00
C286   C     0.15342   0.61992   0.87797   0.00000  Uiso   1.00
C287   C     0.15966   0.65861   0.98008   0.00000  Uiso   1.00
C288   C     0.13729   0.75647   0.98823   0.00000  Uiso   1.00
C289   C     0.10856   0.91107   0.04443   0.00000  Uiso   1.00
C290   C     0.12376   0.61973   0.68358   0.00000  Uiso   1.00
C291   C     0.17709   0.60322   0.68752   0.00000  Uiso   1.00
C292   C     0.19785   0.63906   0.61169   0.00000  Uiso   1.00
C293   C     0.24727   0.61582   0.62985   0.00000  Uiso   1.00
C294   C     0.10324   0.50709   0.69049   0.00000  Uiso   1.00
C295   C     0.06189   0.46210   0.61716   0.00000  Uiso   1.00
C296   C     0.04913   0.35794   0.63781   0.00000  Uiso   1.00
C297   C     0.12579   0.67695   0.78721   0.00000  Uiso   1.00
C298   C     0.10340   0.77475   0.79520   0.00000  Uiso   1.00
C299   C     0.10961   0.81358   0.89730   0.00000  Uiso   1.00
H300   H     0.19612   0.47037   0.92133   0.00000  Uiso   1.00
H301   H     0.27548   0.47878   0.86680   0.00000  Uiso   1.00
H302   H     0.13954   0.30186   0.87228   0.00000  Uiso   1.00
H303   H     0.18104   0.61446   0.05030   0.00000  Uiso   1.00
H304   H     0.35127   0.51322   0.76630   0.00000  Uiso   1.00
H305   H     0.06463   0.14018   0.77786   0.00000  Uiso   1.00
H306   H     0.15215   0.79937   0.15326   0.00000  Uiso   1.00
H307   H     0.10225   0.66413   0.61291   0.00000  Uiso   1.00
H308   H     0.17646   0.68318   0.54146   0.00000  Uiso   1.00
H309   H     0.04052   0.50625   0.54693   0.00000  Uiso   1.00
H310   H     0.08203   0.81886   0.72495   0.00000  Uiso   1.00
H311   H     0.27091   0.67911   0.50224   0.00000  Uiso   1.00
H312   H     0.98427   0.30607   0.51380   0.00000  Uiso   1.00
H313   H     0.07178   0.96526   0.88919   0.00000  Uiso   1.00
O314   O     0.36160   0.60517   0.59281   0.00000  Uiso   1.00
O315   O     0.98553   0.11577   0.60799   0.00000  Uiso   1.00
O316   O     0.10035   0.98061   0.10050   0.00000  Uiso   1.00
N317   N     0.32218   0.54967   0.71397   0.00000  Uiso   1.00
N318   N     0.05419   0.20089   0.72477   0.00000  Uiso   1.00
N319   N     0.13600   0.81716   0.07573   0.00000  Uiso   1.00
N320   N     0.27893   0.63893   0.57188   0.00000  Uiso   1.00
N321   N     0.01095   0.29016   0.58268   0.00000  Uiso   1.00
N322   N     0.09275   0.90643   0.93364   0.00000  Uiso   1.00
C323   C     0.67462   0.01476   0.85067   0.00000  Uiso   1.00
C324   C     0.70472   0.04621   0.77828   0.00000  Uiso   1.00
C325   C     0.75411   0.02292   0.79656   0.00000  Uiso   1.00
C326   C     0.77494   0.05870   0.72077   0.00000  Uiso   1.00
C327   C     0.82587   0.09881   0.62214   0.00000  Uiso   1.00
C328   C     0.63086   0.95007   0.78125   0.00000  Uiso   1.00
C329   C     0.61816   0.84596   0.80203   0.00000  Uiso   1.00
C330   C     0.57681   0.80082   0.72874   0.00000  Uiso   1.00
C331   C     0.51306   0.69171   0.63476   0.00000  Uiso   1.00
C332   C     0.65342   0.11992   0.87797   0.00000  Uiso   1.00
C333   C     0.65966   0.15861   0.98008   0.00000  Uiso   1.00
C334   C     0.63729   0.25647   0.98823   0.00000  Uiso   1.00
C335   C     0.60856   0.41107   0.04443   0.00000  Uiso   1.00
C336   C     0.62376   0.11973   0.68358   0.00000  Uiso   1.00
C337   C     0.67709   0.10322   0.68752   0.00000  Uiso   1.00
C338   C     0.69785   0.13906   0.61169   0.00000  Uiso   1.00
C339   C     0.74727   0.11582   0.62985   0.00000  Uiso   1.00
C340   C     0.60324   0.00709   0.69049   0.00000  Uiso   1.00
C341   C     0.56189   0.96210   0.61716   0.00000  Uiso   1.00
C342   C     0.54913   0.85794   0.63781   0.00000  Uiso   1.00
C343   C     0.62579   0.17695   0.78721   0.00000  Uiso   1.00
C344   C     0.60340   0.27475   0.79520   0.00000  Uiso   1.00
C345   C     0.60961   0.31358   0.89730   0.00000  Uiso   1.00
H346   H     0.69612   0.97037   0.92133   0.00000  Uiso   1.00
H347   H     0.77548   0.97878   0.86680   0.00000  Uiso   1.00
H348   H     0.63954   0.80186   0.87228   0.00000  Uiso   1.00
H349   H     0.68104   0.11446   0.05030   0.00000  Uiso   1.00
H350   H     0.85127   0.01322   0.76630   0.00000  Uiso   1.00
H351   H     0.56463   0.64018   0.77786   0.00000  Uiso   1.00
H352   H     0.65215   0.29937   0.15326   0.00000  Uiso   1.00
H353   H     0.60225   0.16413   0.61291   0.00000  Uiso   1.00
H354   H     0.67646   0.18318   0.54146   0.00000  Uiso   1.00
H355   H     0.54052   0.00625   0.54693   0.00000  Uiso   1.00
H356   H     0.58203   0.31886   0.72495   0.00000  Uiso   1.00
H357   H     0.77091   0.17911   0.50224   0.00000  Uiso   1.00
H358   H     0.48427   0.80607   0.51380   0.00000  Uiso   1.00
H359   H     0.57178   0.46526   0.88919   0.00000  Uiso   1.00
O360   O     0.86160   0.10517   0.59281   0.00000  Uiso   1.00
O361   O     0.48553   0.61577   0.60799   0.00000  Uiso   1.00
O362   O     0.60035   0.48061   0.10050   0.00000  Uiso   1.00
N363   N     0.82218   0.04967   0.71397   0.00000  Uiso   1.00
N364   N     0.55419   0.70089   0.72477   0.00000  Uiso   1.00
N365   N     0.63600   0.31716   0.07573   0.00000  Uiso   1.00
N366   N     0.77893   0.13893   0.57188   0.00000  Uiso   1.00
N367   N     0.51095   0.79016   0.58268   0.00000  Uiso   1.00
N368   N     0.59275   0.40643   0.93364   0.00000  Uiso   1.00
