data_job_00390
_audit_creation_date              2018-12-19
_audit_creation_method            'Materials Studio'
_symmetry_space_group_name_H-M    'P1'
_symmetry_Int_Tables_number       1
_symmetry_cell_setting            triclinic
loop_
_symmetry_equiv_pos_as_xyz
  x,y,z
_cell_length_a                    24.2047
_cell_length_b                    10.1444
_cell_length_c                    26.9203
_cell_angle_alpha                 90.0000
_cell_angle_beta                  125.9850
_cell_angle_gamma                 90.0000
loop_
_atom_site_label
_atom_site_type_symbol
_atom_site_fract_x
_atom_site_fract_y
_atom_site_fract_z
_atom_site_U_iso_or_equiv
_atom_site_adp_type
_atom_site_occupancy
C1     C     0.63964   0.66890   0.82395   0.00000  Uiso   1.00
C2     C     0.71399   0.62671   0.86874   0.00000  Uiso   1.00
C3     C     0.73988   0.54638   0.91965   0.00000  Uiso   1.00
C4     C     0.80933   0.51929   0.95488   0.00000  Uiso   1.00
C5     C     0.91839   0.44600   0.02676   0.00000  Uiso   1.00
C6     C     0.64011   0.81921   0.82342   0.00000  Uiso   1.00
C7     C     0.60388   0.90071   0.83621   0.00000  Uiso   1.00
C8     C     0.61114   0.03567   0.83328   0.00000  Uiso   1.00
C9     C     0.60547   0.26123   0.83474   0.00000  Uiso   1.00
C10    C     0.61780   0.62573   0.76054   0.00000  Uiso   1.00
C11    C     0.56281   0.54458   0.72045   0.00000  Uiso   1.00
C12    C     0.55128   0.51667   0.66457   0.00000  Uiso   1.00
C13    C     0.51097   0.44182   0.56840   0.00000  Uiso   1.00
C14    C     0.71695   0.76365   0.79599   0.00000  Uiso   1.00
C15    C     0.75597   0.67818   0.85355   0.00000  Uiso   1.00
C16    C     0.82541   0.65120   0.88871   0.00000  Uiso   1.00
C17    C     0.85140   0.57084   0.93967   0.00000  Uiso   1.00
C18    C     0.68210   0.87067   0.80823   0.00000  Uiso   1.00
C19    C     0.68941   0.00554   0.80527   0.00000  Uiso   1.00
C20    C     0.65321   0.08723   0.81806   0.00000  Uiso   1.00
C21    C     0.65979   0.67719   0.74535   0.00000  Uiso   1.00
C22    C     0.64834   0.64940   0.68951   0.00000  Uiso   1.00
C23    C     0.59334   0.56822   0.64935   0.00000  Uiso   1.00
H24    H     0.60695   0.62884   0.83578   0.00000  Uiso   1.00
H25    H     0.70737   0.50658   0.93140   0.00000  Uiso   1.00
H26    H     0.57139   0.86086   0.84796   0.00000  Uiso   1.00
H27    H     0.53032   0.50478   0.73222   0.00000  Uiso   1.00
H28    H     0.83722   0.39376   0.03072   0.00000  Uiso   1.00
H29    H     0.55048   0.14078   0.85477   0.00000  Uiso   1.00
H30    H     0.46389   0.38991   0.61071   0.00000  Uiso   1.00
H31    H     0.74964   0.80372   0.78416   0.00000  Uiso   1.00
H32    H     0.85789   0.69104   0.87695   0.00000  Uiso   1.00
H33    H     0.72191   0.04533   0.79351   0.00000  Uiso   1.00
H34    H     0.68085   0.68924   0.67777   0.00000  Uiso   1.00
H35    H     0.95939   0.54348   0.98653   0.00000  Uiso   1.00
H36    H     0.67265   0.29050   0.81057   0.00000  Uiso   1.00
H37    H     0.58606   0.53963   0.56652   0.00000  Uiso   1.00
O38    O     0.96695   0.39138   0.07061   0.00000  Uiso   1.00
O39    O     0.59075   0.37143   0.83975   0.00000  Uiso   1.00
O40    O     0.47714   0.38631   0.51956   0.00000  Uiso   1.00
N41    N     0.85112   0.44444   0.00758   0.00000  Uiso   1.00
N42    N     0.58304   0.14286   0.84308   0.00000  Uiso   1.00
N43    N     0.50207   0.44089   0.61491   0.00000  Uiso   1.00
N44    N     0.91686   0.52500   0.98380   0.00000  Uiso   1.00
N45    N     0.64878   0.22342   0.81930   0.00000  Uiso   1.00
N46    N     0.56781   0.52145   0.59112   0.00000  Uiso   1.00
C47    C     0.36930   0.69544   0.68675   0.00000  Uiso   1.00
C48    C     0.29433   0.65880   0.65374   0.00000  Uiso   1.00
C49    C     0.25735   0.57452   0.60379   0.00000  Uiso   1.00
C50    C     0.18935   0.55372   0.58014   0.00000  Uiso   1.00
C51    C     0.07748   0.48755   0.52498   0.00000  Uiso   1.00
C52    C     0.37142   0.84546   0.68460   0.00000  Uiso   1.00
C53    C     0.39927   0.91812   0.66061   0.00000  Uiso   1.00
C54    C     0.39616   0.05444   0.66296   0.00000  Uiso   1.00
C55    C     0.40402   0.27806   0.65577   0.00000  Uiso   1.00
C56    C     0.40444   0.65946   0.75401   0.00000  Uiso   1.00
C57    C     0.46007   0.57576   0.78839   0.00000  Uiso   1.00
C58    C     0.48479   0.55551   0.84918   0.00000  Uiso   1.00
C59    C     0.54392   0.49034   0.94976   0.00000  Uiso   1.00
C60    C     0.31429   0.80836   0.73359   0.00000  Uiso   1.00
C61    C     0.26445   0.72014   0.67918   0.00000  Uiso   1.00
C62    C     0.19649   0.69946   0.65561   0.00000  Uiso   1.00
C63    C     0.15942   0.61516   0.60563   0.00000  Uiso   1.00
C64    C     0.34154   0.90680   0.71004   0.00000  Uiso   1.00
C65    C     0.33840   0.04305   0.71243   0.00000  Uiso   1.00
C66    C     0.36623   0.11589   0.68845   0.00000  Uiso   1.00
C67    C     0.37456   0.72080   0.77945   0.00000  Uiso   1.00
C68    C     0.39920   0.70069   0.84021   0.00000  Uiso   1.00
C69    C     0.45485   0.61696   0.87467   0.00000  Uiso   1.00
H70    H     0.39256   0.64770   0.66695   0.00000  Uiso   1.00
H71    H     0.28049   0.52709   0.58411   0.00000  Uiso   1.00
H72    H     0.42239   0.87062   0.64094   0.00000  Uiso   1.00
H73    H     0.48318   0.52832   0.76869   0.00000  Uiso   1.00
H74    H     0.14306   0.42045   0.50347   0.00000  Uiso   1.00
H75    H     0.44228   0.14481   0.62331   0.00000  Uiso   1.00
H76    H     0.57047   0.42299   0.89270   0.00000  Uiso   1.00
H77    H     0.29103   0.85612   0.75340   0.00000  Uiso   1.00
H78    H     0.17338   0.74693   0.67530   0.00000  Uiso   1.00
H79    H     0.31528   0.09047   0.73213   0.00000  Uiso   1.00
H80    H     0.37607   0.74817   0.85988   0.00000  Uiso   1.00
H81    H     0.05613   0.59889   0.57748   0.00000  Uiso   1.00
H82    H     0.35535   0.32326   0.69733   0.00000  Uiso   1.00
H83    H     0.48354   0.60143   0.96672   0.00000  Uiso   1.00
O84    O     0.02403   0.43412   0.48753   0.00000  Uiso   1.00
O85    O     0.41661   0.38445   0.64477   0.00000  Uiso   1.00
O86    O     0.58478   0.43744   0.99820   0.00000  Uiso   1.00
N87    N     0.13875   0.47741   0.53161   0.00000  Uiso   1.00
N88    N     0.41849   0.15465   0.64365   0.00000  Uiso   1.00
N89    N     0.53835   0.47983   0.89551   0.00000  Uiso   1.00
N90    N     0.09197   0.57343   0.57144   0.00000  Uiso   1.00
N91    N     0.37171   0.25066   0.68348   0.00000  Uiso   1.00
N92    N     0.49157   0.57585   0.93534   0.00000  Uiso   1.00
C93    C     0.13964   0.16890   0.82395   0.00000  Uiso   1.00
C94    C     0.21399   0.12671   0.86874   0.00000  Uiso   1.00
C95    C     0.23988   0.04638   0.91965   0.00000  Uiso   1.00
C96    C     0.30933   0.01929   0.95488   0.00000  Uiso   1.00
C97    C     0.41839   0.94600   0.02676   0.00000  Uiso   1.00
C98    C     0.14011   0.31921   0.82342   0.00000  Uiso   1.00
C99    C     0.10388   0.40071   0.83621   0.00000  Uiso   1.00
C100   C     0.11114   0.53567   0.83328   0.00000  Uiso   1.00
C101   C     0.10547   0.76123   0.83474   0.00000  Uiso   1.00
C102   C     0.11780   0.12573   0.76054   0.00000  Uiso   1.00
C103   C     0.06281   0.04458   0.72045   0.00000  Uiso   1.00
C104   C     0.05128   0.01667   0.66457   0.00000  Uiso   1.00
C105   C     0.01097   0.94182   0.56840   0.00000  Uiso   1.00
C106   C     0.21695   0.26365   0.79599   0.00000  Uiso   1.00
C107   C     0.25597   0.17818   0.85355   0.00000  Uiso   1.00
C108   C     0.32541   0.15120   0.88871   0.00000  Uiso   1.00
C109   C     0.35140   0.07084   0.93967   0.00000  Uiso   1.00
C110   C     0.18210   0.37067   0.80823   0.00000  Uiso   1.00
C111   C     0.18941   0.50554   0.80527   0.00000  Uiso   1.00
C112   C     0.15321   0.58723   0.81806   0.00000  Uiso   1.00
C113   C     0.15979   0.17719   0.74535   0.00000  Uiso   1.00
C114   C     0.14834   0.14940   0.68951   0.00000  Uiso   1.00
C115   C     0.09334   0.06822   0.64935   0.00000  Uiso   1.00
H116   H     0.10695   0.12884   0.83578   0.00000  Uiso   1.00
H117   H     0.20737   0.00658   0.93140   0.00000  Uiso   1.00
H118   H     0.07139   0.36086   0.84796   0.00000  Uiso   1.00
H119   H     0.03032   0.00478   0.73222   0.00000  Uiso   1.00
H120   H     0.33722   0.89376   0.03072   0.00000  Uiso   1.00
H121   H     0.05048   0.64078   0.85477   0.00000  Uiso   1.00
H122   H     0.96389   0.88991   0.61071   0.00000  Uiso   1.00
H123   H     0.24964   0.30372   0.78416   0.00000  Uiso   1.00
H124   H     0.35789   0.19104   0.87695   0.00000  Uiso   1.00
H125   H     0.22191   0.54533   0.79351   0.00000  Uiso   1.00
H126   H     0.18085   0.18924   0.67777   0.00000  Uiso   1.00
H127   H     0.45939   0.04348   0.98653   0.00000  Uiso   1.00
H128   H     0.17265   0.79050   0.81057   0.00000  Uiso   1.00
H129   H     0.08606   0.03963   0.56652   0.00000  Uiso   1.00
O130   O     0.46695   0.89138   0.07061   0.00000  Uiso   1.00
O131   O     0.09075   0.87143   0.83975   0.00000  Uiso   1.00
O132   O     0.97714   0.88631   0.51956   0.00000  Uiso   1.00
N133   N     0.35112   0.94444   0.00758   0.00000  Uiso   1.00
N134   N     0.08304   0.64286   0.84308   0.00000  Uiso   1.00
N135   N     0.00207   0.94089   0.61491   0.00000  Uiso   1.00
N136   N     0.41686   0.02500   0.98380   0.00000  Uiso   1.00
N137   N     0.14878   0.72342   0.81930   0.00000  Uiso   1.00
N138   N     0.06781   0.02145   0.59112   0.00000  Uiso   1.00
C139   C     0.86930   0.19544   0.68675   0.00000  Uiso   1.00
C140   C     0.79433   0.15880   0.65374   0.00000  Uiso   1.00
C141   C     0.75735   0.07452   0.60379   0.00000  Uiso   1.00
C142   C     0.68935   0.05372   0.58014   0.00000  Uiso   1.00
C143   C     0.57748   0.98755   0.52498   0.00000  Uiso   1.00
C144   C     0.87142   0.34546   0.68460   0.00000  Uiso   1.00
C145   C     0.89927   0.41812   0.66061   0.00000  Uiso   1.00
C146   C     0.89616   0.55444   0.66296   0.00000  Uiso   1.00
C147   C     0.90402   0.77806   0.65577   0.00000  Uiso   1.00
C148   C     0.90444   0.15946   0.75401   0.00000  Uiso   1.00
C149   C     0.96007   0.07576   0.78839   0.00000  Uiso   1.00
C150   C     0.98479   0.05551   0.84918   0.00000  Uiso   1.00
C151   C     0.04392   0.99034   0.94976   0.00000  Uiso   1.00
C152   C     0.81429   0.30836   0.73359   0.00000  Uiso   1.00
C153   C     0.76445   0.22014   0.67918   0.00000  Uiso   1.00
C154   C     0.69649   0.19946   0.65561   0.00000  Uiso   1.00
C155   C     0.65942   0.11516   0.60563   0.00000  Uiso   1.00
C156   C     0.84154   0.40680   0.71004   0.00000  Uiso   1.00
C157   C     0.83840   0.54305   0.71243   0.00000  Uiso   1.00
C158   C     0.86623   0.61589   0.68845   0.00000  Uiso   1.00
C159   C     0.87456   0.22080   0.77945   0.00000  Uiso   1.00
C160   C     0.89920   0.20069   0.84021   0.00000  Uiso   1.00
C161   C     0.95485   0.11696   0.87467   0.00000  Uiso   1.00
H162   H     0.89256   0.14770   0.66695   0.00000  Uiso   1.00
H163   H     0.78049   0.02709   0.58411   0.00000  Uiso   1.00
H164   H     0.92239   0.37062   0.64094   0.00000  Uiso   1.00
H165   H     0.98318   0.02832   0.76869   0.00000  Uiso   1.00
H166   H     0.64306   0.92045   0.50347   0.00000  Uiso   1.00
H167   H     0.94228   0.64481   0.62331   0.00000  Uiso   1.00
H168   H     0.07047   0.92299   0.89270   0.00000  Uiso   1.00
H169   H     0.79103   0.35612   0.75340   0.00000  Uiso   1.00
H170   H     0.67338   0.24693   0.67530   0.00000  Uiso   1.00
H171   H     0.81528   0.59047   0.73213   0.00000  Uiso   1.00
H172   H     0.87607   0.24817   0.85988   0.00000  Uiso   1.00
H173   H     0.55613   0.09889   0.57748   0.00000  Uiso   1.00
H174   H     0.85535   0.82326   0.69733   0.00000  Uiso   1.00
H175   H     0.98354   0.10143   0.96672   0.00000  Uiso   1.00
O176   O     0.52403   0.93412   0.48753   0.00000  Uiso   1.00
O177   O     0.91661   0.88445   0.64477   0.00000  Uiso   1.00
O178   O     0.08478   0.93744   0.99820   0.00000  Uiso   1.00
N179   N     0.63875   0.97741   0.53161   0.00000  Uiso   1.00
N180   N     0.91849   0.65465   0.64365   0.00000  Uiso   1.00
N181   N     0.03835   0.97983   0.89551   0.00000  Uiso   1.00
N182   N     0.59197   0.07343   0.57144   0.00000  Uiso   1.00
N183   N     0.87171   0.75066   0.68348   0.00000  Uiso   1.00
N184   N     0.99157   0.07585   0.93534   0.00000  Uiso   1.00
C185   C     0.63964   0.33110   0.32395   0.00000  Uiso   1.00
C186   C     0.71399   0.37329   0.36874   0.00000  Uiso   1.00
C187   C     0.73988   0.45362   0.41965   0.00000  Uiso   1.00
C188   C     0.80933   0.48071   0.45488   0.00000  Uiso   1.00
C189   C     0.91839   0.55400   0.52676   0.00000  Uiso   1.00
C190   C     0.64011   0.18079   0.32342   0.00000  Uiso   1.00
C191   C     0.60388   0.09929   0.33621   0.00000  Uiso   1.00
C192   C     0.61114   0.96433   0.33328   0.00000  Uiso   1.00
C193   C     0.60547   0.73877   0.33474   0.00000  Uiso   1.00
C194   C     0.61780   0.37427   0.26054   0.00000  Uiso   1.00
C195   C     0.56281   0.45542   0.22045   0.00000  Uiso   1.00
C196   C     0.55128   0.48333   0.16457   0.00000  Uiso   1.00
C197   C     0.51097   0.55818   0.06840   0.00000  Uiso   1.00
C198   C     0.71695   0.23635   0.29599   0.00000  Uiso   1.00
C199   C     0.75597   0.32182   0.35355   0.00000  Uiso   1.00
C200   C     0.82541   0.34880   0.38871   0.00000  Uiso   1.00
C201   C     0.85140   0.42916   0.43967   0.00000  Uiso   1.00
C202   C     0.68210   0.12933   0.30823   0.00000  Uiso   1.00
C203   C     0.68941   0.99446   0.30527   0.00000  Uiso   1.00
C204   C     0.65321   0.91277   0.31806   0.00000  Uiso   1.00
C205   C     0.65979   0.32281   0.24535   0.00000  Uiso   1.00
C206   C     0.64834   0.35060   0.18951   0.00000  Uiso   1.00
C207   C     0.59334   0.43178   0.14935   0.00000  Uiso   1.00
H208   H     0.60695   0.37116   0.33578   0.00000  Uiso   1.00
H209   H     0.70737   0.49342   0.43140   0.00000  Uiso   1.00
H210   H     0.57139   0.13914   0.34796   0.00000  Uiso   1.00
H211   H     0.53032   0.49522   0.23222   0.00000  Uiso   1.00
H212   H     0.83722   0.60624   0.53072   0.00000  Uiso   1.00
H213   H     0.55048   0.85922   0.35477   0.00000  Uiso   1.00
H214   H     0.46389   0.61009   0.11071   0.00000  Uiso   1.00
H215   H     0.74964   0.19628   0.28416   0.00000  Uiso   1.00
H216   H     0.85789   0.30896   0.37695   0.00000  Uiso   1.00
H217   H     0.72191   0.95467   0.29351   0.00000  Uiso   1.00
H218   H     0.68085   0.31076   0.17777   0.00000  Uiso   1.00
H219   H     0.95939   0.45652   0.48653   0.00000  Uiso   1.00
H220   H     0.67265   0.70950   0.31057   0.00000  Uiso   1.00
H221   H     0.58606   0.46037   0.06652   0.00000  Uiso   1.00
O222   O     0.96695   0.60862   0.57061   0.00000  Uiso   1.00
O223   O     0.59075   0.62857   0.33975   0.00000  Uiso   1.00
O224   O     0.47714   0.61369   0.01956   0.00000  Uiso   1.00
N225   N     0.85112   0.55556   0.50758   0.00000  Uiso   1.00
N226   N     0.58304   0.85714   0.34308   0.00000  Uiso   1.00
N227   N     0.50207   0.55911   0.11491   0.00000  Uiso   1.00
N228   N     0.91686   0.47500   0.48380   0.00000  Uiso   1.00
N229   N     0.64878   0.77658   0.31930   0.00000  Uiso   1.00
N230   N     0.56781   0.47855   0.09112   0.00000  Uiso   1.00
C231   C     0.36930   0.30456   0.18675   0.00000  Uiso   1.00
C232   C     0.29433   0.34120   0.15374   0.00000  Uiso   1.00
C233   C     0.25735   0.42548   0.10379   0.00000  Uiso   1.00
C234   C     0.18935   0.44628   0.08014   0.00000  Uiso   1.00
C235   C     0.07748   0.51245   0.02498   0.00000  Uiso   1.00
C236   C     0.37142   0.15454   0.18460   0.00000  Uiso   1.00
C237   C     0.39927   0.08188   0.16061   0.00000  Uiso   1.00
C238   C     0.39616   0.94556   0.16296   0.00000  Uiso   1.00
C239   C     0.40402   0.72194   0.15577   0.00000  Uiso   1.00
C240   C     0.40444   0.34054   0.25401   0.00000  Uiso   1.00
C241   C     0.46007   0.42424   0.28839   0.00000  Uiso   1.00
C242   C     0.48479   0.44449   0.34918   0.00000  Uiso   1.00
C243   C     0.54392   0.50966   0.44976   0.00000  Uiso   1.00
C244   C     0.31429   0.19164   0.23359   0.00000  Uiso   1.00
C245   C     0.26445   0.27986   0.17918   0.00000  Uiso   1.00
C246   C     0.19649   0.30054   0.15561   0.00000  Uiso   1.00
C247   C     0.15942   0.38484   0.10563   0.00000  Uiso   1.00
C248   C     0.34154   0.09320   0.21004   0.00000  Uiso   1.00
C249   C     0.33840   0.95695   0.21243   0.00000  Uiso   1.00
C250   C     0.36623   0.88411   0.18845   0.00000  Uiso   1.00
C251   C     0.37456   0.27920   0.27945   0.00000  Uiso   1.00
C252   C     0.39920   0.29931   0.34021   0.00000  Uiso   1.00
C253   C     0.45485   0.38304   0.37467   0.00000  Uiso   1.00
H254   H     0.39256   0.35230   0.16695   0.00000  Uiso   1.00
H255   H     0.28049   0.47291   0.08411   0.00000  Uiso   1.00
H256   H     0.42239   0.12938   0.14094   0.00000  Uiso   1.00
H257   H     0.48318   0.47168   0.26869   0.00000  Uiso   1.00
H258   H     0.14306   0.57955   0.00347   0.00000  Uiso   1.00
H259   H     0.44228   0.85519   0.12331   0.00000  Uiso   1.00
H260   H     0.57047   0.57701   0.39270   0.00000  Uiso   1.00
H261   H     0.29103   0.14388   0.25340   0.00000  Uiso   1.00
H262   H     0.17338   0.25307   0.17530   0.00000  Uiso   1.00
H263   H     0.31528   0.90953   0.23213   0.00000  Uiso   1.00
H264   H     0.37607   0.25183   0.35988   0.00000  Uiso   1.00
H265   H     0.05613   0.40111   0.07748   0.00000  Uiso   1.00
H266   H     0.35535   0.67674   0.19733   0.00000  Uiso   1.00
H267   H     0.48354   0.39857   0.46672   0.00000  Uiso   1.00
O268   O     0.02403   0.56588   0.98753   0.00000  Uiso   1.00
O269   O     0.41661   0.61555   0.14477   0.00000  Uiso   1.00
O270   O     0.58478   0.56256   0.49820   0.00000  Uiso   1.00
N271   N     0.13875   0.52259   0.03161   0.00000  Uiso   1.00
N272   N     0.41849   0.84535   0.14365   0.00000  Uiso   1.00
N273   N     0.53835   0.52017   0.39551   0.00000  Uiso   1.00
N274   N     0.09197   0.42657   0.07144   0.00000  Uiso   1.00
N275   N     0.37171   0.74934   0.18348   0.00000  Uiso   1.00
N276   N     0.49157   0.42415   0.43534   0.00000  Uiso   1.00
C277   C     0.13964   0.83110   0.32395   0.00000  Uiso   1.00
C278   C     0.21399   0.87329   0.36874   0.00000  Uiso   1.00
C279   C     0.23988   0.95362   0.41965   0.00000  Uiso   1.00
C280   C     0.30933   0.98071   0.45488   0.00000  Uiso   1.00
C281   C     0.41839   0.05400   0.52676   0.00000  Uiso   1.00
C282   C     0.14011   0.68079   0.32342   0.00000  Uiso   1.00
C283   C     0.10388   0.59929   0.33621   0.00000  Uiso   1.00
C284   C     0.11114   0.46433   0.33328   0.00000  Uiso   1.00
C285   C     0.10547   0.23877   0.33474   0.00000  Uiso   1.00
C286   C     0.11780   0.87427   0.26054   0.00000  Uiso   1.00
C287   C     0.06281   0.95542   0.22045   0.00000  Uiso   1.00
C288   C     0.05128   0.98333   0.16457   0.00000  Uiso   1.00
C289   C     0.01097   0.05818   0.06840   0.00000  Uiso   1.00
C290   C     0.21695   0.73635   0.29599   0.00000  Uiso   1.00
C291   C     0.25597   0.82182   0.35355   0.00000  Uiso   1.00
C292   C     0.32541   0.84880   0.38871   0.00000  Uiso   1.00
C293   C     0.35140   0.92916   0.43967   0.00000  Uiso   1.00
C294   C     0.18210   0.62933   0.30823   0.00000  Uiso   1.00
C295   C     0.18941   0.49446   0.30527   0.00000  Uiso   1.00
C296   C     0.15321   0.41277   0.31806   0.00000  Uiso   1.00
C297   C     0.15979   0.82281   0.24535   0.00000  Uiso   1.00
C298   C     0.14834   0.85060   0.18951   0.00000  Uiso   1.00
C299   C     0.09334   0.93178   0.14935   0.00000  Uiso   1.00
H300   H     0.10695   0.87116   0.33578   0.00000  Uiso   1.00
H301   H     0.20737   0.99342   0.43140   0.00000  Uiso   1.00
H302   H     0.07139   0.63914   0.34796   0.00000  Uiso   1.00
H303   H     0.03032   0.99522   0.23222   0.00000  Uiso   1.00
H304   H     0.33722   0.10624   0.53072   0.00000  Uiso   1.00
H305   H     0.05048   0.35922   0.35477   0.00000  Uiso   1.00
H306   H     0.96389   0.11009   0.11071   0.00000  Uiso   1.00
H307   H     0.24964   0.69628   0.28416   0.00000  Uiso   1.00
H308   H     0.35789   0.80896   0.37695   0.00000  Uiso   1.00
H309   H     0.22191   0.45467   0.29351   0.00000  Uiso   1.00
H310   H     0.18085   0.81076   0.17777   0.00000  Uiso   1.00
H311   H     0.45939   0.95652   0.48653   0.00000  Uiso   1.00
H312   H     0.17265   0.20950   0.31057   0.00000  Uiso   1.00
H313   H     0.08606   0.96037   0.06652   0.00000  Uiso   1.00
O314   O     0.46695   0.10862   0.57061   0.00000  Uiso   1.00
O315   O     0.09075   0.12857   0.33975   0.00000  Uiso   1.00
O316   O     0.97714   0.11369   0.01956   0.00000  Uiso   1.00
N317   N     0.35112   0.05556   0.50758   0.00000  Uiso   1.00
N318   N     0.08304   0.35714   0.34308   0.00000  Uiso   1.00
N319   N     0.00207   0.05911   0.11491   0.00000  Uiso   1.00
N320   N     0.41686   0.97500   0.48380   0.00000  Uiso   1.00
N321   N     0.14878   0.27658   0.31930   0.00000  Uiso   1.00
N322   N     0.06781   0.97855   0.09112   0.00000  Uiso   1.00
C323   C     0.86930   0.80456   0.18675   0.00000  Uiso   1.00
C324   C     0.79433   0.84120   0.15374   0.00000  Uiso   1.00
C325   C     0.75735   0.92548   0.10379   0.00000  Uiso   1.00
C326   C     0.68935   0.94628   0.08014   0.00000  Uiso   1.00
C327   C     0.57748   0.01245   0.02498   0.00000  Uiso   1.00
C328   C     0.87142   0.65454   0.18460   0.00000  Uiso   1.00
C329   C     0.89927   0.58188   0.16061   0.00000  Uiso   1.00
C330   C     0.89616   0.44556   0.16296   0.00000  Uiso   1.00
C331   C     0.90402   0.22194   0.15577   0.00000  Uiso   1.00
C332   C     0.90444   0.84054   0.25401   0.00000  Uiso   1.00
C333   C     0.96007   0.92424   0.28839   0.00000  Uiso   1.00
C334   C     0.98479   0.94449   0.34918   0.00000  Uiso   1.00
C335   C     0.04392   0.00966   0.44976   0.00000  Uiso   1.00
C336   C     0.81429   0.69164   0.23359   0.00000  Uiso   1.00
C337   C     0.76445   0.77986   0.17918   0.00000  Uiso   1.00
C338   C     0.69649   0.80054   0.15561   0.00000  Uiso   1.00
C339   C     0.65942   0.88484   0.10563   0.00000  Uiso   1.00
C340   C     0.84154   0.59320   0.21004   0.00000  Uiso   1.00
C341   C     0.83840   0.45695   0.21243   0.00000  Uiso   1.00
C342   C     0.86623   0.38411   0.18845   0.00000  Uiso   1.00
C343   C     0.87456   0.77920   0.27945   0.00000  Uiso   1.00
C344   C     0.89920   0.79931   0.34021   0.00000  Uiso   1.00
C345   C     0.95485   0.88304   0.37467   0.00000  Uiso   1.00
H346   H     0.89256   0.85230   0.16695   0.00000  Uiso   1.00
H347   H     0.78049   0.97291   0.08411   0.00000  Uiso   1.00
H348   H     0.92239   0.62938   0.14094   0.00000  Uiso   1.00
H349   H     0.98318   0.97168   0.26869   0.00000  Uiso   1.00
H350   H     0.64306   0.07955   0.00347   0.00000  Uiso   1.00
H351   H     0.94228   0.35519   0.12331   0.00000  Uiso   1.00
H352   H     0.07047   0.07701   0.39270   0.00000  Uiso   1.00
H353   H     0.79103   0.64388   0.25340   0.00000  Uiso   1.00
H354   H     0.67338   0.75307   0.17530   0.00000  Uiso   1.00
H355   H     0.81528   0.40953   0.23213   0.00000  Uiso   1.00
H356   H     0.87607   0.75183   0.35988   0.00000  Uiso   1.00
H357   H     0.55613   0.90111   0.07748   0.00000  Uiso   1.00
H358   H     0.85535   0.17674   0.19733   0.00000  Uiso   1.00
H359   H     0.98354   0.89857   0.46672   0.00000  Uiso   1.00
O360   O     0.52403   0.06588   0.98753   0.00000  Uiso   1.00
O361   O     0.91661   0.11555   0.14477   0.00000  Uiso   1.00
O362   O     0.08478   0.06256   0.49820   0.00000  Uiso   1.00
N363   N     0.63875   0.02259   0.03161   0.00000  Uiso   1.00
N364   N     0.91849   0.34535   0.14365   0.00000  Uiso   1.00
N365   N     0.03835   0.02017   0.39551   0.00000  Uiso   1.00
N366   N     0.59197   0.92657   0.07144   0.00000  Uiso   1.00
N367   N     0.87171   0.24934   0.18348   0.00000  Uiso   1.00
N368   N     0.99157   0.92415   0.43534   0.00000  Uiso   1.00
