data_job_03946
_audit_creation_date              2018-12-19
_audit_creation_method            'Materials Studio'
_symmetry_space_group_name_H-M    'P1'
_symmetry_Int_Tables_number       1
_symmetry_cell_setting            triclinic
loop_
_symmetry_equiv_pos_as_xyz
  x,y,z
_cell_length_a                    17.6942
_cell_length_b                    17.2993
_cell_length_c                    20.7056
_cell_angle_alpha                 90.0000
_cell_angle_beta                  37.0126
_cell_angle_gamma                 90.0000
loop_
_atom_site_label
_atom_site_type_symbol
_atom_site_fract_x
_atom_site_fract_y
_atom_site_fract_z
_atom_site_U_iso_or_equiv
_atom_site_adp_type
_atom_site_occupancy
C1     C     0.26024   0.40058   0.23175   0.00000  Uiso   1.00
C2     C     0.17463   0.36655   0.34190   0.00000  Uiso   1.00
C3     C     0.16155   0.39401   0.41344   0.00000  Uiso   1.00
C4     C     0.07846   0.35484   0.51011   0.00000  Uiso   1.00
C5     C     0.95585   0.31176   0.67744   0.00000  Uiso   1.00
C6     C     0.34513   0.33469   0.15178   0.00000  Uiso   1.00
C7     C     0.47542   0.33537   0.06346   0.00000  Uiso   1.00
C8     C     0.53585   0.26938   0.00009   0.00000  Uiso   1.00
C9     C     0.67795   0.17685   0.87222   0.00000  Uiso   1.00
C10    C     0.17576   0.41936   0.23205   0.00000  Uiso   1.00
C11    C     0.16365   0.49124   0.21119   0.00000  Uiso   1.00
C12    C     0.08150   0.49653   0.21537   0.00000  Uiso   1.00
C13    C     0.96063   0.53548   0.21213   0.00000  Uiso   1.00
C14    C     0.13591   0.28218   0.27623   0.00000  Uiso   1.00
C15    C     0.10710   0.30224   0.36606   0.00000  Uiso   1.00
C16    C     0.02399   0.26301   0.46265   0.00000  Uiso   1.00
C17    C     0.01080   0.29042   0.53432   0.00000  Uiso   1.00
C18    C     0.27761   0.27038   0.17594   0.00000  Uiso   1.00
C19    C     0.33786   0.20437   0.11268   0.00000  Uiso   1.00
C20    C     0.46820   0.20495   0.02429   0.00000  Uiso   1.00
C21    C     0.10822   0.35505   0.25621   0.00000  Uiso   1.00
C22    C     0.02609   0.36024   0.26041   0.00000  Uiso   1.00
C23    C     0.01385   0.43210   0.23957   0.00000  Uiso   1.00
H24    H     0.31282   0.45065   0.21294   0.00000  Uiso   1.00
H25    H     0.21384   0.44378   0.39471   0.00000  Uiso   1.00
H26    H     0.52765   0.38515   0.04478   0.00000  Uiso   1.00
H27    H     0.21593   0.54099   0.19250   0.00000  Uiso   1.00
H28    H     0.07436   0.40779   0.60687   0.00000  Uiso   1.00
H29    H     0.73604   0.28417   0.86902   0.00000  Uiso   1.00
H30    H     0.07872   0.61279   0.18050   0.00000  Uiso   1.00
H31    H     0.08333   0.23211   0.29504   0.00000  Uiso   1.00
H32    H     0.97175   0.21325   0.48132   0.00000  Uiso   1.00
H33    H     0.28557   0.15462   0.13140   0.00000  Uiso   1.00
H34    H     0.97384   0.31046   0.27911   0.00000  Uiso   1.00
H35    H     0.87787   0.22068   0.67717   0.00000  Uiso   1.00
H36    H     0.53956   0.09706   0.93931   0.00000  Uiso   1.00
H37    H     0.88223   0.42568   0.25080   0.00000  Uiso   1.00
O38    O     0.90689   0.30575   0.76306   0.00000  Uiso   1.00
O39    O     0.77499   0.14358   0.79502   0.00000  Uiso   1.00
O40    O     0.91259   0.57472   0.20368   0.00000  Uiso   1.00
N41    N     0.04341   0.36635   0.59786   0.00000  Uiso   1.00
N42    N     0.66205   0.25077   0.90802   0.00000  Uiso   1.00
N43    N     0.04753   0.55800   0.19920   0.00000  Uiso   1.00
N44    N     0.93768   0.26567   0.63569   0.00000  Uiso   1.00
N45    N     0.55632   0.15008   0.94585   0.00000  Uiso   1.00
N46    N     0.94180   0.45732   0.23703   0.00000  Uiso   1.00
C47    C     0.73976   0.90058   0.26825   0.00000  Uiso   1.00
C48    C     0.82537   0.86655   0.15810   0.00000  Uiso   1.00
C49    C     0.83845   0.89401   0.08656   0.00000  Uiso   1.00
C50    C     0.92154   0.85484   0.98989   0.00000  Uiso   1.00
C51    C     0.04415   0.81176   0.82256   0.00000  Uiso   1.00
C52    C     0.65487   0.83469   0.34822   0.00000  Uiso   1.00
C53    C     0.52458   0.83537   0.43654   0.00000  Uiso   1.00
C54    C     0.46415   0.76938   0.49991   0.00000  Uiso   1.00
C55    C     0.32205   0.67685   0.62778   0.00000  Uiso   1.00
C56    C     0.82424   0.91936   0.26795   0.00000  Uiso   1.00
C57    C     0.83635   0.99124   0.28881   0.00000  Uiso   1.00
C58    C     0.91850   0.99653   0.28463   0.00000  Uiso   1.00
C59    C     0.03937   0.03548   0.28787   0.00000  Uiso   1.00
C60    C     0.86409   0.78218   0.22377   0.00000  Uiso   1.00
C61    C     0.89290   0.80224   0.13394   0.00000  Uiso   1.00
C62    C     0.97601   0.76301   0.03735   0.00000  Uiso   1.00
C63    C     0.98920   0.79042   0.96568   0.00000  Uiso   1.00
C64    C     0.72239   0.77038   0.32406   0.00000  Uiso   1.00
C65    C     0.66214   0.70437   0.38732   0.00000  Uiso   1.00
C66    C     0.53180   0.70495   0.47571   0.00000  Uiso   1.00
C67    C     0.89178   0.85505   0.24379   0.00000  Uiso   1.00
C68    C     0.97391   0.86024   0.23959   0.00000  Uiso   1.00
C69    C     0.98615   0.93210   0.26043   0.00000  Uiso   1.00
H70    H     0.68718   0.95065   0.28706   0.00000  Uiso   1.00
H71    H     0.78616   0.94378   0.10529   0.00000  Uiso   1.00
H72    H     0.47235   0.88515   0.45522   0.00000  Uiso   1.00
H73    H     0.78407   0.04099   0.30750   0.00000  Uiso   1.00
H74    H     0.92564   0.90779   0.89313   0.00000  Uiso   1.00
H75    H     0.26396   0.78417   0.63098   0.00000  Uiso   1.00
H76    H     0.92128   0.11279   0.31950   0.00000  Uiso   1.00
H77    H     0.91667   0.73211   0.20496   0.00000  Uiso   1.00
H78    H     0.02825   0.71325   0.01868   0.00000  Uiso   1.00
H79    H     0.71443   0.65462   0.36860   0.00000  Uiso   1.00
H80    H     0.02616   0.81046   0.22089   0.00000  Uiso   1.00
H81    H     0.12213   0.72068   0.82283   0.00000  Uiso   1.00
H82    H     0.46044   0.59706   0.56069   0.00000  Uiso   1.00
H83    H     0.11777   0.92568   0.24920   0.00000  Uiso   1.00
O84    O     0.09311   0.80575   0.73694   0.00000  Uiso   1.00
O85    O     0.22501   0.64358   0.70498   0.00000  Uiso   1.00
O86    O     0.08741   0.07472   0.29632   0.00000  Uiso   1.00
N87    N     0.95659   0.86635   0.90214   0.00000  Uiso   1.00
N88    N     0.33795   0.75077   0.59198   0.00000  Uiso   1.00
N89    N     0.95247   0.05800   0.30080   0.00000  Uiso   1.00
N90    N     0.06232   0.76567   0.86431   0.00000  Uiso   1.00
N91    N     0.44368   0.65008   0.55415   0.00000  Uiso   1.00
N92    N     0.05820   0.95732   0.26297   0.00000  Uiso   1.00
C93    C     0.73976   0.59942   0.76825   0.00000  Uiso   1.00
C94    C     0.82537   0.63345   0.65810   0.00000  Uiso   1.00
C95    C     0.83845   0.60599   0.58656   0.00000  Uiso   1.00
C96    C     0.92154   0.64516   0.48989   0.00000  Uiso   1.00
C97    C     0.04415   0.68824   0.32256   0.00000  Uiso   1.00
C98    C     0.65487   0.66531   0.84822   0.00000  Uiso   1.00
C99    C     0.52458   0.66463   0.93654   0.00000  Uiso   1.00
C100   C     0.46415   0.73062   0.99991   0.00000  Uiso   1.00
C101   C     0.32205   0.82315   0.12778   0.00000  Uiso   1.00
C102   C     0.82424   0.58064   0.76795   0.00000  Uiso   1.00
C103   C     0.83635   0.50876   0.78881   0.00000  Uiso   1.00
C104   C     0.91850   0.50347   0.78463   0.00000  Uiso   1.00
C105   C     0.03937   0.46452   0.78787   0.00000  Uiso   1.00
C106   C     0.86409   0.71782   0.72377   0.00000  Uiso   1.00
C107   C     0.89290   0.69776   0.63394   0.00000  Uiso   1.00
C108   C     0.97601   0.73699   0.53735   0.00000  Uiso   1.00
C109   C     0.98920   0.70958   0.46568   0.00000  Uiso   1.00
C110   C     0.72239   0.72962   0.82406   0.00000  Uiso   1.00
C111   C     0.66214   0.79563   0.88732   0.00000  Uiso   1.00
C112   C     0.53180   0.79505   0.97571   0.00000  Uiso   1.00
C113   C     0.89178   0.64495   0.74379   0.00000  Uiso   1.00
C114   C     0.97391   0.63976   0.73959   0.00000  Uiso   1.00
C115   C     0.98615   0.56790   0.76043   0.00000  Uiso   1.00
H116   H     0.68718   0.54935   0.78706   0.00000  Uiso   1.00
H117   H     0.78616   0.55622   0.60529   0.00000  Uiso   1.00
H118   H     0.47235   0.61485   0.95522   0.00000  Uiso   1.00
H119   H     0.78407   0.45901   0.80750   0.00000  Uiso   1.00
H120   H     0.92564   0.59221   0.39313   0.00000  Uiso   1.00
H121   H     0.26396   0.71583   0.13098   0.00000  Uiso   1.00
H122   H     0.92128   0.38721   0.81950   0.00000  Uiso   1.00
H123   H     0.91667   0.76789   0.70496   0.00000  Uiso   1.00
H124   H     0.02825   0.78675   0.51868   0.00000  Uiso   1.00
H125   H     0.71443   0.84538   0.86860   0.00000  Uiso   1.00
H126   H     0.02616   0.68954   0.72089   0.00000  Uiso   1.00
H127   H     0.12213   0.77932   0.32283   0.00000  Uiso   1.00
H128   H     0.46044   0.90294   0.06069   0.00000  Uiso   1.00
H129   H     0.11777   0.57432   0.74920   0.00000  Uiso   1.00
O130   O     0.09311   0.69425   0.23694   0.00000  Uiso   1.00
O131   O     0.22501   0.85642   0.20498   0.00000  Uiso   1.00
O132   O     0.08741   0.42528   0.79632   0.00000  Uiso   1.00
N133   N     0.95659   0.63365   0.40214   0.00000  Uiso   1.00
N134   N     0.33795   0.74923   0.09198   0.00000  Uiso   1.00
N135   N     0.95247   0.44200   0.80080   0.00000  Uiso   1.00
N136   N     0.06232   0.73433   0.36431   0.00000  Uiso   1.00
N137   N     0.44368   0.84992   0.05415   0.00000  Uiso   1.00
N138   N     0.05820   0.54268   0.76297   0.00000  Uiso   1.00
C139   C     0.26024   0.09942   0.73175   0.00000  Uiso   1.00
C140   C     0.17463   0.13345   0.84190   0.00000  Uiso   1.00
C141   C     0.16155   0.10599   0.91344   0.00000  Uiso   1.00
C142   C     0.07846   0.14516   0.01011   0.00000  Uiso   1.00
C143   C     0.95585   0.18824   0.17744   0.00000  Uiso   1.00
C144   C     0.34513   0.16531   0.65178   0.00000  Uiso   1.00
C145   C     0.47542   0.16463   0.56346   0.00000  Uiso   1.00
C146   C     0.53585   0.23062   0.50009   0.00000  Uiso   1.00
C147   C     0.67795   0.32315   0.37222   0.00000  Uiso   1.00
C148   C     0.17576   0.08064   0.73205   0.00000  Uiso   1.00
C149   C     0.16365   0.00876   0.71119   0.00000  Uiso   1.00
C150   C     0.08150   0.00347   0.71537   0.00000  Uiso   1.00
C151   C     0.96063   0.96452   0.71213   0.00000  Uiso   1.00
C152   C     0.13591   0.21782   0.77623   0.00000  Uiso   1.00
C153   C     0.10710   0.19776   0.86606   0.00000  Uiso   1.00
C154   C     0.02399   0.23699   0.96265   0.00000  Uiso   1.00
C155   C     0.01080   0.20958   0.03432   0.00000  Uiso   1.00
C156   C     0.27761   0.22962   0.67594   0.00000  Uiso   1.00
C157   C     0.33786   0.29563   0.61268   0.00000  Uiso   1.00
C158   C     0.46820   0.29505   0.52429   0.00000  Uiso   1.00
C159   C     0.10822   0.14495   0.75621   0.00000  Uiso   1.00
C160   C     0.02609   0.13976   0.76041   0.00000  Uiso   1.00
C161   C     0.01385   0.06790   0.73957   0.00000  Uiso   1.00
H162   H     0.31282   0.04935   0.71294   0.00000  Uiso   1.00
H163   H     0.21384   0.05622   0.89471   0.00000  Uiso   1.00
H164   H     0.52765   0.11485   0.54478   0.00000  Uiso   1.00
H165   H     0.21593   0.95901   0.69250   0.00000  Uiso   1.00
H166   H     0.07436   0.09221   0.10687   0.00000  Uiso   1.00
H167   H     0.73604   0.21583   0.36902   0.00000  Uiso   1.00
H168   H     0.07872   0.88721   0.68050   0.00000  Uiso   1.00
H169   H     0.08333   0.26789   0.79504   0.00000  Uiso   1.00
H170   H     0.97175   0.28675   0.98132   0.00000  Uiso   1.00
H171   H     0.28557   0.34538   0.63140   0.00000  Uiso   1.00
H172   H     0.97384   0.18954   0.77911   0.00000  Uiso   1.00
H173   H     0.87787   0.27932   0.17717   0.00000  Uiso   1.00
H174   H     0.53956   0.40294   0.43931   0.00000  Uiso   1.00
H175   H     0.88223   0.07432   0.75080   0.00000  Uiso   1.00
O176   O     0.90689   0.19425   0.26306   0.00000  Uiso   1.00
O177   O     0.77499   0.35642   0.29502   0.00000  Uiso   1.00
O178   O     0.91259   0.92528   0.70368   0.00000  Uiso   1.00
N179   N     0.04341   0.13365   0.09786   0.00000  Uiso   1.00
N180   N     0.66205   0.24923   0.40802   0.00000  Uiso   1.00
N181   N     0.04753   0.94200   0.69920   0.00000  Uiso   1.00
N182   N     0.93768   0.23433   0.13569   0.00000  Uiso   1.00
N183   N     0.55632   0.34992   0.44585   0.00000  Uiso   1.00
N184   N     0.94180   0.04268   0.73703   0.00000  Uiso   1.00
