data_job_01417
_audit_creation_date              2018-12-19
_audit_creation_method            'Materials Studio'
_symmetry_space_group_name_H-M    'P1'
_symmetry_Int_Tables_number       1
_symmetry_cell_setting            triclinic
loop_
_symmetry_equiv_pos_as_xyz
  x,y,z
_cell_length_a                    22.1970
_cell_length_b                    19.9591
_cell_length_c                    12.2017
_cell_angle_alpha                 90.0000
_cell_angle_beta                  90.0000
_cell_angle_gamma                 90.0000
loop_
_atom_site_label
_atom_site_type_symbol
_atom_site_fract_x
_atom_site_fract_y
_atom_site_fract_z
_atom_site_U_iso_or_equiv
_atom_site_adp_type
_atom_site_occupancy
C1     C     0.56268   0.45201   0.22107   0.00000  Uiso   1.00
C2     C     0.59901   0.51494   0.24667   0.00000  Uiso   1.00
C3     C     0.57810   0.58030   0.23916   0.00000  Uiso   1.00
C4     C     0.61834   0.63095   0.26613   0.00000  Uiso   1.00
C5     C     0.66578   0.73084   0.30076   0.00000  Uiso   1.00
C6     C     0.59842   0.41407   0.13424   0.00000  Uiso   1.00
C7     C     0.57702   0.39461   0.03221   0.00000  Uiso   1.00
C8     C     0.61675   0.36034   0.96455   0.00000  Uiso   1.00
C9     C     0.66327   0.30358   0.82466   0.00000  Uiso   1.00
C10    C     0.56505   0.40899   0.32427   0.00000  Uiso   1.00
C11    C     0.51559   0.38526   0.38201   0.00000  Uiso   1.00
C12    C     0.52724   0.34670   0.47432   0.00000  Uiso   1.00
C13    C     0.52194   0.28207   0.62948   0.00000  Uiso   1.00
C14    C     0.67131   0.42571   0.28231   0.00000  Uiso   1.00
C15    C     0.65801   0.50065   0.27993   0.00000  Uiso   1.00
C16    C     0.69829   0.55121   0.30692   0.00000  Uiso   1.00
C17    C     0.67744   0.61664   0.29946   0.00000  Uiso   1.00
C18    C     0.65742   0.39978   0.16750   0.00000  Uiso   1.00
C19    C     0.69720   0.36552   0.09997   0.00000  Uiso   1.00
C20    C     0.67586   0.34603   0.99787   0.00000  Uiso   1.00
C21    C     0.62405   0.39471   0.35754   0.00000  Uiso   1.00
C22    C     0.63578   0.35617   0.44977   0.00000  Uiso   1.00
C23    C     0.58634   0.33239   0.50764   0.00000  Uiso   1.00
H24    H     0.51675   0.46312   0.19517   0.00000  Uiso   1.00
H25    H     0.53244   0.59134   0.21341   0.00000  Uiso   1.00
H26    H     0.53135   0.40567   0.00650   0.00000  Uiso   1.00
H27    H     0.46994   0.39633   0.35624   0.00000  Uiso   1.00
H28    H     0.57587   0.72719   0.24826   0.00000  Uiso   1.00
H29    H     0.57357   0.33568   0.81200   0.00000  Uiso   1.00
H30    H     0.44406   0.31597   0.54950   0.00000  Uiso   1.00
H31    H     0.71724   0.41459   0.30821   0.00000  Uiso   1.00
H32    H     0.74394   0.54014   0.33266   0.00000  Uiso   1.00
H33    H     0.74285   0.35447   0.12574   0.00000  Uiso   1.00
H34    H     0.68144   0.34513   0.47549   0.00000  Uiso   1.00
H35    H     0.74753   0.68564   0.34504   0.00000  Uiso   1.00
H36    H     0.74523   0.29412   0.90878   0.00000  Uiso   1.00
H37    H     0.61573   0.27442   0.64628   0.00000  Uiso   1.00
O38    O     0.67565   0.78988   0.31066   0.00000  Uiso   1.00
O39    O     0.67263   0.27623   0.73831   0.00000  Uiso   1.00
O40    O     0.50272   0.25038   0.70589   0.00000  Uiso   1.00
N41    N     0.61260   0.70018   0.26770   0.00000  Uiso   1.00
N42    N     0.61045   0.33415   0.85982   0.00000  Uiso   1.00
N43    N     0.48938   0.31571   0.54930   0.00000  Uiso   1.00
N44    N     0.70497   0.67782   0.31978   0.00000  Uiso   1.00
N45    N     0.70282   0.31179   0.91190   0.00000  Uiso   1.00
N46    N     0.58175   0.29335   0.60138   0.00000  Uiso   1.00
C47    C     0.93732   0.04799   0.22107   0.00000  Uiso   1.00
C48    C     0.90099   0.98506   0.24667   0.00000  Uiso   1.00
C49    C     0.92190   0.91970   0.23916   0.00000  Uiso   1.00
C50    C     0.88166   0.86905   0.26613   0.00000  Uiso   1.00
C51    C     0.83422   0.76916   0.30076   0.00000  Uiso   1.00
C52    C     0.90158   0.08593   0.13424   0.00000  Uiso   1.00
C53    C     0.92298   0.10539   0.03221   0.00000  Uiso   1.00
C54    C     0.88325   0.13966   0.96455   0.00000  Uiso   1.00
C55    C     0.83673   0.19642   0.82466   0.00000  Uiso   1.00
C56    C     0.93495   0.09101   0.32427   0.00000  Uiso   1.00
C57    C     0.98441   0.11474   0.38201   0.00000  Uiso   1.00
C58    C     0.97276   0.15330   0.47432   0.00000  Uiso   1.00
C59    C     0.97806   0.21793   0.62948   0.00000  Uiso   1.00
C60    C     0.82869   0.07429   0.28231   0.00000  Uiso   1.00
C61    C     0.84199   0.99935   0.27993   0.00000  Uiso   1.00
C62    C     0.80171   0.94879   0.30692   0.00000  Uiso   1.00
C63    C     0.82256   0.88336   0.29946   0.00000  Uiso   1.00
C64    C     0.84258   0.10022   0.16750   0.00000  Uiso   1.00
C65    C     0.80280   0.13448   0.09997   0.00000  Uiso   1.00
C66    C     0.82414   0.15397   0.99787   0.00000  Uiso   1.00
C67    C     0.87595   0.10529   0.35754   0.00000  Uiso   1.00
C68    C     0.86422   0.14383   0.44977   0.00000  Uiso   1.00
C69    C     0.91366   0.16761   0.50764   0.00000  Uiso   1.00
H70    H     0.98325   0.03688   0.19517   0.00000  Uiso   1.00
H71    H     0.96756   0.90866   0.21341   0.00000  Uiso   1.00
H72    H     0.96865   0.09433   0.00650   0.00000  Uiso   1.00
H73    H     0.03006   0.10367   0.35624   0.00000  Uiso   1.00
H74    H     0.92413   0.77281   0.24826   0.00000  Uiso   1.00
H75    H     0.92643   0.16432   0.81200   0.00000  Uiso   1.00
H76    H     0.05594   0.18403   0.54950   0.00000  Uiso   1.00
H77    H     0.78276   0.08541   0.30821   0.00000  Uiso   1.00
H78    H     0.75606   0.95986   0.33266   0.00000  Uiso   1.00
H79    H     0.75715   0.14553   0.12574   0.00000  Uiso   1.00
H80    H     0.81856   0.15487   0.47549   0.00000  Uiso   1.00
H81    H     0.75247   0.81436   0.34504   0.00000  Uiso   1.00
H82    H     0.75477   0.20588   0.90878   0.00000  Uiso   1.00
H83    H     0.88427   0.22558   0.64628   0.00000  Uiso   1.00
O84    O     0.82435   0.71012   0.31066   0.00000  Uiso   1.00
O85    O     0.82737   0.22377   0.73831   0.00000  Uiso   1.00
O86    O     0.99728   0.24962   0.70589   0.00000  Uiso   1.00
N87    N     0.88740   0.79982   0.26770   0.00000  Uiso   1.00
N88    N     0.88955   0.16585   0.85982   0.00000  Uiso   1.00
N89    N     0.01062   0.18429   0.54930   0.00000  Uiso   1.00
N90    N     0.79503   0.82218   0.31978   0.00000  Uiso   1.00
N91    N     0.79718   0.18821   0.91190   0.00000  Uiso   1.00
N92    N     0.91825   0.20665   0.60138   0.00000  Uiso   1.00
C93    C     0.43732   0.95201   0.27893   0.00000  Uiso   1.00
C94    C     0.40099   0.01494   0.25333   0.00000  Uiso   1.00
C95    C     0.42190   0.08030   0.26084   0.00000  Uiso   1.00
C96    C     0.38166   0.13095   0.23387   0.00000  Uiso   1.00
C97    C     0.33422   0.23084   0.19924   0.00000  Uiso   1.00
C98    C     0.40158   0.91407   0.36576   0.00000  Uiso   1.00
C99    C     0.42298   0.89461   0.46779   0.00000  Uiso   1.00
C100   C     0.38325   0.86034   0.53545   0.00000  Uiso   1.00
C101   C     0.33673   0.80358   0.67534   0.00000  Uiso   1.00
C102   C     0.43495   0.90899   0.17573   0.00000  Uiso   1.00
C103   C     0.48441   0.88526   0.11799   0.00000  Uiso   1.00
C104   C     0.47276   0.84670   0.02568   0.00000  Uiso   1.00
C105   C     0.47806   0.78207   0.87052   0.00000  Uiso   1.00
C106   C     0.32869   0.92571   0.21769   0.00000  Uiso   1.00
C107   C     0.34199   0.00065   0.22007   0.00000  Uiso   1.00
C108   C     0.30171   0.05121   0.19308   0.00000  Uiso   1.00
C109   C     0.32256   0.11664   0.20054   0.00000  Uiso   1.00
C110   C     0.34258   0.89978   0.33250   0.00000  Uiso   1.00
C111   C     0.30280   0.86552   0.40003   0.00000  Uiso   1.00
C112   C     0.32414   0.84603   0.50213   0.00000  Uiso   1.00
C113   C     0.37595   0.89471   0.14246   0.00000  Uiso   1.00
C114   C     0.36422   0.85617   0.05023   0.00000  Uiso   1.00
C115   C     0.41366   0.83239   0.99236   0.00000  Uiso   1.00
H116   H     0.48325   0.96312   0.30483   0.00000  Uiso   1.00
H117   H     0.46756   0.09134   0.28659   0.00000  Uiso   1.00
H118   H     0.46865   0.90567   0.49350   0.00000  Uiso   1.00
H119   H     0.53006   0.89633   0.14376   0.00000  Uiso   1.00
H120   H     0.42413   0.22719   0.25174   0.00000  Uiso   1.00
H121   H     0.42643   0.83568   0.68800   0.00000  Uiso   1.00
H122   H     0.55594   0.81597   0.95050   0.00000  Uiso   1.00
H123   H     0.28276   0.91459   0.19179   0.00000  Uiso   1.00
H124   H     0.25606   0.04014   0.16734   0.00000  Uiso   1.00
H125   H     0.25715   0.85447   0.37426   0.00000  Uiso   1.00
H126   H     0.31856   0.84513   0.02451   0.00000  Uiso   1.00
H127   H     0.25247   0.18564   0.15496   0.00000  Uiso   1.00
H128   H     0.25477   0.79412   0.59122   0.00000  Uiso   1.00
H129   H     0.38427   0.77442   0.85372   0.00000  Uiso   1.00
O130   O     0.32435   0.28988   0.18934   0.00000  Uiso   1.00
O131   O     0.32737   0.77623   0.76169   0.00000  Uiso   1.00
O132   O     0.49728   0.75038   0.79411   0.00000  Uiso   1.00
N133   N     0.38740   0.20018   0.23230   0.00000  Uiso   1.00
N134   N     0.38955   0.83415   0.64018   0.00000  Uiso   1.00
N135   N     0.51062   0.81571   0.95070   0.00000  Uiso   1.00
N136   N     0.29503   0.17782   0.18022   0.00000  Uiso   1.00
N137   N     0.29718   0.81179   0.58810   0.00000  Uiso   1.00
N138   N     0.41825   0.79335   0.89862   0.00000  Uiso   1.00
C139   C     0.06268   0.54799   0.27893   0.00000  Uiso   1.00
C140   C     0.09901   0.48506   0.25333   0.00000  Uiso   1.00
C141   C     0.07810   0.41970   0.26084   0.00000  Uiso   1.00
C142   C     0.11834   0.36905   0.23387   0.00000  Uiso   1.00
C143   C     0.16578   0.26916   0.19924   0.00000  Uiso   1.00
C144   C     0.09842   0.58593   0.36576   0.00000  Uiso   1.00
C145   C     0.07702   0.60539   0.46779   0.00000  Uiso   1.00
C146   C     0.11675   0.63966   0.53545   0.00000  Uiso   1.00
C147   C     0.16327   0.69642   0.67534   0.00000  Uiso   1.00
C148   C     0.06505   0.59101   0.17573   0.00000  Uiso   1.00
C149   C     0.01559   0.61474   0.11799   0.00000  Uiso   1.00
C150   C     0.02724   0.65330   0.02568   0.00000  Uiso   1.00
C151   C     0.02194   0.71793   0.87052   0.00000  Uiso   1.00
C152   C     0.17131   0.57429   0.21769   0.00000  Uiso   1.00
C153   C     0.15801   0.49935   0.22007   0.00000  Uiso   1.00
C154   C     0.19829   0.44879   0.19308   0.00000  Uiso   1.00
C155   C     0.17744   0.38336   0.20054   0.00000  Uiso   1.00
C156   C     0.15742   0.60022   0.33250   0.00000  Uiso   1.00
C157   C     0.19720   0.63448   0.40003   0.00000  Uiso   1.00
C158   C     0.17586   0.65397   0.50213   0.00000  Uiso   1.00
C159   C     0.12405   0.60529   0.14246   0.00000  Uiso   1.00
C160   C     0.13578   0.64383   0.05023   0.00000  Uiso   1.00
C161   C     0.08634   0.66761   0.99236   0.00000  Uiso   1.00
H162   H     0.01675   0.53688   0.30483   0.00000  Uiso   1.00
H163   H     0.03244   0.40866   0.28659   0.00000  Uiso   1.00
H164   H     0.03135   0.59433   0.49350   0.00000  Uiso   1.00
H165   H     0.96994   0.60367   0.14376   0.00000  Uiso   1.00
H166   H     0.07587   0.27281   0.25174   0.00000  Uiso   1.00
H167   H     0.07357   0.66432   0.68800   0.00000  Uiso   1.00
H168   H     0.94406   0.68403   0.95050   0.00000  Uiso   1.00
H169   H     0.21724   0.58541   0.19179   0.00000  Uiso   1.00
H170   H     0.24394   0.45986   0.16734   0.00000  Uiso   1.00
H171   H     0.24285   0.64553   0.37426   0.00000  Uiso   1.00
H172   H     0.18144   0.65487   0.02451   0.00000  Uiso   1.00
H173   H     0.24753   0.31436   0.15496   0.00000  Uiso   1.00
H174   H     0.24523   0.70588   0.59122   0.00000  Uiso   1.00
H175   H     0.11573   0.72558   0.85372   0.00000  Uiso   1.00
O176   O     0.17565   0.21012   0.18934   0.00000  Uiso   1.00
O177   O     0.17263   0.72377   0.76169   0.00000  Uiso   1.00
O178   O     0.00272   0.74962   0.79411   0.00000  Uiso   1.00
N179   N     0.11260   0.29982   0.23230   0.00000  Uiso   1.00
N180   N     0.11045   0.66585   0.64018   0.00000  Uiso   1.00
N181   N     0.98938   0.68429   0.95070   0.00000  Uiso   1.00
N182   N     0.20497   0.32218   0.18022   0.00000  Uiso   1.00
N183   N     0.20282   0.68821   0.58810   0.00000  Uiso   1.00
N184   N     0.08175   0.70665   0.89862   0.00000  Uiso   1.00
C185   C     0.43732   0.54799   0.77893   0.00000  Uiso   1.00
C186   C     0.40099   0.48506   0.75333   0.00000  Uiso   1.00
C187   C     0.42190   0.41970   0.76084   0.00000  Uiso   1.00
C188   C     0.38166   0.36905   0.73387   0.00000  Uiso   1.00
C189   C     0.33422   0.26916   0.69924   0.00000  Uiso   1.00
C190   C     0.40158   0.58593   0.86576   0.00000  Uiso   1.00
C191   C     0.42298   0.60539   0.96779   0.00000  Uiso   1.00
C192   C     0.38325   0.63966   0.03545   0.00000  Uiso   1.00
C193   C     0.33673   0.69642   0.17534   0.00000  Uiso   1.00
C194   C     0.43495   0.59101   0.67573   0.00000  Uiso   1.00
C195   C     0.48441   0.61474   0.61799   0.00000  Uiso   1.00
C196   C     0.47276   0.65330   0.52568   0.00000  Uiso   1.00
C197   C     0.47806   0.71793   0.37052   0.00000  Uiso   1.00
C198   C     0.32869   0.57429   0.71769   0.00000  Uiso   1.00
C199   C     0.34199   0.49935   0.72007   0.00000  Uiso   1.00
C200   C     0.30171   0.44879   0.69308   0.00000  Uiso   1.00
C201   C     0.32256   0.38336   0.70054   0.00000  Uiso   1.00
C202   C     0.34258   0.60022   0.83250   0.00000  Uiso   1.00
C203   C     0.30280   0.63448   0.90003   0.00000  Uiso   1.00
C204   C     0.32414   0.65397   0.00213   0.00000  Uiso   1.00
C205   C     0.37595   0.60529   0.64246   0.00000  Uiso   1.00
C206   C     0.36422   0.64383   0.55023   0.00000  Uiso   1.00
C207   C     0.41366   0.66761   0.49236   0.00000  Uiso   1.00
H208   H     0.48325   0.53688   0.80483   0.00000  Uiso   1.00
H209   H     0.46756   0.40866   0.78659   0.00000  Uiso   1.00
H210   H     0.46865   0.59433   0.99350   0.00000  Uiso   1.00
H211   H     0.53006   0.60367   0.64376   0.00000  Uiso   1.00
H212   H     0.42413   0.27281   0.75174   0.00000  Uiso   1.00
H213   H     0.42643   0.66432   0.18800   0.00000  Uiso   1.00
H214   H     0.55594   0.68403   0.45050   0.00000  Uiso   1.00
H215   H     0.28276   0.58541   0.69179   0.00000  Uiso   1.00
H216   H     0.25606   0.45986   0.66734   0.00000  Uiso   1.00
H217   H     0.25715   0.64553   0.87426   0.00000  Uiso   1.00
H218   H     0.31856   0.65487   0.52451   0.00000  Uiso   1.00
H219   H     0.25247   0.31436   0.65496   0.00000  Uiso   1.00
H220   H     0.25477   0.70588   0.09122   0.00000  Uiso   1.00
H221   H     0.38427   0.72558   0.35372   0.00000  Uiso   1.00
O222   O     0.32435   0.21012   0.68934   0.00000  Uiso   1.00
O223   O     0.32737   0.72377   0.26169   0.00000  Uiso   1.00
O224   O     0.49728   0.74962   0.29411   0.00000  Uiso   1.00
N225   N     0.38740   0.29982   0.73230   0.00000  Uiso   1.00
N226   N     0.38955   0.66585   0.14018   0.00000  Uiso   1.00
N227   N     0.51062   0.68429   0.45070   0.00000  Uiso   1.00
N228   N     0.29503   0.32218   0.68022   0.00000  Uiso   1.00
N229   N     0.29718   0.68821   0.08810   0.00000  Uiso   1.00
N230   N     0.41825   0.70665   0.39862   0.00000  Uiso   1.00
C231   C     0.06268   0.95201   0.77893   0.00000  Uiso   1.00
C232   C     0.09901   0.01494   0.75333   0.00000  Uiso   1.00
C233   C     0.07810   0.08030   0.76084   0.00000  Uiso   1.00
C234   C     0.11834   0.13095   0.73387   0.00000  Uiso   1.00
C235   C     0.16578   0.23084   0.69924   0.00000  Uiso   1.00
C236   C     0.09842   0.91407   0.86576   0.00000  Uiso   1.00
C237   C     0.07702   0.89461   0.96779   0.00000  Uiso   1.00
C238   C     0.11675   0.86034   0.03545   0.00000  Uiso   1.00
C239   C     0.16327   0.80358   0.17534   0.00000  Uiso   1.00
C240   C     0.06505   0.90899   0.67573   0.00000  Uiso   1.00
C241   C     0.01559   0.88526   0.61799   0.00000  Uiso   1.00
C242   C     0.02724   0.84670   0.52568   0.00000  Uiso   1.00
C243   C     0.02194   0.78207   0.37052   0.00000  Uiso   1.00
C244   C     0.17131   0.92571   0.71769   0.00000  Uiso   1.00
C245   C     0.15801   0.00065   0.72007   0.00000  Uiso   1.00
C246   C     0.19829   0.05121   0.69308   0.00000  Uiso   1.00
C247   C     0.17744   0.11664   0.70054   0.00000  Uiso   1.00
C248   C     0.15742   0.89978   0.83250   0.00000  Uiso   1.00
C249   C     0.19720   0.86552   0.90003   0.00000  Uiso   1.00
C250   C     0.17586   0.84603   0.00213   0.00000  Uiso   1.00
C251   C     0.12405   0.89471   0.64246   0.00000  Uiso   1.00
C252   C     0.13578   0.85617   0.55023   0.00000  Uiso   1.00
C253   C     0.08634   0.83239   0.49236   0.00000  Uiso   1.00
H254   H     0.01675   0.96312   0.80483   0.00000  Uiso   1.00
H255   H     0.03244   0.09134   0.78659   0.00000  Uiso   1.00
H256   H     0.03135   0.90567   0.99350   0.00000  Uiso   1.00
H257   H     0.96994   0.89633   0.64376   0.00000  Uiso   1.00
H258   H     0.07587   0.22719   0.75174   0.00000  Uiso   1.00
H259   H     0.07357   0.83568   0.18800   0.00000  Uiso   1.00
H260   H     0.94406   0.81597   0.45050   0.00000  Uiso   1.00
H261   H     0.21724   0.91459   0.69179   0.00000  Uiso   1.00
H262   H     0.24394   0.04014   0.66734   0.00000  Uiso   1.00
H263   H     0.24285   0.85447   0.87426   0.00000  Uiso   1.00
H264   H     0.18144   0.84513   0.52451   0.00000  Uiso   1.00
H265   H     0.24753   0.18564   0.65496   0.00000  Uiso   1.00
H266   H     0.24523   0.79412   0.09122   0.00000  Uiso   1.00
H267   H     0.11573   0.77442   0.35372   0.00000  Uiso   1.00
O268   O     0.17565   0.28988   0.68934   0.00000  Uiso   1.00
O269   O     0.17263   0.77623   0.26169   0.00000  Uiso   1.00
O270   O     0.00272   0.75038   0.29411   0.00000  Uiso   1.00
N271   N     0.11260   0.20018   0.73230   0.00000  Uiso   1.00
N272   N     0.11045   0.83415   0.14018   0.00000  Uiso   1.00
N273   N     0.98938   0.81571   0.45070   0.00000  Uiso   1.00
N274   N     0.20497   0.17782   0.68022   0.00000  Uiso   1.00
N275   N     0.20282   0.81179   0.08810   0.00000  Uiso   1.00
N276   N     0.08175   0.79335   0.39862   0.00000  Uiso   1.00
C277   C     0.56268   0.04799   0.72107   0.00000  Uiso   1.00
C278   C     0.59901   0.98506   0.74667   0.00000  Uiso   1.00
C279   C     0.57810   0.91970   0.73916   0.00000  Uiso   1.00
C280   C     0.61834   0.86905   0.76613   0.00000  Uiso   1.00
C281   C     0.66578   0.76916   0.80076   0.00000  Uiso   1.00
C282   C     0.59842   0.08593   0.63424   0.00000  Uiso   1.00
C283   C     0.57702   0.10539   0.53221   0.00000  Uiso   1.00
C284   C     0.61675   0.13966   0.46455   0.00000  Uiso   1.00
C285   C     0.66327   0.19642   0.32466   0.00000  Uiso   1.00
C286   C     0.56505   0.09101   0.82427   0.00000  Uiso   1.00
C287   C     0.51559   0.11474   0.88201   0.00000  Uiso   1.00
C288   C     0.52724   0.15330   0.97432   0.00000  Uiso   1.00
C289   C     0.52194   0.21793   0.12948   0.00000  Uiso   1.00
C290   C     0.67131   0.07429   0.78231   0.00000  Uiso   1.00
C291   C     0.65801   0.99935   0.77993   0.00000  Uiso   1.00
C292   C     0.69829   0.94879   0.80692   0.00000  Uiso   1.00
C293   C     0.67744   0.88336   0.79946   0.00000  Uiso   1.00
C294   C     0.65742   0.10022   0.66750   0.00000  Uiso   1.00
C295   C     0.69720   0.13448   0.59997   0.00000  Uiso   1.00
C296   C     0.67586   0.15397   0.49787   0.00000  Uiso   1.00
C297   C     0.62405   0.10529   0.85754   0.00000  Uiso   1.00
C298   C     0.63578   0.14383   0.94977   0.00000  Uiso   1.00
C299   C     0.58634   0.16761   0.00764   0.00000  Uiso   1.00
H300   H     0.51675   0.03688   0.69517   0.00000  Uiso   1.00
H301   H     0.53244   0.90866   0.71341   0.00000  Uiso   1.00
H302   H     0.53135   0.09433   0.50650   0.00000  Uiso   1.00
H303   H     0.46994   0.10367   0.85624   0.00000  Uiso   1.00
H304   H     0.57587   0.77281   0.74826   0.00000  Uiso   1.00
H305   H     0.57357   0.16432   0.31200   0.00000  Uiso   1.00
H306   H     0.44406   0.18403   0.04950   0.00000  Uiso   1.00
H307   H     0.71724   0.08541   0.80821   0.00000  Uiso   1.00
H308   H     0.74394   0.95986   0.83266   0.00000  Uiso   1.00
H309   H     0.74285   0.14553   0.62574   0.00000  Uiso   1.00
H310   H     0.68144   0.15487   0.97549   0.00000  Uiso   1.00
H311   H     0.74753   0.81436   0.84504   0.00000  Uiso   1.00
H312   H     0.74523   0.20588   0.40878   0.00000  Uiso   1.00
H313   H     0.61573   0.22558   0.14628   0.00000  Uiso   1.00
O314   O     0.67565   0.71012   0.81066   0.00000  Uiso   1.00
O315   O     0.67263   0.22377   0.23831   0.00000  Uiso   1.00
O316   O     0.50272   0.24962   0.20589   0.00000  Uiso   1.00
N317   N     0.61260   0.79982   0.76770   0.00000  Uiso   1.00
N318   N     0.61045   0.16585   0.35982   0.00000  Uiso   1.00
N319   N     0.48938   0.18429   0.04930   0.00000  Uiso   1.00
N320   N     0.70497   0.82218   0.81978   0.00000  Uiso   1.00
N321   N     0.70282   0.18821   0.41190   0.00000  Uiso   1.00
N322   N     0.58175   0.20665   0.10138   0.00000  Uiso   1.00
C323   C     0.93732   0.45201   0.72107   0.00000  Uiso   1.00
C324   C     0.90099   0.51494   0.74667   0.00000  Uiso   1.00
C325   C     0.92190   0.58030   0.73916   0.00000  Uiso   1.00
C326   C     0.88166   0.63095   0.76613   0.00000  Uiso   1.00
C327   C     0.83422   0.73084   0.80076   0.00000  Uiso   1.00
C328   C     0.90158   0.41407   0.63424   0.00000  Uiso   1.00
C329   C     0.92298   0.39461   0.53221   0.00000  Uiso   1.00
C330   C     0.88325   0.36034   0.46455   0.00000  Uiso   1.00
C331   C     0.83673   0.30358   0.32466   0.00000  Uiso   1.00
C332   C     0.93495   0.40899   0.82427   0.00000  Uiso   1.00
C333   C     0.98441   0.38526   0.88201   0.00000  Uiso   1.00
C334   C     0.97276   0.34670   0.97432   0.00000  Uiso   1.00
C335   C     0.97806   0.28207   0.12948   0.00000  Uiso   1.00
C336   C     0.82869   0.42571   0.78231   0.00000  Uiso   1.00
C337   C     0.84199   0.50065   0.77993   0.00000  Uiso   1.00
C338   C     0.80171   0.55121   0.80692   0.00000  Uiso   1.00
C339   C     0.82256   0.61664   0.79946   0.00000  Uiso   1.00
C340   C     0.84258   0.39978   0.66750   0.00000  Uiso   1.00
C341   C     0.80280   0.36552   0.59997   0.00000  Uiso   1.00
C342   C     0.82414   0.34603   0.49787   0.00000  Uiso   1.00
C343   C     0.87595   0.39471   0.85754   0.00000  Uiso   1.00
C344   C     0.86422   0.35617   0.94977   0.00000  Uiso   1.00
C345   C     0.91366   0.33239   0.00764   0.00000  Uiso   1.00
H346   H     0.98325   0.46312   0.69517   0.00000  Uiso   1.00
H347   H     0.96756   0.59134   0.71341   0.00000  Uiso   1.00
H348   H     0.96865   0.40567   0.50650   0.00000  Uiso   1.00
H349   H     0.03006   0.39633   0.85624   0.00000  Uiso   1.00
H350   H     0.92413   0.72719   0.74826   0.00000  Uiso   1.00
H351   H     0.92643   0.33568   0.31200   0.00000  Uiso   1.00
H352   H     0.05594   0.31597   0.04950   0.00000  Uiso   1.00
H353   H     0.78276   0.41459   0.80821   0.00000  Uiso   1.00
H354   H     0.75606   0.54014   0.83266   0.00000  Uiso   1.00
H355   H     0.75715   0.35447   0.62574   0.00000  Uiso   1.00
H356   H     0.81856   0.34513   0.97549   0.00000  Uiso   1.00
H357   H     0.75247   0.68564   0.84504   0.00000  Uiso   1.00
H358   H     0.75477   0.29412   0.40878   0.00000  Uiso   1.00
H359   H     0.88427   0.27442   0.14628   0.00000  Uiso   1.00
O360   O     0.82435   0.78988   0.81066   0.00000  Uiso   1.00
O361   O     0.82737   0.27623   0.23831   0.00000  Uiso   1.00
O362   O     0.99728   0.25038   0.20589   0.00000  Uiso   1.00
N363   N     0.88740   0.70018   0.76770   0.00000  Uiso   1.00
N364   N     0.88955   0.33415   0.35982   0.00000  Uiso   1.00
N365   N     0.01062   0.31571   0.04930   0.00000  Uiso   1.00
N366   N     0.79503   0.67782   0.81978   0.00000  Uiso   1.00
N367   N     0.79718   0.31179   0.41190   0.00000  Uiso   1.00
N368   N     0.91825   0.29335   0.10138   0.00000  Uiso   1.00
