data_job_05509
_audit_creation_date              2018-12-19
_audit_creation_method            'Materials Studio'
_symmetry_space_group_name_H-M    'P1'
_symmetry_Int_Tables_number       1
_symmetry_cell_setting            triclinic
loop_
_symmetry_equiv_pos_as_xyz
  x,y,z
_cell_length_a                    31.3074
_cell_length_b                    7.3626
_cell_length_c                    40.5171
_cell_angle_alpha                 90.0000
_cell_angle_beta                  90.0000
_cell_angle_gamma                 90.0000
loop_
_atom_site_label
_atom_site_type_symbol
_atom_site_fract_x
_atom_site_fract_y
_atom_site_fract_z
_atom_site_U_iso_or_equiv
_atom_site_adp_type
_atom_site_occupancy
C1     C     0.77443   0.83818   0.41417   0.00000  Uiso   1.00
C2     C     0.74544   0.69793   0.43047   0.00000  Uiso   1.00
C3     C     0.70610   0.73312   0.44489   0.00000  Uiso   1.00
C4     C     0.68451   0.58635   0.45848   0.00000  Uiso   1.00
C5     C     0.63690   0.39530   0.48392   0.00000  Uiso   1.00
C6     C     0.81729   0.82478   0.43188   0.00000  Uiso   1.00
C7     C     0.83836   0.96665   0.44750   0.00000  Uiso   1.00
C8     C     0.87725   0.92666   0.46227   0.00000  Uiso   1.00
C9     C     0.94121   0.93259   0.48989   0.00000  Uiso   1.00
C10    C     0.78222   0.77031   0.37913   0.00000  Uiso   1.00
C11    C     0.77381   0.86638   0.35039   0.00000  Uiso   1.00
C12    C     0.78318   0.78054   0.32075   0.00000  Uiso   1.00
C13    C     0.79267   0.70189   0.26646   0.00000  Uiso   1.00
C14    C     0.80604   0.51493   0.41265   0.00000  Uiso   1.00
C15    C     0.76262   0.52235   0.42964   0.00000  Uiso   1.00
C16    C     0.74108   0.37549   0.44320   0.00000  Uiso   1.00
C17    C     0.70171   0.41046   0.45765   0.00000  Uiso   1.00
C18    C     0.83446   0.64922   0.43105   0.00000  Uiso   1.00
C19    C     0.87334   0.60901   0.44581   0.00000  Uiso   1.00
C20    C     0.89446   0.75077   0.46144   0.00000  Uiso   1.00
C21    C     0.79939   0.59473   0.37830   0.00000  Uiso   1.00
C22    C     0.80878   0.50874   0.34870   0.00000  Uiso   1.00
C23    C     0.80038   0.60465   0.31991   0.00000  Uiso   1.00
H24    H     0.76106   0.97487   0.41482   0.00000  Uiso   1.00
H25    H     0.69282   0.86902   0.44553   0.00000  Uiso   1.00
H26    H     0.82506   0.10250   0.44813   0.00000  Uiso   1.00
H27    H     0.76052   0.00224   0.35104   0.00000  Uiso   1.00
H28    H     0.62475   0.67425   0.47922   0.00000  Uiso   1.00
H29    H     0.90359   0.16658   0.48470   0.00000  Uiso   1.00
H30    H     0.76748   0.95517   0.27996   0.00000  Uiso   1.00
H31    H     0.81942   0.37823   0.41200   0.00000  Uiso   1.00
H32    H     0.75438   0.23963   0.44256   0.00000  Uiso   1.00
H33    H     0.88662   0.47313   0.44516   0.00000  Uiso   1.00
H34    H     0.82207   0.37287   0.34807   0.00000  Uiso   1.00
H35    H     0.67471   0.16342   0.47681   0.00000  Uiso   1.00
H36    H     0.95356   0.65576   0.48228   0.00000  Uiso   1.00
H37    H     0.81744   0.44434   0.27754   0.00000  Uiso   1.00
O38    O     0.60590   0.33843   0.49818   0.00000  Uiso   1.00
O39    O     0.97174   0.98436   0.50535   0.00000  Uiso   1.00
O40    O     0.79316   0.70699   0.23674   0.00000  Uiso   1.00
N41    N     0.64543   0.57304   0.47446   0.00000  Uiso   1.00
N42    N     0.90613   0.03333   0.47958   0.00000  Uiso   1.00
N43    N     0.77889   0.83570   0.28816   0.00000  Uiso   1.00
N44    N     0.67231   0.29816   0.47316   0.00000  Uiso   1.00
N45    N     0.93301   0.75846   0.47828   0.00000  Uiso   1.00
N46    N     0.80577   0.56083   0.28686   0.00000  Uiso   1.00
C47    C     0.69064   0.84911   0.58076   0.00000  Uiso   1.00
C48    C     0.71907   0.70491   0.56503   0.00000  Uiso   1.00
C49    C     0.75826   0.73594   0.55006   0.00000  Uiso   1.00
C50    C     0.77932   0.58600   0.53714   0.00000  Uiso   1.00
C51    C     0.82612   0.38865   0.51240   0.00000  Uiso   1.00
C52    C     0.64748   0.83441   0.56352   0.00000  Uiso   1.00
C53    C     0.62649   0.97434   0.54728   0.00000  Uiso   1.00
C54    C     0.58729   0.93340   0.53309   0.00000  Uiso   1.00
C55    C     0.52293   0.93715   0.50602   0.00000  Uiso   1.00
C56    C     0.68324   0.78771   0.61624   0.00000  Uiso   1.00
C57    C     0.69230   0.88840   0.64434   0.00000  Uiso   1.00
C58    C     0.68319   0.80817   0.67454   0.00000  Uiso   1.00
C59    C     0.67435   0.73942   0.72934   0.00000  Uiso   1.00
C60    C     0.65834   0.52762   0.58443   0.00000  Uiso   1.00
C61    C     0.70152   0.53028   0.56702   0.00000  Uiso   1.00
C62    C     0.72253   0.38024   0.55412   0.00000  Uiso   1.00
C63    C     0.76175   0.41105   0.53914   0.00000  Uiso   1.00
C64    C     0.62994   0.65979   0.56551   0.00000  Uiso   1.00
C65    C     0.59076   0.61864   0.55135   0.00000  Uiso   1.00
C66    C     0.56971   0.75846   0.53509   0.00000  Uiso   1.00
C67    C     0.66570   0.61309   0.61824   0.00000  Uiso   1.00
C68    C     0.65657   0.53269   0.64841   0.00000  Uiso   1.00
C69    C     0.66562   0.63323   0.67654   0.00000  Uiso   1.00
H70    H     0.70430   0.98507   0.57920   0.00000  Uiso   1.00
H71    H     0.77183   0.87111   0.54852   0.00000  Uiso   1.00
H72    H     0.64007   0.10946   0.54574   0.00000  Uiso   1.00
H73    H     0.70588   0.02353   0.64279   0.00000  Uiso   1.00
H74    H     0.83895   0.66776   0.51536   0.00000  Uiso   1.00
H75    H     0.56114   0.17036   0.50953   0.00000  Uiso   1.00
H76    H     0.69989   0.98916   0.71416   0.00000  Uiso   1.00
H77    H     0.64468   0.39166   0.58599   0.00000  Uiso   1.00
H78    H     0.70895   0.24512   0.55567   0.00000  Uiso   1.00
H79    H     0.57719   0.48349   0.55290   0.00000  Uiso   1.00
H80    H     0.64299   0.39756   0.64994   0.00000  Uiso   1.00
H81    H     0.78791   0.15969   0.52117   0.00000  Uiso   1.00
H82    H     0.51009   0.66230   0.51533   0.00000  Uiso   1.00
H83    H     0.64885   0.48110   0.71997   0.00000  Uiso   1.00
O84    O     0.85677   0.32805   0.49819   0.00000  Uiso   1.00
O85    O     0.49229   0.98746   0.49054   0.00000  Uiso   1.00
O86    O     0.67433   0.74972   0.75902   0.00000  Uiso   1.00
N87    N     0.81812   0.56829   0.52090   0.00000  Uiso   1.00
N88    N     0.55839   0.03819   0.51543   0.00000  Uiso   1.00
N89    N     0.68810   0.86880   0.70675   0.00000  Uiso   1.00
N90    N     0.79066   0.29490   0.52402   0.00000  Uiso   1.00
N91    N     0.53092   0.76480   0.51856   0.00000  Uiso   1.00
N92    N     0.66064   0.59541   0.70988   0.00000  Uiso   1.00
C93    C     0.22557   0.16182   0.91417   0.00000  Uiso   1.00
C94    C     0.25456   0.30207   0.93047   0.00000  Uiso   1.00
C95    C     0.29390   0.26688   0.94489   0.00000  Uiso   1.00
C96    C     0.31549   0.41365   0.95848   0.00000  Uiso   1.00
C97    C     0.36310   0.60470   0.98392   0.00000  Uiso   1.00
C98    C     0.18271   0.17522   0.93188   0.00000  Uiso   1.00
C99    C     0.16164   0.03335   0.94750   0.00000  Uiso   1.00
C100   C     0.12275   0.07334   0.96227   0.00000  Uiso   1.00
C101   C     0.05879   0.06741   0.98989   0.00000  Uiso   1.00
C102   C     0.21778   0.22969   0.87913   0.00000  Uiso   1.00
C103   C     0.22619   0.13362   0.85039   0.00000  Uiso   1.00
C104   C     0.21682   0.21946   0.82075   0.00000  Uiso   1.00
C105   C     0.20733   0.29811   0.76646   0.00000  Uiso   1.00
C106   C     0.19396   0.48507   0.91265   0.00000  Uiso   1.00
C107   C     0.23738   0.47765   0.92964   0.00000  Uiso   1.00
C108   C     0.25892   0.62451   0.94320   0.00000  Uiso   1.00
C109   C     0.29829   0.58954   0.95765   0.00000  Uiso   1.00
C110   C     0.16554   0.35078   0.93105   0.00000  Uiso   1.00
C111   C     0.12666   0.39099   0.94581   0.00000  Uiso   1.00
C112   C     0.10554   0.24923   0.96144   0.00000  Uiso   1.00
C113   C     0.20061   0.40527   0.87830   0.00000  Uiso   1.00
C114   C     0.19122   0.49126   0.84870   0.00000  Uiso   1.00
C115   C     0.19962   0.39535   0.81991   0.00000  Uiso   1.00
H116   H     0.23894   0.02513   0.91482   0.00000  Uiso   1.00
H117   H     0.30718   0.13098   0.94553   0.00000  Uiso   1.00
H118   H     0.17494   0.89750   0.94813   0.00000  Uiso   1.00
H119   H     0.23948   0.99776   0.85104   0.00000  Uiso   1.00
H120   H     0.37525   0.32575   0.97922   0.00000  Uiso   1.00
H121   H     0.09641   0.83342   0.98470   0.00000  Uiso   1.00
H122   H     0.23252   0.04483   0.77996   0.00000  Uiso   1.00
H123   H     0.18058   0.62177   0.91200   0.00000  Uiso   1.00
H124   H     0.24562   0.76037   0.94256   0.00000  Uiso   1.00
H125   H     0.11338   0.52687   0.94516   0.00000  Uiso   1.00
H126   H     0.17793   0.62713   0.84807   0.00000  Uiso   1.00
H127   H     0.32529   0.83658   0.97681   0.00000  Uiso   1.00
H128   H     0.04644   0.34424   0.98228   0.00000  Uiso   1.00
H129   H     0.18256   0.55566   0.77754   0.00000  Uiso   1.00
O130   O     0.39410   0.66157   0.99818   0.00000  Uiso   1.00
O131   O     0.02826   0.01564   0.00535   0.00000  Uiso   1.00
O132   O     0.20684   0.29301   0.73674   0.00000  Uiso   1.00
N133   N     0.35457   0.42696   0.97446   0.00000  Uiso   1.00
N134   N     0.09387   0.96667   0.97958   0.00000  Uiso   1.00
N135   N     0.22111   0.16430   0.78816   0.00000  Uiso   1.00
N136   N     0.32769   0.70184   0.97316   0.00000  Uiso   1.00
N137   N     0.06699   0.24154   0.97828   0.00000  Uiso   1.00
N138   N     0.19423   0.43917   0.78686   0.00000  Uiso   1.00
C139   C     0.30936   0.15089   0.08076   0.00000  Uiso   1.00
C140   C     0.28093   0.29509   0.06503   0.00000  Uiso   1.00
C141   C     0.24174   0.26406   0.05006   0.00000  Uiso   1.00
C142   C     0.22068   0.41400   0.03714   0.00000  Uiso   1.00
C143   C     0.17388   0.61135   0.01240   0.00000  Uiso   1.00
C144   C     0.35252   0.16559   0.06352   0.00000  Uiso   1.00
C145   C     0.37351   0.02566   0.04728   0.00000  Uiso   1.00
C146   C     0.41271   0.06660   0.03309   0.00000  Uiso   1.00
C147   C     0.47707   0.06285   0.00602   0.00000  Uiso   1.00
C148   C     0.31676   0.21229   0.11624   0.00000  Uiso   1.00
C149   C     0.30770   0.11160   0.14434   0.00000  Uiso   1.00
C150   C     0.31681   0.19183   0.17454   0.00000  Uiso   1.00
C151   C     0.32565   0.26058   0.22934   0.00000  Uiso   1.00
C152   C     0.34166   0.47238   0.08443   0.00000  Uiso   1.00
C153   C     0.29848   0.46972   0.06702   0.00000  Uiso   1.00
C154   C     0.27747   0.61976   0.05412   0.00000  Uiso   1.00
C155   C     0.23825   0.58895   0.03914   0.00000  Uiso   1.00
C156   C     0.37006   0.34021   0.06551   0.00000  Uiso   1.00
C157   C     0.40924   0.38136   0.05135   0.00000  Uiso   1.00
C158   C     0.43029   0.24154   0.03509   0.00000  Uiso   1.00
C159   C     0.33430   0.38691   0.11824   0.00000  Uiso   1.00
C160   C     0.34343   0.46731   0.14841   0.00000  Uiso   1.00
C161   C     0.33438   0.36677   0.17654   0.00000  Uiso   1.00
H162   H     0.29570   0.01493   0.07920   0.00000  Uiso   1.00
H163   H     0.22817   0.12889   0.04852   0.00000  Uiso   1.00
H164   H     0.35993   0.89054   0.04574   0.00000  Uiso   1.00
H165   H     0.29412   0.97647   0.14279   0.00000  Uiso   1.00
H166   H     0.16105   0.33224   0.01536   0.00000  Uiso   1.00
H167   H     0.43886   0.82964   0.00953   0.00000  Uiso   1.00
H168   H     0.30011   0.01084   0.21416   0.00000  Uiso   1.00
H169   H     0.35532   0.60834   0.08599   0.00000  Uiso   1.00
H170   H     0.29105   0.75488   0.05567   0.00000  Uiso   1.00
H171   H     0.42281   0.51651   0.05290   0.00000  Uiso   1.00
H172   H     0.35701   0.60244   0.14994   0.00000  Uiso   1.00
H173   H     0.21209   0.84031   0.02117   0.00000  Uiso   1.00
H174   H     0.48991   0.33770   0.01533   0.00000  Uiso   1.00
H175   H     0.35115   0.51890   0.21997   0.00000  Uiso   1.00
O176   O     0.14323   0.67195   0.99819   0.00000  Uiso   1.00
O177   O     0.50771   0.01254   0.99054   0.00000  Uiso   1.00
O178   O     0.32567   0.25028   0.25902   0.00000  Uiso   1.00
N179   N     0.18188   0.43171   0.02090   0.00000  Uiso   1.00
N180   N     0.44161   0.96181   0.01543   0.00000  Uiso   1.00
N181   N     0.31190   0.13120   0.20675   0.00000  Uiso   1.00
N182   N     0.20934   0.70510   0.02402   0.00000  Uiso   1.00
N183   N     0.46908   0.23520   0.01856   0.00000  Uiso   1.00
N184   N     0.33936   0.40459   0.20988   0.00000  Uiso   1.00
C185   C     0.27443   0.66182   0.41417   0.00000  Uiso   1.00
C186   C     0.24544   0.80207   0.43047   0.00000  Uiso   1.00
C187   C     0.20610   0.76688   0.44489   0.00000  Uiso   1.00
C188   C     0.18451   0.91365   0.45848   0.00000  Uiso   1.00
C189   C     0.13690   0.10470   0.48392   0.00000  Uiso   1.00
C190   C     0.31729   0.67522   0.43188   0.00000  Uiso   1.00
C191   C     0.33836   0.53335   0.44750   0.00000  Uiso   1.00
C192   C     0.37725   0.57334   0.46227   0.00000  Uiso   1.00
C193   C     0.44121   0.56741   0.48989   0.00000  Uiso   1.00
C194   C     0.28222   0.72969   0.37913   0.00000  Uiso   1.00
C195   C     0.27381   0.63362   0.35039   0.00000  Uiso   1.00
C196   C     0.28318   0.71946   0.32075   0.00000  Uiso   1.00
C197   C     0.29267   0.79811   0.26646   0.00000  Uiso   1.00
C198   C     0.30604   0.98507   0.41265   0.00000  Uiso   1.00
C199   C     0.26262   0.97765   0.42964   0.00000  Uiso   1.00
C200   C     0.24108   0.12451   0.44320   0.00000  Uiso   1.00
C201   C     0.20171   0.08954   0.45765   0.00000  Uiso   1.00
C202   C     0.33446   0.85078   0.43105   0.00000  Uiso   1.00
C203   C     0.37334   0.89099   0.44581   0.00000  Uiso   1.00
C204   C     0.39446   0.74923   0.46144   0.00000  Uiso   1.00
C205   C     0.29939   0.90527   0.37830   0.00000  Uiso   1.00
C206   C     0.30878   0.99126   0.34870   0.00000  Uiso   1.00
C207   C     0.30038   0.89535   0.31991   0.00000  Uiso   1.00
H208   H     0.26106   0.52513   0.41482   0.00000  Uiso   1.00
H209   H     0.19282   0.63098   0.44553   0.00000  Uiso   1.00
H210   H     0.32506   0.39750   0.44813   0.00000  Uiso   1.00
H211   H     0.26052   0.49776   0.35104   0.00000  Uiso   1.00
H212   H     0.12475   0.82575   0.47922   0.00000  Uiso   1.00
H213   H     0.40359   0.33342   0.48470   0.00000  Uiso   1.00
H214   H     0.26748   0.54483   0.27996   0.00000  Uiso   1.00
H215   H     0.31942   0.12177   0.41200   0.00000  Uiso   1.00
H216   H     0.25438   0.26037   0.44256   0.00000  Uiso   1.00
H217   H     0.38662   0.02687   0.44516   0.00000  Uiso   1.00
H218   H     0.32207   0.12713   0.34807   0.00000  Uiso   1.00
H219   H     0.17471   0.33658   0.47681   0.00000  Uiso   1.00
H220   H     0.45356   0.84424   0.48228   0.00000  Uiso   1.00
H221   H     0.31744   0.05566   0.27754   0.00000  Uiso   1.00
O222   O     0.10590   0.16157   0.49818   0.00000  Uiso   1.00
O223   O     0.47174   0.51564   0.50535   0.00000  Uiso   1.00
O224   O     0.29316   0.79301   0.23674   0.00000  Uiso   1.00
N225   N     0.14543   0.92696   0.47446   0.00000  Uiso   1.00
N226   N     0.40613   0.46667   0.47958   0.00000  Uiso   1.00
N227   N     0.27889   0.66430   0.28816   0.00000  Uiso   1.00
N228   N     0.17231   0.20184   0.47316   0.00000  Uiso   1.00
N229   N     0.43301   0.74154   0.47828   0.00000  Uiso   1.00
N230   N     0.30577   0.93917   0.28686   0.00000  Uiso   1.00
C231   C     0.19064   0.65089   0.58076   0.00000  Uiso   1.00
C232   C     0.21907   0.79509   0.56503   0.00000  Uiso   1.00
C233   C     0.25826   0.76406   0.55006   0.00000  Uiso   1.00
C234   C     0.27932   0.91400   0.53714   0.00000  Uiso   1.00
C235   C     0.32612   0.11135   0.51240   0.00000  Uiso   1.00
C236   C     0.14748   0.66559   0.56352   0.00000  Uiso   1.00
C237   C     0.12649   0.52566   0.54728   0.00000  Uiso   1.00
C238   C     0.08729   0.56660   0.53309   0.00000  Uiso   1.00
C239   C     0.02293   0.56285   0.50602   0.00000  Uiso   1.00
C240   C     0.18324   0.71229   0.61624   0.00000  Uiso   1.00
C241   C     0.19230   0.61160   0.64434   0.00000  Uiso   1.00
C242   C     0.18319   0.69183   0.67454   0.00000  Uiso   1.00
C243   C     0.17435   0.76058   0.72934   0.00000  Uiso   1.00
C244   C     0.15834   0.97238   0.58443   0.00000  Uiso   1.00
C245   C     0.20152   0.96972   0.56702   0.00000  Uiso   1.00
C246   C     0.22253   0.11976   0.55412   0.00000  Uiso   1.00
C247   C     0.26175   0.08895   0.53914   0.00000  Uiso   1.00
C248   C     0.12994   0.84021   0.56551   0.00000  Uiso   1.00
C249   C     0.09076   0.88136   0.55135   0.00000  Uiso   1.00
C250   C     0.06971   0.74154   0.53509   0.00000  Uiso   1.00
C251   C     0.16570   0.88691   0.61824   0.00000  Uiso   1.00
C252   C     0.15657   0.96731   0.64841   0.00000  Uiso   1.00
C253   C     0.16562   0.86677   0.67654   0.00000  Uiso   1.00
H254   H     0.20430   0.51493   0.57920   0.00000  Uiso   1.00
H255   H     0.27183   0.62889   0.54852   0.00000  Uiso   1.00
H256   H     0.14007   0.39054   0.54574   0.00000  Uiso   1.00
H257   H     0.20588   0.47647   0.64279   0.00000  Uiso   1.00
H258   H     0.33895   0.83224   0.51536   0.00000  Uiso   1.00
H259   H     0.06114   0.32964   0.50953   0.00000  Uiso   1.00
H260   H     0.19989   0.51084   0.71416   0.00000  Uiso   1.00
H261   H     0.14468   0.10834   0.58599   0.00000  Uiso   1.00
H262   H     0.20895   0.25488   0.55567   0.00000  Uiso   1.00
H263   H     0.07719   0.01651   0.55290   0.00000  Uiso   1.00
H264   H     0.14299   0.10244   0.64994   0.00000  Uiso   1.00
H265   H     0.28791   0.34031   0.52117   0.00000  Uiso   1.00
H266   H     0.01009   0.83770   0.51533   0.00000  Uiso   1.00
H267   H     0.14885   0.01890   0.71997   0.00000  Uiso   1.00
O268   O     0.35677   0.17195   0.49819   0.00000  Uiso   1.00
O269   O     0.99229   0.51254   0.49054   0.00000  Uiso   1.00
O270   O     0.17433   0.75028   0.75902   0.00000  Uiso   1.00
N271   N     0.31812   0.93171   0.52090   0.00000  Uiso   1.00
N272   N     0.05839   0.46181   0.51543   0.00000  Uiso   1.00
N273   N     0.18810   0.63120   0.70675   0.00000  Uiso   1.00
N274   N     0.29066   0.20510   0.52402   0.00000  Uiso   1.00
N275   N     0.03092   0.73520   0.51856   0.00000  Uiso   1.00
N276   N     0.16064   0.90459   0.70988   0.00000  Uiso   1.00
C277   C     0.72557   0.33818   0.91417   0.00000  Uiso   1.00
C278   C     0.75456   0.19793   0.93047   0.00000  Uiso   1.00
C279   C     0.79390   0.23312   0.94489   0.00000  Uiso   1.00
C280   C     0.81549   0.08635   0.95848   0.00000  Uiso   1.00
C281   C     0.86310   0.89530   0.98392   0.00000  Uiso   1.00
C282   C     0.68271   0.32478   0.93188   0.00000  Uiso   1.00
C283   C     0.66164   0.46665   0.94750   0.00000  Uiso   1.00
C284   C     0.62275   0.42666   0.96227   0.00000  Uiso   1.00
C285   C     0.55879   0.43259   0.98989   0.00000  Uiso   1.00
C286   C     0.71778   0.27031   0.87913   0.00000  Uiso   1.00
C287   C     0.72619   0.36638   0.85039   0.00000  Uiso   1.00
C288   C     0.71682   0.28054   0.82075   0.00000  Uiso   1.00
C289   C     0.70733   0.20189   0.76646   0.00000  Uiso   1.00
C290   C     0.69396   0.01493   0.91265   0.00000  Uiso   1.00
C291   C     0.73738   0.02235   0.92964   0.00000  Uiso   1.00
C292   C     0.75892   0.87549   0.94320   0.00000  Uiso   1.00
C293   C     0.79829   0.91046   0.95765   0.00000  Uiso   1.00
C294   C     0.66554   0.14922   0.93105   0.00000  Uiso   1.00
C295   C     0.62666   0.10901   0.94581   0.00000  Uiso   1.00
C296   C     0.60554   0.25077   0.96144   0.00000  Uiso   1.00
C297   C     0.70061   0.09473   0.87830   0.00000  Uiso   1.00
C298   C     0.69122   0.00874   0.84870   0.00000  Uiso   1.00
C299   C     0.69962   0.10465   0.81991   0.00000  Uiso   1.00
H300   H     0.73894   0.47487   0.91482   0.00000  Uiso   1.00
H301   H     0.80718   0.36902   0.94553   0.00000  Uiso   1.00
H302   H     0.67494   0.60250   0.94813   0.00000  Uiso   1.00
H303   H     0.73948   0.50224   0.85104   0.00000  Uiso   1.00
H304   H     0.87525   0.17425   0.97922   0.00000  Uiso   1.00
H305   H     0.59641   0.66658   0.98470   0.00000  Uiso   1.00
H306   H     0.73252   0.45517   0.77996   0.00000  Uiso   1.00
H307   H     0.68058   0.87823   0.91200   0.00000  Uiso   1.00
H308   H     0.74562   0.73963   0.94256   0.00000  Uiso   1.00
H309   H     0.61338   0.97313   0.94516   0.00000  Uiso   1.00
H310   H     0.67793   0.87287   0.84807   0.00000  Uiso   1.00
H311   H     0.82529   0.66342   0.97681   0.00000  Uiso   1.00
H312   H     0.54644   0.15576   0.98228   0.00000  Uiso   1.00
H313   H     0.68256   0.94434   0.77754   0.00000  Uiso   1.00
O314   O     0.89410   0.83843   0.99818   0.00000  Uiso   1.00
O315   O     0.52826   0.48436   0.00535   0.00000  Uiso   1.00
O316   O     0.70684   0.20699   0.73674   0.00000  Uiso   1.00
N317   N     0.85457   0.07304   0.97446   0.00000  Uiso   1.00
N318   N     0.59387   0.53333   0.97958   0.00000  Uiso   1.00
N319   N     0.72111   0.33570   0.78816   0.00000  Uiso   1.00
N320   N     0.82769   0.79816   0.97316   0.00000  Uiso   1.00
N321   N     0.56699   0.25846   0.97828   0.00000  Uiso   1.00
N322   N     0.69423   0.06083   0.78686   0.00000  Uiso   1.00
C323   C     0.80936   0.34911   0.08076   0.00000  Uiso   1.00
C324   C     0.78093   0.20491   0.06503   0.00000  Uiso   1.00
C325   C     0.74174   0.23594   0.05006   0.00000  Uiso   1.00
C326   C     0.72068   0.08600   0.03714   0.00000  Uiso   1.00
C327   C     0.67388   0.88865   0.01240   0.00000  Uiso   1.00
C328   C     0.85252   0.33441   0.06352   0.00000  Uiso   1.00
C329   C     0.87351   0.47434   0.04728   0.00000  Uiso   1.00
C330   C     0.91271   0.43340   0.03309   0.00000  Uiso   1.00
C331   C     0.97707   0.43715   0.00602   0.00000  Uiso   1.00
C332   C     0.81676   0.28771   0.11624   0.00000  Uiso   1.00
C333   C     0.80770   0.38840   0.14434   0.00000  Uiso   1.00
C334   C     0.81681   0.30817   0.17454   0.00000  Uiso   1.00
C335   C     0.82565   0.23942   0.22934   0.00000  Uiso   1.00
C336   C     0.84166   0.02762   0.08443   0.00000  Uiso   1.00
C337   C     0.79848   0.03028   0.06702   0.00000  Uiso   1.00
C338   C     0.77747   0.88024   0.05412   0.00000  Uiso   1.00
C339   C     0.73825   0.91105   0.03914   0.00000  Uiso   1.00
C340   C     0.87006   0.15979   0.06551   0.00000  Uiso   1.00
C341   C     0.90924   0.11864   0.05135   0.00000  Uiso   1.00
C342   C     0.93029   0.25846   0.03509   0.00000  Uiso   1.00
C343   C     0.83430   0.11309   0.11824   0.00000  Uiso   1.00
C344   C     0.84343   0.03269   0.14841   0.00000  Uiso   1.00
C345   C     0.83438   0.13323   0.17654   0.00000  Uiso   1.00
H346   H     0.79570   0.48507   0.07920   0.00000  Uiso   1.00
H347   H     0.72817   0.37111   0.04852   0.00000  Uiso   1.00
H348   H     0.85993   0.60946   0.04574   0.00000  Uiso   1.00
H349   H     0.79412   0.52353   0.14279   0.00000  Uiso   1.00
H350   H     0.66105   0.16776   0.01536   0.00000  Uiso   1.00
H351   H     0.93886   0.67036   0.00953   0.00000  Uiso   1.00
H352   H     0.80011   0.48916   0.21416   0.00000  Uiso   1.00
H353   H     0.85532   0.89166   0.08599   0.00000  Uiso   1.00
H354   H     0.79105   0.74512   0.05567   0.00000  Uiso   1.00
H355   H     0.92281   0.98349   0.05290   0.00000  Uiso   1.00
H356   H     0.85701   0.89756   0.14994   0.00000  Uiso   1.00
H357   H     0.71209   0.65969   0.02117   0.00000  Uiso   1.00
H358   H     0.98991   0.16230   0.01533   0.00000  Uiso   1.00
H359   H     0.85115   0.98110   0.21997   0.00000  Uiso   1.00
O360   O     0.64323   0.82805   0.99819   0.00000  Uiso   1.00
O361   O     0.00771   0.48746   0.99054   0.00000  Uiso   1.00
O362   O     0.82567   0.24972   0.25902   0.00000  Uiso   1.00
N363   N     0.68188   0.06829   0.02090   0.00000  Uiso   1.00
N364   N     0.94161   0.53819   0.01543   0.00000  Uiso   1.00
N365   N     0.81190   0.36880   0.20675   0.00000  Uiso   1.00
N366   N     0.70934   0.79490   0.02402   0.00000  Uiso   1.00
N367   N     0.96908   0.26480   0.01856   0.00000  Uiso   1.00
N368   N     0.83936   0.09541   0.20988   0.00000  Uiso   1.00
