data_job_00663
_audit_creation_date              2018-12-19
_audit_creation_method            'Materials Studio'
_symmetry_space_group_name_H-M    'P1'
_symmetry_Int_Tables_number       1
_symmetry_cell_setting            triclinic
loop_
_symmetry_equiv_pos_as_xyz
  x,y,z
_cell_length_a                    18.9980
_cell_length_b                    23.3411
_cell_length_c                    13.0355
_cell_angle_alpha                 90.0000
_cell_angle_beta                  90.0000
_cell_angle_gamma                 90.0000
loop_
_atom_site_label
_atom_site_type_symbol
_atom_site_fract_x
_atom_site_fract_y
_atom_site_fract_z
_atom_site_U_iso_or_equiv
_atom_site_adp_type
_atom_site_occupancy
C1     C     0.68833   0.39097   0.56139   0.00000  Uiso   1.00
C2     C     0.67506   0.36168   0.66415   0.00000  Uiso   1.00
C3     C     0.61180   0.33771   0.69567   0.00000  Uiso   1.00
C4     C     0.61038   0.31295   0.79248   0.00000  Uiso   1.00
C5     C     0.58067   0.26761   0.94249   0.00000  Uiso   1.00
C6     C     0.71515   0.45090   0.58672   0.00000  Uiso   1.00
C7     C     0.68562   0.50194   0.55313   0.00000  Uiso   1.00
C8     C     0.71796   0.55227   0.58475   0.00000  Uiso   1.00
C9     C     0.75053   0.64545   0.61450   0.00000  Uiso   1.00
C10    C     0.75015   0.35939   0.51270   0.00000  Uiso   1.00
C11    C     0.75005   0.33351   0.41685   0.00000  Uiso   1.00
C12    C     0.81187   0.30681   0.38615   0.00000  Uiso   1.00
C13    C     0.89878   0.25790   0.30096   0.00000  Uiso   1.00
C14    C     0.79830   0.38960   0.67727   0.00000  Uiso   1.00
C15    C     0.73479   0.36094   0.72709   0.00000  Uiso   1.00
C16    C     0.73347   0.33620   0.82388   0.00000  Uiso   1.00
C17    C     0.67022   0.31220   0.85554   0.00000  Uiso   1.00
C18    C     0.77488   0.45015   0.64966   0.00000  Uiso   1.00
C19    C     0.80728   0.50042   0.68134   0.00000  Uiso   1.00
C20    C     0.77780   0.55153   0.64781   0.00000  Uiso   1.00
C21    C     0.80988   0.35864   0.57564   0.00000  Uiso   1.00
C22    C     0.87172   0.33199   0.54507   0.00000  Uiso   1.00
C23    C     0.87171   0.30606   0.44920   0.00000  Uiso   1.00
H24    H     0.64183   0.39155   0.51238   0.00000  Uiso   1.00
H25    H     0.56559   0.33830   0.64694   0.00000  Uiso   1.00
H26    H     0.63940   0.50250   0.50441   0.00000  Uiso   1.00
H27    H     0.70382   0.33409   0.36817   0.00000  Uiso   1.00
H28    H     0.50739   0.27896   0.82389   0.00000  Uiso   1.00
H29    H     0.66303   0.62518   0.52334   0.00000  Uiso   1.00
H30    H     0.79888   0.27006   0.23604   0.00000  Uiso   1.00
H31    H     0.84481   0.38902   0.72627   0.00000  Uiso   1.00
H32    H     0.77970   0.33563   0.87257   0.00000  Uiso   1.00
H33    H     0.85351   0.49983   0.73005   0.00000  Uiso   1.00
H34    H     0.91793   0.33142   0.59380   0.00000  Uiso   1.00
H35    H     0.68117   0.27679   0.00703   0.00000  Uiso   1.00
H36    H     0.83681   0.62301   0.70647   0.00000  Uiso   1.00
H37    H     0.97266   0.26789   0.41917   0.00000  Uiso   1.00
O38    O     0.54778   0.24282   0.00785   0.00000  Uiso   1.00
O39    O     0.75198   0.69705   0.61352   0.00000  Uiso   1.00
O40    O     0.93021   0.23113   0.23659   0.00000  Uiso   1.00
N41    N     0.55722   0.28577   0.84691   0.00000  Uiso   1.00
N42    N     0.70274   0.60946   0.56592   0.00000  Uiso   1.00
N43    N     0.82975   0.27746   0.29731   0.00000  Uiso   1.00
N44    N     0.65073   0.28460   0.94545   0.00000  Uiso   1.00
N45    N     0.79625   0.60830   0.66447   0.00000  Uiso   1.00
N46    N     0.92326   0.27630   0.39585   0.00000  Uiso   1.00
C47    C     0.81167   0.60903   0.06139   0.00000  Uiso   1.00
C48    C     0.82494   0.63832   0.16415   0.00000  Uiso   1.00
C49    C     0.88820   0.66229   0.19567   0.00000  Uiso   1.00
C50    C     0.88962   0.68705   0.29248   0.00000  Uiso   1.00
C51    C     0.91933   0.73239   0.44249   0.00000  Uiso   1.00
C52    C     0.78485   0.54910   0.08672   0.00000  Uiso   1.00
C53    C     0.81438   0.49806   0.05313   0.00000  Uiso   1.00
C54    C     0.78204   0.44773   0.08475   0.00000  Uiso   1.00
C55    C     0.74947   0.35455   0.11450   0.00000  Uiso   1.00
C56    C     0.74985   0.64061   0.01270   0.00000  Uiso   1.00
C57    C     0.74995   0.66649   0.91685   0.00000  Uiso   1.00
C58    C     0.68813   0.69319   0.88615   0.00000  Uiso   1.00
C59    C     0.60122   0.74210   0.80096   0.00000  Uiso   1.00
C60    C     0.70170   0.61040   0.17727   0.00000  Uiso   1.00
C61    C     0.76521   0.63906   0.22709   0.00000  Uiso   1.00
C62    C     0.76653   0.66380   0.32388   0.00000  Uiso   1.00
C63    C     0.82978   0.68780   0.35554   0.00000  Uiso   1.00
C64    C     0.72512   0.54985   0.14966   0.00000  Uiso   1.00
C65    C     0.69272   0.49958   0.18134   0.00000  Uiso   1.00
C66    C     0.72220   0.44847   0.14781   0.00000  Uiso   1.00
C67    C     0.69012   0.64136   0.07564   0.00000  Uiso   1.00
C68    C     0.62828   0.66801   0.04507   0.00000  Uiso   1.00
C69    C     0.62829   0.69394   0.94920   0.00000  Uiso   1.00
H70    H     0.85817   0.60845   0.01238   0.00000  Uiso   1.00
H71    H     0.93441   0.66170   0.14694   0.00000  Uiso   1.00
H72    H     0.86060   0.49750   0.00441   0.00000  Uiso   1.00
H73    H     0.79618   0.66591   0.86817   0.00000  Uiso   1.00
H74    H     0.99261   0.72104   0.32389   0.00000  Uiso   1.00
H75    H     0.83697   0.37482   0.02334   0.00000  Uiso   1.00
H76    H     0.70112   0.72994   0.73604   0.00000  Uiso   1.00
H77    H     0.65519   0.61098   0.22627   0.00000  Uiso   1.00
H78    H     0.72030   0.66437   0.37257   0.00000  Uiso   1.00
H79    H     0.64649   0.50017   0.23005   0.00000  Uiso   1.00
H80    H     0.58207   0.66858   0.09380   0.00000  Uiso   1.00
H81    H     0.81883   0.72321   0.50703   0.00000  Uiso   1.00
H82    H     0.66319   0.37699   0.20647   0.00000  Uiso   1.00
H83    H     0.52734   0.73211   0.91917   0.00000  Uiso   1.00
O84    O     0.95222   0.75718   0.50785   0.00000  Uiso   1.00
O85    O     0.74802   0.30295   0.11352   0.00000  Uiso   1.00
O86    O     0.56979   0.76887   0.73659   0.00000  Uiso   1.00
N87    N     0.94278   0.71423   0.34691   0.00000  Uiso   1.00
N88    N     0.79726   0.39054   0.06592   0.00000  Uiso   1.00
N89    N     0.67025   0.72254   0.79731   0.00000  Uiso   1.00
N90    N     0.84927   0.71540   0.44545   0.00000  Uiso   1.00
N91    N     0.70375   0.39170   0.16447   0.00000  Uiso   1.00
N92    N     0.57674   0.72370   0.89585   0.00000  Uiso   1.00
C93    C     0.31167   0.89097   0.93861   0.00000  Uiso   1.00
C94    C     0.32494   0.86168   0.83585   0.00000  Uiso   1.00
C95    C     0.38820   0.83771   0.80433   0.00000  Uiso   1.00
C96    C     0.38962   0.81295   0.70752   0.00000  Uiso   1.00
C97    C     0.41933   0.76761   0.55751   0.00000  Uiso   1.00
C98    C     0.28485   0.95090   0.91328   0.00000  Uiso   1.00
C99    C     0.31438   0.00194   0.94687   0.00000  Uiso   1.00
C100   C     0.28204   0.05227   0.91525   0.00000  Uiso   1.00
C101   C     0.24947   0.14545   0.88550   0.00000  Uiso   1.00
C102   C     0.24985   0.85939   0.98730   0.00000  Uiso   1.00
C103   C     0.24995   0.83351   0.08315   0.00000  Uiso   1.00
C104   C     0.18813   0.80681   0.11385   0.00000  Uiso   1.00
C105   C     0.10122   0.75790   0.19904   0.00000  Uiso   1.00
C106   C     0.20170   0.88960   0.82273   0.00000  Uiso   1.00
C107   C     0.26521   0.86094   0.77291   0.00000  Uiso   1.00
C108   C     0.26653   0.83620   0.67612   0.00000  Uiso   1.00
C109   C     0.32978   0.81220   0.64446   0.00000  Uiso   1.00
C110   C     0.22512   0.95015   0.85034   0.00000  Uiso   1.00
C111   C     0.19272   0.00042   0.81866   0.00000  Uiso   1.00
C112   C     0.22220   0.05153   0.85219   0.00000  Uiso   1.00
C113   C     0.19012   0.85864   0.92436   0.00000  Uiso   1.00
C114   C     0.12828   0.83199   0.95493   0.00000  Uiso   1.00
C115   C     0.12829   0.80606   0.05080   0.00000  Uiso   1.00
H116   H     0.35817   0.89155   0.98762   0.00000  Uiso   1.00
H117   H     0.43441   0.83830   0.85306   0.00000  Uiso   1.00
H118   H     0.36060   0.00250   0.99559   0.00000  Uiso   1.00
H119   H     0.29618   0.83409   0.13183   0.00000  Uiso   1.00
H120   H     0.49261   0.77896   0.67611   0.00000  Uiso   1.00
H121   H     0.33697   0.12518   0.97666   0.00000  Uiso   1.00
H122   H     0.20112   0.77006   0.26396   0.00000  Uiso   1.00
H123   H     0.15519   0.88902   0.77373   0.00000  Uiso   1.00
H124   H     0.22030   0.83563   0.62743   0.00000  Uiso   1.00
H125   H     0.14649   0.99983   0.76995   0.00000  Uiso   1.00
H126   H     0.08207   0.83142   0.90620   0.00000  Uiso   1.00
H127   H     0.31883   0.77679   0.49297   0.00000  Uiso   1.00
H128   H     0.16319   0.12301   0.79353   0.00000  Uiso   1.00
H129   H     0.02734   0.76789   0.08083   0.00000  Uiso   1.00
O130   O     0.45222   0.74282   0.49215   0.00000  Uiso   1.00
O131   O     0.24802   0.19705   0.88648   0.00000  Uiso   1.00
O132   O     0.06979   0.73113   0.26341   0.00000  Uiso   1.00
N133   N     0.44278   0.78577   0.65309   0.00000  Uiso   1.00
N134   N     0.29726   0.10946   0.93408   0.00000  Uiso   1.00
N135   N     0.17025   0.77746   0.20269   0.00000  Uiso   1.00
N136   N     0.34927   0.78460   0.55455   0.00000  Uiso   1.00
N137   N     0.20375   0.10830   0.83553   0.00000  Uiso   1.00
N138   N     0.07674   0.77630   0.10415   0.00000  Uiso   1.00
C139   C     0.18833   0.10903   0.43861   0.00000  Uiso   1.00
C140   C     0.17506   0.13832   0.33585   0.00000  Uiso   1.00
C141   C     0.11180   0.16229   0.30433   0.00000  Uiso   1.00
C142   C     0.11038   0.18705   0.20752   0.00000  Uiso   1.00
C143   C     0.08067   0.23239   0.05751   0.00000  Uiso   1.00
C144   C     0.21515   0.04910   0.41328   0.00000  Uiso   1.00
C145   C     0.18562   0.99806   0.44687   0.00000  Uiso   1.00
C146   C     0.21796   0.94773   0.41525   0.00000  Uiso   1.00
C147   C     0.25053   0.85455   0.38550   0.00000  Uiso   1.00
C148   C     0.25015   0.14061   0.48730   0.00000  Uiso   1.00
C149   C     0.25005   0.16649   0.58315   0.00000  Uiso   1.00
C150   C     0.31187   0.19319   0.61385   0.00000  Uiso   1.00
C151   C     0.39878   0.24210   0.69904   0.00000  Uiso   1.00
C152   C     0.29830   0.11040   0.32273   0.00000  Uiso   1.00
C153   C     0.23479   0.13906   0.27291   0.00000  Uiso   1.00
C154   C     0.23347   0.16380   0.17612   0.00000  Uiso   1.00
C155   C     0.17022   0.18780   0.14446   0.00000  Uiso   1.00
C156   C     0.27488   0.04985   0.35034   0.00000  Uiso   1.00
C157   C     0.30728   0.99958   0.31866   0.00000  Uiso   1.00
C158   C     0.27780   0.94847   0.35219   0.00000  Uiso   1.00
C159   C     0.30988   0.14136   0.42436   0.00000  Uiso   1.00
C160   C     0.37172   0.16801   0.45493   0.00000  Uiso   1.00
C161   C     0.37171   0.19394   0.55080   0.00000  Uiso   1.00
H162   H     0.14183   0.10845   0.48762   0.00000  Uiso   1.00
H163   H     0.06559   0.16170   0.35306   0.00000  Uiso   1.00
H164   H     0.13940   0.99750   0.49559   0.00000  Uiso   1.00
H165   H     0.20382   0.16591   0.63183   0.00000  Uiso   1.00
H166   H     0.00739   0.22104   0.17611   0.00000  Uiso   1.00
H167   H     0.16303   0.87482   0.47666   0.00000  Uiso   1.00
H168   H     0.29888   0.22994   0.76396   0.00000  Uiso   1.00
H169   H     0.34481   0.11098   0.27373   0.00000  Uiso   1.00
H170   H     0.27970   0.16437   0.12743   0.00000  Uiso   1.00
H171   H     0.35351   0.00017   0.26995   0.00000  Uiso   1.00
H172   H     0.41793   0.16858   0.40620   0.00000  Uiso   1.00
H173   H     0.18117   0.22321   0.99297   0.00000  Uiso   1.00
H174   H     0.33681   0.87699   0.29353   0.00000  Uiso   1.00
H175   H     0.47266   0.23211   0.58083   0.00000  Uiso   1.00
O176   O     0.04778   0.25718   0.99215   0.00000  Uiso   1.00
O177   O     0.25198   0.80295   0.38648   0.00000  Uiso   1.00
O178   O     0.43021   0.26887   0.76341   0.00000  Uiso   1.00
N179   N     0.05722   0.21423   0.15309   0.00000  Uiso   1.00
N180   N     0.20274   0.89054   0.43408   0.00000  Uiso   1.00
N181   N     0.32975   0.22254   0.70269   0.00000  Uiso   1.00
N182   N     0.15073   0.21540   0.05455   0.00000  Uiso   1.00
N183   N     0.29625   0.89170   0.33553   0.00000  Uiso   1.00
N184   N     0.42326   0.22370   0.60415   0.00000  Uiso   1.00
C185   C     0.31167   0.60903   0.43861   0.00000  Uiso   1.00
C186   C     0.32494   0.63832   0.33585   0.00000  Uiso   1.00
C187   C     0.38820   0.66229   0.30433   0.00000  Uiso   1.00
C188   C     0.38962   0.68705   0.20752   0.00000  Uiso   1.00
C189   C     0.41933   0.73239   0.05751   0.00000  Uiso   1.00
C190   C     0.28485   0.54910   0.41328   0.00000  Uiso   1.00
C191   C     0.31438   0.49806   0.44687   0.00000  Uiso   1.00
C192   C     0.28204   0.44773   0.41525   0.00000  Uiso   1.00
C193   C     0.24947   0.35455   0.38550   0.00000  Uiso   1.00
C194   C     0.24985   0.64061   0.48730   0.00000  Uiso   1.00
C195   C     0.24995   0.66649   0.58315   0.00000  Uiso   1.00
C196   C     0.18813   0.69319   0.61385   0.00000  Uiso   1.00
C197   C     0.10122   0.74210   0.69904   0.00000  Uiso   1.00
C198   C     0.20170   0.61040   0.32273   0.00000  Uiso   1.00
C199   C     0.26521   0.63906   0.27291   0.00000  Uiso   1.00
C200   C     0.26653   0.66380   0.17612   0.00000  Uiso   1.00
C201   C     0.32978   0.68780   0.14446   0.00000  Uiso   1.00
C202   C     0.22512   0.54985   0.35034   0.00000  Uiso   1.00
C203   C     0.19272   0.49958   0.31866   0.00000  Uiso   1.00
C204   C     0.22220   0.44847   0.35219   0.00000  Uiso   1.00
C205   C     0.19012   0.64136   0.42436   0.00000  Uiso   1.00
C206   C     0.12828   0.66801   0.45493   0.00000  Uiso   1.00
C207   C     0.12829   0.69394   0.55080   0.00000  Uiso   1.00
H208   H     0.35817   0.60845   0.48762   0.00000  Uiso   1.00
H209   H     0.43441   0.66170   0.35306   0.00000  Uiso   1.00
H210   H     0.36060   0.49750   0.49559   0.00000  Uiso   1.00
H211   H     0.29618   0.66591   0.63183   0.00000  Uiso   1.00
H212   H     0.49261   0.72104   0.17611   0.00000  Uiso   1.00
H213   H     0.33697   0.37482   0.47666   0.00000  Uiso   1.00
H214   H     0.20112   0.72994   0.76396   0.00000  Uiso   1.00
H215   H     0.15519   0.61098   0.27373   0.00000  Uiso   1.00
H216   H     0.22030   0.66437   0.12743   0.00000  Uiso   1.00
H217   H     0.14649   0.50017   0.26995   0.00000  Uiso   1.00
H218   H     0.08207   0.66858   0.40620   0.00000  Uiso   1.00
H219   H     0.31883   0.72321   0.99297   0.00000  Uiso   1.00
H220   H     0.16319   0.37699   0.29353   0.00000  Uiso   1.00
H221   H     0.02734   0.73211   0.58083   0.00000  Uiso   1.00
O222   O     0.45222   0.75718   0.99215   0.00000  Uiso   1.00
O223   O     0.24802   0.30295   0.38648   0.00000  Uiso   1.00
O224   O     0.06979   0.76887   0.76341   0.00000  Uiso   1.00
N225   N     0.44278   0.71423   0.15309   0.00000  Uiso   1.00
N226   N     0.29726   0.39054   0.43408   0.00000  Uiso   1.00
N227   N     0.17025   0.72254   0.70269   0.00000  Uiso   1.00
N228   N     0.34927   0.71540   0.05455   0.00000  Uiso   1.00
N229   N     0.20375   0.39170   0.33553   0.00000  Uiso   1.00
N230   N     0.07674   0.72370   0.60415   0.00000  Uiso   1.00
C231   C     0.18833   0.39097   0.93861   0.00000  Uiso   1.00
C232   C     0.17506   0.36168   0.83585   0.00000  Uiso   1.00
C233   C     0.11180   0.33771   0.80433   0.00000  Uiso   1.00
C234   C     0.11038   0.31295   0.70752   0.00000  Uiso   1.00
C235   C     0.08067   0.26761   0.55751   0.00000  Uiso   1.00
C236   C     0.21515   0.45090   0.91328   0.00000  Uiso   1.00
C237   C     0.18562   0.50194   0.94687   0.00000  Uiso   1.00
C238   C     0.21796   0.55227   0.91525   0.00000  Uiso   1.00
C239   C     0.25053   0.64545   0.88550   0.00000  Uiso   1.00
C240   C     0.25015   0.35939   0.98730   0.00000  Uiso   1.00
C241   C     0.25005   0.33351   0.08315   0.00000  Uiso   1.00
C242   C     0.31187   0.30681   0.11385   0.00000  Uiso   1.00
C243   C     0.39878   0.25790   0.19904   0.00000  Uiso   1.00
C244   C     0.29830   0.38960   0.82273   0.00000  Uiso   1.00
C245   C     0.23479   0.36094   0.77291   0.00000  Uiso   1.00
C246   C     0.23347   0.33620   0.67612   0.00000  Uiso   1.00
C247   C     0.17022   0.31220   0.64446   0.00000  Uiso   1.00
C248   C     0.27488   0.45015   0.85034   0.00000  Uiso   1.00
C249   C     0.30728   0.50042   0.81866   0.00000  Uiso   1.00
C250   C     0.27780   0.55153   0.85219   0.00000  Uiso   1.00
C251   C     0.30988   0.35864   0.92436   0.00000  Uiso   1.00
C252   C     0.37172   0.33199   0.95493   0.00000  Uiso   1.00
C253   C     0.37171   0.30606   0.05080   0.00000  Uiso   1.00
H254   H     0.14183   0.39155   0.98762   0.00000  Uiso   1.00
H255   H     0.06559   0.33830   0.85306   0.00000  Uiso   1.00
H256   H     0.13940   0.50250   0.99559   0.00000  Uiso   1.00
H257   H     0.20382   0.33409   0.13183   0.00000  Uiso   1.00
H258   H     0.00739   0.27896   0.67611   0.00000  Uiso   1.00
H259   H     0.16303   0.62518   0.97666   0.00000  Uiso   1.00
H260   H     0.29888   0.27006   0.26396   0.00000  Uiso   1.00
H261   H     0.34481   0.38902   0.77373   0.00000  Uiso   1.00
H262   H     0.27970   0.33563   0.62743   0.00000  Uiso   1.00
H263   H     0.35351   0.49983   0.76995   0.00000  Uiso   1.00
H264   H     0.41793   0.33142   0.90620   0.00000  Uiso   1.00
H265   H     0.18117   0.27679   0.49297   0.00000  Uiso   1.00
H266   H     0.33681   0.62301   0.79353   0.00000  Uiso   1.00
H267   H     0.47266   0.26789   0.08083   0.00000  Uiso   1.00
O268   O     0.04778   0.24282   0.49215   0.00000  Uiso   1.00
O269   O     0.25198   0.69705   0.88648   0.00000  Uiso   1.00
O270   O     0.43021   0.23113   0.26341   0.00000  Uiso   1.00
N271   N     0.05722   0.28577   0.65309   0.00000  Uiso   1.00
N272   N     0.20274   0.60946   0.93408   0.00000  Uiso   1.00
N273   N     0.32975   0.27746   0.20269   0.00000  Uiso   1.00
N274   N     0.15073   0.28460   0.55455   0.00000  Uiso   1.00
N275   N     0.29625   0.60830   0.83553   0.00000  Uiso   1.00
N276   N     0.42326   0.27630   0.10415   0.00000  Uiso   1.00
C277   C     0.68833   0.10903   0.06139   0.00000  Uiso   1.00
C278   C     0.67506   0.13832   0.16415   0.00000  Uiso   1.00
C279   C     0.61180   0.16229   0.19567   0.00000  Uiso   1.00
C280   C     0.61038   0.18705   0.29248   0.00000  Uiso   1.00
C281   C     0.58067   0.23239   0.44249   0.00000  Uiso   1.00
C282   C     0.71515   0.04910   0.08672   0.00000  Uiso   1.00
C283   C     0.68562   0.99806   0.05313   0.00000  Uiso   1.00
C284   C     0.71796   0.94773   0.08475   0.00000  Uiso   1.00
C285   C     0.75053   0.85455   0.11450   0.00000  Uiso   1.00
C286   C     0.75015   0.14061   0.01270   0.00000  Uiso   1.00
C287   C     0.75005   0.16649   0.91685   0.00000  Uiso   1.00
C288   C     0.81187   0.19319   0.88615   0.00000  Uiso   1.00
C289   C     0.89878   0.24210   0.80096   0.00000  Uiso   1.00
C290   C     0.79830   0.11040   0.17727   0.00000  Uiso   1.00
C291   C     0.73479   0.13906   0.22709   0.00000  Uiso   1.00
C292   C     0.73347   0.16380   0.32388   0.00000  Uiso   1.00
C293   C     0.67022   0.18780   0.35554   0.00000  Uiso   1.00
C294   C     0.77488   0.04985   0.14966   0.00000  Uiso   1.00
C295   C     0.80728   0.99958   0.18134   0.00000  Uiso   1.00
C296   C     0.77780   0.94847   0.14781   0.00000  Uiso   1.00
C297   C     0.80988   0.14136   0.07564   0.00000  Uiso   1.00
C298   C     0.87172   0.16801   0.04507   0.00000  Uiso   1.00
C299   C     0.87171   0.19394   0.94920   0.00000  Uiso   1.00
H300   H     0.64183   0.10845   0.01238   0.00000  Uiso   1.00
H301   H     0.56559   0.16170   0.14694   0.00000  Uiso   1.00
H302   H     0.63940   0.99750   0.00441   0.00000  Uiso   1.00
H303   H     0.70382   0.16591   0.86817   0.00000  Uiso   1.00
H304   H     0.50739   0.22104   0.32389   0.00000  Uiso   1.00
H305   H     0.66303   0.87482   0.02334   0.00000  Uiso   1.00
H306   H     0.79888   0.22994   0.73604   0.00000  Uiso   1.00
H307   H     0.84481   0.11098   0.22627   0.00000  Uiso   1.00
H308   H     0.77970   0.16437   0.37257   0.00000  Uiso   1.00
H309   H     0.85351   0.00017   0.23005   0.00000  Uiso   1.00
H310   H     0.91793   0.16858   0.09380   0.00000  Uiso   1.00
H311   H     0.68117   0.22321   0.50703   0.00000  Uiso   1.00
H312   H     0.83681   0.87699   0.20647   0.00000  Uiso   1.00
H313   H     0.97266   0.23211   0.91917   0.00000  Uiso   1.00
O314   O     0.54778   0.25718   0.50785   0.00000  Uiso   1.00
O315   O     0.75198   0.80295   0.11352   0.00000  Uiso   1.00
O316   O     0.93021   0.26887   0.73659   0.00000  Uiso   1.00
N317   N     0.55722   0.21423   0.34691   0.00000  Uiso   1.00
N318   N     0.70274   0.89054   0.06592   0.00000  Uiso   1.00
N319   N     0.82975   0.22254   0.79731   0.00000  Uiso   1.00
N320   N     0.65073   0.21540   0.44545   0.00000  Uiso   1.00
N321   N     0.79625   0.89170   0.16447   0.00000  Uiso   1.00
N322   N     0.92326   0.22370   0.89585   0.00000  Uiso   1.00
C323   C     0.81167   0.89097   0.56139   0.00000  Uiso   1.00
C324   C     0.82494   0.86168   0.66415   0.00000  Uiso   1.00
C325   C     0.88820   0.83771   0.69567   0.00000  Uiso   1.00
C326   C     0.88962   0.81295   0.79248   0.00000  Uiso   1.00
C327   C     0.91933   0.76761   0.94249   0.00000  Uiso   1.00
C328   C     0.78485   0.95090   0.58672   0.00000  Uiso   1.00
C329   C     0.81438   0.00194   0.55313   0.00000  Uiso   1.00
C330   C     0.78204   0.05227   0.58475   0.00000  Uiso   1.00
C331   C     0.74947   0.14545   0.61450   0.00000  Uiso   1.00
C332   C     0.74985   0.85939   0.51270   0.00000  Uiso   1.00
C333   C     0.74995   0.83351   0.41685   0.00000  Uiso   1.00
C334   C     0.68813   0.80681   0.38615   0.00000  Uiso   1.00
C335   C     0.60122   0.75790   0.30096   0.00000  Uiso   1.00
C336   C     0.70170   0.88960   0.67727   0.00000  Uiso   1.00
C337   C     0.76521   0.86094   0.72709   0.00000  Uiso   1.00
C338   C     0.76653   0.83620   0.82388   0.00000  Uiso   1.00
C339   C     0.82978   0.81220   0.85554   0.00000  Uiso   1.00
C340   C     0.72512   0.95015   0.64966   0.00000  Uiso   1.00
C341   C     0.69272   0.00042   0.68134   0.00000  Uiso   1.00
C342   C     0.72220   0.05153   0.64781   0.00000  Uiso   1.00
C343   C     0.69012   0.85864   0.57564   0.00000  Uiso   1.00
C344   C     0.62828   0.83199   0.54507   0.00000  Uiso   1.00
C345   C     0.62829   0.80606   0.44920   0.00000  Uiso   1.00
H346   H     0.85817   0.89155   0.51238   0.00000  Uiso   1.00
H347   H     0.93441   0.83830   0.64694   0.00000  Uiso   1.00
H348   H     0.86060   0.00250   0.50441   0.00000  Uiso   1.00
H349   H     0.79618   0.83409   0.36817   0.00000  Uiso   1.00
H350   H     0.99261   0.77896   0.82389   0.00000  Uiso   1.00
H351   H     0.83697   0.12518   0.52334   0.00000  Uiso   1.00
H352   H     0.70112   0.77006   0.23604   0.00000  Uiso   1.00
H353   H     0.65519   0.88902   0.72627   0.00000  Uiso   1.00
H354   H     0.72030   0.83563   0.87257   0.00000  Uiso   1.00
H355   H     0.64649   0.99983   0.73005   0.00000  Uiso   1.00
H356   H     0.58207   0.83142   0.59380   0.00000  Uiso   1.00
H357   H     0.81883   0.77679   0.00703   0.00000  Uiso   1.00
H358   H     0.66319   0.12301   0.70647   0.00000  Uiso   1.00
H359   H     0.52734   0.76789   0.41917   0.00000  Uiso   1.00
O360   O     0.95222   0.74282   0.00785   0.00000  Uiso   1.00
O361   O     0.74802   0.19705   0.61352   0.00000  Uiso   1.00
O362   O     0.56979   0.73113   0.23659   0.00000  Uiso   1.00
N363   N     0.94278   0.78577   0.84691   0.00000  Uiso   1.00
N364   N     0.79726   0.10946   0.56592   0.00000  Uiso   1.00
N365   N     0.67025   0.77746   0.29731   0.00000  Uiso   1.00
N366   N     0.84927   0.78460   0.94545   0.00000  Uiso   1.00
N367   N     0.70375   0.10830   0.66447   0.00000  Uiso   1.00
N368   N     0.57674   0.77630   0.39585   0.00000  Uiso   1.00
