data_job_03957
_audit_creation_date              2018-12-19
_audit_creation_method            'Materials Studio'
_symmetry_space_group_name_H-M    'P1'
_symmetry_Int_Tables_number       1
_symmetry_cell_setting            triclinic
loop_
_symmetry_equiv_pos_as_xyz
  x,y,z
_cell_length_a                    31.6086
_cell_length_b                    9.2819
_cell_length_c                    18.6329
_cell_angle_alpha                 90.0000
_cell_angle_beta                  90.0000
_cell_angle_gamma                 90.0000
loop_
_atom_site_label
_atom_site_type_symbol
_atom_site_fract_x
_atom_site_fract_y
_atom_site_fract_z
_atom_site_U_iso_or_equiv
_atom_site_adp_type
_atom_site_occupancy
C1     C     0.62040   0.96940   0.41555   0.00000  Uiso   1.00
C2     C     0.66759   0.98724   0.40100   0.00000  Uiso   1.00
C3     C     0.69147   0.90444   0.35406   0.00000  Uiso   1.00
C4     C     0.73416   0.93777   0.34833   0.00000  Uiso   1.00
C5     C     0.80468   0.94836   0.31972   0.00000  Uiso   1.00
C6     C     0.61615   0.94716   0.49631   0.00000  Uiso   1.00
C7     C     0.59679   0.83066   0.52950   0.00000  Uiso   1.00
C8     C     0.59617   0.83027   0.60401   0.00000  Uiso   1.00
C9     C     0.58681   0.77869   0.72336   0.00000  Uiso   1.00
C10    C     0.60030   0.11527   0.39957   0.00000  Uiso   1.00
C11    C     0.56761   0.14013   0.35143   0.00000  Uiso   1.00
C12    C     0.55364   0.28127   0.34450   0.00000  Uiso   1.00
C13    C     0.51967   0.49071   0.31365   0.00000  Uiso   1.00
C14    C     0.65373   0.17584   0.48886   0.00000  Uiso   1.00
C15    C     0.68569   0.09937   0.44083   0.00000  Uiso   1.00
C16    C     0.72835   0.13284   0.43517   0.00000  Uiso   1.00
C17    C     0.75230   0.05010   0.38822   0.00000  Uiso   1.00
C18    C     0.63426   0.05928   0.53613   0.00000  Uiso   1.00
C19    C     0.63366   0.05907   0.61061   0.00000  Uiso   1.00
C20    C     0.61431   0.94260   0.64390   0.00000  Uiso   1.00
C21    C     0.61841   0.22740   0.43939   0.00000  Uiso   1.00
C22    C     0.60449   0.36853   0.43254   0.00000  Uiso   1.00
C23    C     0.57178   0.39360   0.38439   0.00000  Uiso   1.00
H24    H     0.60630   0.88210   0.38455   0.00000  Uiso   1.00
H25    H     0.67745   0.81766   0.32326   0.00000  Uiso   1.00
H26    H     0.58278   0.74391   0.49867   0.00000  Uiso   1.00
H27    H     0.55361   0.05333   0.32062   0.00000  Uiso   1.00
H28    H     0.76432   0.79564   0.27288   0.00000  Uiso   1.00
H29    H     0.56468   0.64016   0.64275   0.00000  Uiso   1.00
H30    H     0.50316   0.29262   0.26731   0.00000  Uiso   1.00
H31    H     0.66783   0.26314   0.51986   0.00000  Uiso   1.00
H32    H     0.74235   0.21962   0.46599   0.00000  Uiso   1.00
H33    H     0.64768   0.14586   0.64141   0.00000  Uiso   1.00
H34    H     0.61850   0.45528   0.46336   0.00000  Uiso   1.00
H35    H     0.81700   0.12187   0.38873   0.00000  Uiso   1.00
H36    H     0.61735   0.96639   0.75860   0.00000  Uiso   1.00
H37    H     0.55584   0.61886   0.38316   0.00000  Uiso   1.00
O38    O     0.83858   0.92321   0.29295   0.00000  Uiso   1.00
O39    O     0.57665   0.71925   0.77820   0.00000  Uiso   1.00
O40    O     0.49594   0.57526   0.28562   0.00000  Uiso   1.00
N41    N     0.76649   0.87841   0.30753   0.00000  Uiso   1.00
N42    N     0.57984   0.73303   0.65334   0.00000  Uiso   1.00
N43    N     0.52232   0.34302   0.30234   0.00000  Uiso   1.00
N44    N     0.79483   0.05396   0.36987   0.00000  Uiso   1.00
N45    N     0.60819   0.90858   0.71567   0.00000  Uiso   1.00
N46    N     0.55066   0.51857   0.36468   0.00000  Uiso   1.00
C47    C     0.87960   0.03060   0.91555   0.00000  Uiso   1.00
C48    C     0.83241   0.01276   0.90100   0.00000  Uiso   1.00
C49    C     0.80853   0.09556   0.85406   0.00000  Uiso   1.00
C50    C     0.76584   0.06223   0.84833   0.00000  Uiso   1.00
C51    C     0.69532   0.05164   0.81972   0.00000  Uiso   1.00
C52    C     0.88385   0.05284   0.99631   0.00000  Uiso   1.00
C53    C     0.90321   0.16934   0.02950   0.00000  Uiso   1.00
C54    C     0.90383   0.16973   0.10401   0.00000  Uiso   1.00
C55    C     0.91319   0.22131   0.22336   0.00000  Uiso   1.00
C56    C     0.89970   0.88473   0.89957   0.00000  Uiso   1.00
C57    C     0.93239   0.85987   0.85143   0.00000  Uiso   1.00
C58    C     0.94636   0.71873   0.84450   0.00000  Uiso   1.00
C59    C     0.98033   0.50929   0.81365   0.00000  Uiso   1.00
C60    C     0.84627   0.82416   0.98886   0.00000  Uiso   1.00
C61    C     0.81431   0.90063   0.94083   0.00000  Uiso   1.00
C62    C     0.77165   0.86716   0.93517   0.00000  Uiso   1.00
C63    C     0.74770   0.94990   0.88822   0.00000  Uiso   1.00
C64    C     0.86574   0.94072   0.03613   0.00000  Uiso   1.00
C65    C     0.86634   0.94093   0.11061   0.00000  Uiso   1.00
C66    C     0.88569   0.05740   0.14390   0.00000  Uiso   1.00
C67    C     0.88159   0.77260   0.93939   0.00000  Uiso   1.00
C68    C     0.89551   0.63147   0.93254   0.00000  Uiso   1.00
C69    C     0.92822   0.60640   0.88439   0.00000  Uiso   1.00
H70    H     0.89370   0.11790   0.88455   0.00000  Uiso   1.00
H71    H     0.82255   0.18234   0.82326   0.00000  Uiso   1.00
H72    H     0.91722   0.25609   0.99867   0.00000  Uiso   1.00
H73    H     0.94639   0.94667   0.82062   0.00000  Uiso   1.00
H74    H     0.73568   0.20436   0.77288   0.00000  Uiso   1.00
H75    H     0.93532   0.35984   0.14275   0.00000  Uiso   1.00
H76    H     0.99684   0.70738   0.76731   0.00000  Uiso   1.00
H77    H     0.83217   0.73686   0.01986   0.00000  Uiso   1.00
H78    H     0.75765   0.78038   0.96599   0.00000  Uiso   1.00
H79    H     0.85232   0.85414   0.14141   0.00000  Uiso   1.00
H80    H     0.88150   0.54472   0.96336   0.00000  Uiso   1.00
H81    H     0.68300   0.87813   0.88873   0.00000  Uiso   1.00
H82    H     0.88265   0.03361   0.25860   0.00000  Uiso   1.00
H83    H     0.94416   0.38114   0.88316   0.00000  Uiso   1.00
O84    O     0.66142   0.07679   0.79295   0.00000  Uiso   1.00
O85    O     0.92335   0.28075   0.27820   0.00000  Uiso   1.00
O86    O     0.00406   0.42474   0.78562   0.00000  Uiso   1.00
N87    N     0.73351   0.12159   0.80753   0.00000  Uiso   1.00
N88    N     0.92016   0.26697   0.15334   0.00000  Uiso   1.00
N89    N     0.97768   0.65698   0.80234   0.00000  Uiso   1.00
N90    N     0.70517   0.94604   0.86987   0.00000  Uiso   1.00
N91    N     0.89181   0.09142   0.21567   0.00000  Uiso   1.00
N92    N     0.94934   0.48143   0.86468   0.00000  Uiso   1.00
C93    C     0.37960   0.46940   0.08445   0.00000  Uiso   1.00
C94    C     0.33241   0.48724   0.09900   0.00000  Uiso   1.00
C95    C     0.30853   0.40444   0.14594   0.00000  Uiso   1.00
C96    C     0.26584   0.43777   0.15167   0.00000  Uiso   1.00
C97    C     0.19532   0.44836   0.18028   0.00000  Uiso   1.00
C98    C     0.38385   0.44716   0.00369   0.00000  Uiso   1.00
C99    C     0.40321   0.33066   0.97050   0.00000  Uiso   1.00
C100   C     0.40383   0.33027   0.89599   0.00000  Uiso   1.00
C101   C     0.41319   0.27869   0.77664   0.00000  Uiso   1.00
C102   C     0.39970   0.61527   0.10043   0.00000  Uiso   1.00
C103   C     0.43239   0.64013   0.14857   0.00000  Uiso   1.00
C104   C     0.44636   0.78127   0.15550   0.00000  Uiso   1.00
C105   C     0.48033   0.99071   0.18635   0.00000  Uiso   1.00
C106   C     0.34627   0.67584   0.01114   0.00000  Uiso   1.00
C107   C     0.31431   0.59937   0.05917   0.00000  Uiso   1.00
C108   C     0.27165   0.63284   0.06483   0.00000  Uiso   1.00
C109   C     0.24770   0.55010   0.11178   0.00000  Uiso   1.00
C110   C     0.36574   0.55928   0.96387   0.00000  Uiso   1.00
C111   C     0.36634   0.55907   0.88939   0.00000  Uiso   1.00
C112   C     0.38569   0.44260   0.85610   0.00000  Uiso   1.00
C113   C     0.38159   0.72740   0.06061   0.00000  Uiso   1.00
C114   C     0.39551   0.86853   0.06746   0.00000  Uiso   1.00
C115   C     0.42822   0.89360   0.11561   0.00000  Uiso   1.00
H116   H     0.39370   0.38210   0.11545   0.00000  Uiso   1.00
H117   H     0.32255   0.31766   0.17674   0.00000  Uiso   1.00
H118   H     0.41722   0.24391   0.00133   0.00000  Uiso   1.00
H119   H     0.44639   0.55333   0.17938   0.00000  Uiso   1.00
H120   H     0.23568   0.29564   0.22712   0.00000  Uiso   1.00
H121   H     0.43532   0.14016   0.85725   0.00000  Uiso   1.00
H122   H     0.49684   0.79262   0.23269   0.00000  Uiso   1.00
H123   H     0.33217   0.76314   0.98014   0.00000  Uiso   1.00
H124   H     0.25765   0.71962   0.03401   0.00000  Uiso   1.00
H125   H     0.35232   0.64586   0.85859   0.00000  Uiso   1.00
H126   H     0.38150   0.95528   0.03664   0.00000  Uiso   1.00
H127   H     0.18300   0.62187   0.11127   0.00000  Uiso   1.00
H128   H     0.38265   0.46639   0.74140   0.00000  Uiso   1.00
H129   H     0.44416   0.11886   0.11684   0.00000  Uiso   1.00
O130   O     0.16142   0.42321   0.20705   0.00000  Uiso   1.00
O131   O     0.42335   0.21925   0.72180   0.00000  Uiso   1.00
O132   O     0.50406   0.07526   0.21438   0.00000  Uiso   1.00
N133   N     0.23351   0.37841   0.19247   0.00000  Uiso   1.00
N134   N     0.42016   0.23303   0.84666   0.00000  Uiso   1.00
N135   N     0.47768   0.84302   0.19766   0.00000  Uiso   1.00
N136   N     0.20517   0.55396   0.13013   0.00000  Uiso   1.00
N137   N     0.39181   0.40858   0.78433   0.00000  Uiso   1.00
N138   N     0.44934   0.01857   0.13532   0.00000  Uiso   1.00
C139   C     0.12040   0.53060   0.58445   0.00000  Uiso   1.00
C140   C     0.16759   0.51276   0.59900   0.00000  Uiso   1.00
C141   C     0.19147   0.59556   0.64594   0.00000  Uiso   1.00
C142   C     0.23416   0.56223   0.65167   0.00000  Uiso   1.00
C143   C     0.30468   0.55164   0.68028   0.00000  Uiso   1.00
C144   C     0.11615   0.55284   0.50369   0.00000  Uiso   1.00
C145   C     0.09679   0.66934   0.47050   0.00000  Uiso   1.00
C146   C     0.09617   0.66973   0.39599   0.00000  Uiso   1.00
C147   C     0.08681   0.72131   0.27664   0.00000  Uiso   1.00
C148   C     0.10030   0.38473   0.60043   0.00000  Uiso   1.00
C149   C     0.06761   0.35987   0.64857   0.00000  Uiso   1.00
C150   C     0.05364   0.21873   0.65550   0.00000  Uiso   1.00
C151   C     0.01967   0.00929   0.68635   0.00000  Uiso   1.00
C152   C     0.15373   0.32416   0.51114   0.00000  Uiso   1.00
C153   C     0.18569   0.40063   0.55917   0.00000  Uiso   1.00
C154   C     0.22835   0.36716   0.56483   0.00000  Uiso   1.00
C155   C     0.25230   0.44990   0.61178   0.00000  Uiso   1.00
C156   C     0.13426   0.44072   0.46387   0.00000  Uiso   1.00
C157   C     0.13366   0.44093   0.38939   0.00000  Uiso   1.00
C158   C     0.11431   0.55740   0.35610   0.00000  Uiso   1.00
C159   C     0.11841   0.27260   0.56061   0.00000  Uiso   1.00
C160   C     0.10449   0.13147   0.56746   0.00000  Uiso   1.00
C161   C     0.07178   0.10640   0.61561   0.00000  Uiso   1.00
H162   H     0.10630   0.61790   0.61545   0.00000  Uiso   1.00
H163   H     0.17745   0.68234   0.67674   0.00000  Uiso   1.00
H164   H     0.08278   0.75609   0.50133   0.00000  Uiso   1.00
H165   H     0.05361   0.44667   0.67938   0.00000  Uiso   1.00
H166   H     0.26432   0.70436   0.72712   0.00000  Uiso   1.00
H167   H     0.06468   0.85984   0.35725   0.00000  Uiso   1.00
H168   H     0.00316   0.20738   0.73269   0.00000  Uiso   1.00
H169   H     0.16783   0.23686   0.48014   0.00000  Uiso   1.00
H170   H     0.24235   0.28038   0.53401   0.00000  Uiso   1.00
H171   H     0.14768   0.35414   0.35859   0.00000  Uiso   1.00
H172   H     0.11850   0.04472   0.53664   0.00000  Uiso   1.00
H173   H     0.31700   0.37813   0.61127   0.00000  Uiso   1.00
H174   H     0.11735   0.53361   0.24140   0.00000  Uiso   1.00
H175   H     0.05584   0.88114   0.61684   0.00000  Uiso   1.00
O176   O     0.33858   0.57679   0.70705   0.00000  Uiso   1.00
O177   O     0.07665   0.78075   0.22180   0.00000  Uiso   1.00
O178   O     0.99594   0.92474   0.71438   0.00000  Uiso   1.00
N179   N     0.26649   0.62159   0.69247   0.00000  Uiso   1.00
N180   N     0.07984   0.76697   0.34666   0.00000  Uiso   1.00
N181   N     0.02232   0.15698   0.69766   0.00000  Uiso   1.00
N182   N     0.29483   0.44604   0.63013   0.00000  Uiso   1.00
N183   N     0.10819   0.59142   0.28433   0.00000  Uiso   1.00
N184   N     0.05066   0.98143   0.63532   0.00000  Uiso   1.00
C185   C     0.37960   0.03060   0.58445   0.00000  Uiso   1.00
C186   C     0.33241   0.01276   0.59900   0.00000  Uiso   1.00
C187   C     0.30853   0.09556   0.64594   0.00000  Uiso   1.00
C188   C     0.26584   0.06223   0.65167   0.00000  Uiso   1.00
C189   C     0.19532   0.05164   0.68028   0.00000  Uiso   1.00
C190   C     0.38385   0.05284   0.50369   0.00000  Uiso   1.00
C191   C     0.40321   0.16934   0.47050   0.00000  Uiso   1.00
C192   C     0.40383   0.16973   0.39599   0.00000  Uiso   1.00
C193   C     0.41319   0.22131   0.27664   0.00000  Uiso   1.00
C194   C     0.39970   0.88473   0.60043   0.00000  Uiso   1.00
C195   C     0.43239   0.85987   0.64857   0.00000  Uiso   1.00
C196   C     0.44636   0.71873   0.65550   0.00000  Uiso   1.00
C197   C     0.48033   0.50929   0.68635   0.00000  Uiso   1.00
C198   C     0.34627   0.82416   0.51114   0.00000  Uiso   1.00
C199   C     0.31431   0.90063   0.55917   0.00000  Uiso   1.00
C200   C     0.27165   0.86716   0.56483   0.00000  Uiso   1.00
C201   C     0.24770   0.94990   0.61178   0.00000  Uiso   1.00
C202   C     0.36574   0.94072   0.46387   0.00000  Uiso   1.00
C203   C     0.36634   0.94093   0.38939   0.00000  Uiso   1.00
C204   C     0.38569   0.05740   0.35610   0.00000  Uiso   1.00
C205   C     0.38159   0.77260   0.56061   0.00000  Uiso   1.00
C206   C     0.39551   0.63147   0.56746   0.00000  Uiso   1.00
C207   C     0.42822   0.60640   0.61561   0.00000  Uiso   1.00
H208   H     0.39370   0.11790   0.61545   0.00000  Uiso   1.00
H209   H     0.32255   0.18234   0.67674   0.00000  Uiso   1.00
H210   H     0.41722   0.25609   0.50133   0.00000  Uiso   1.00
H211   H     0.44639   0.94667   0.67938   0.00000  Uiso   1.00
H212   H     0.23568   0.20436   0.72712   0.00000  Uiso   1.00
H213   H     0.43532   0.35984   0.35725   0.00000  Uiso   1.00
H214   H     0.49684   0.70738   0.73269   0.00000  Uiso   1.00
H215   H     0.33217   0.73686   0.48014   0.00000  Uiso   1.00
H216   H     0.25765   0.78038   0.53401   0.00000  Uiso   1.00
H217   H     0.35232   0.85414   0.35859   0.00000  Uiso   1.00
H218   H     0.38150   0.54472   0.53664   0.00000  Uiso   1.00
H219   H     0.18300   0.87813   0.61127   0.00000  Uiso   1.00
H220   H     0.38265   0.03361   0.24140   0.00000  Uiso   1.00
H221   H     0.44416   0.38114   0.61684   0.00000  Uiso   1.00
O222   O     0.16142   0.07679   0.70705   0.00000  Uiso   1.00
O223   O     0.42335   0.28075   0.22180   0.00000  Uiso   1.00
O224   O     0.50406   0.42474   0.71438   0.00000  Uiso   1.00
N225   N     0.23351   0.12159   0.69247   0.00000  Uiso   1.00
N226   N     0.42016   0.26697   0.34666   0.00000  Uiso   1.00
N227   N     0.47768   0.65698   0.69766   0.00000  Uiso   1.00
N228   N     0.20517   0.94604   0.63013   0.00000  Uiso   1.00
N229   N     0.39181   0.09142   0.28433   0.00000  Uiso   1.00
N230   N     0.44934   0.48143   0.63532   0.00000  Uiso   1.00
C231   C     0.12040   0.96940   0.08445   0.00000  Uiso   1.00
C232   C     0.16759   0.98724   0.09900   0.00000  Uiso   1.00
C233   C     0.19147   0.90444   0.14594   0.00000  Uiso   1.00
C234   C     0.23416   0.93777   0.15167   0.00000  Uiso   1.00
C235   C     0.30468   0.94836   0.18028   0.00000  Uiso   1.00
C236   C     0.11615   0.94716   0.00369   0.00000  Uiso   1.00
C237   C     0.09679   0.83066   0.97050   0.00000  Uiso   1.00
C238   C     0.09617   0.83027   0.89599   0.00000  Uiso   1.00
C239   C     0.08681   0.77869   0.77664   0.00000  Uiso   1.00
C240   C     0.10030   0.11527   0.10043   0.00000  Uiso   1.00
C241   C     0.06761   0.14013   0.14857   0.00000  Uiso   1.00
C242   C     0.05364   0.28127   0.15550   0.00000  Uiso   1.00
C243   C     0.01967   0.49071   0.18635   0.00000  Uiso   1.00
C244   C     0.15373   0.17584   0.01114   0.00000  Uiso   1.00
C245   C     0.18569   0.09937   0.05917   0.00000  Uiso   1.00
C246   C     0.22835   0.13284   0.06483   0.00000  Uiso   1.00
C247   C     0.25230   0.05010   0.11178   0.00000  Uiso   1.00
C248   C     0.13426   0.05928   0.96387   0.00000  Uiso   1.00
C249   C     0.13366   0.05907   0.88939   0.00000  Uiso   1.00
C250   C     0.11431   0.94260   0.85610   0.00000  Uiso   1.00
C251   C     0.11841   0.22740   0.06061   0.00000  Uiso   1.00
C252   C     0.10449   0.36853   0.06746   0.00000  Uiso   1.00
C253   C     0.07178   0.39360   0.11561   0.00000  Uiso   1.00
H254   H     0.10630   0.88210   0.11545   0.00000  Uiso   1.00
H255   H     0.17745   0.81766   0.17674   0.00000  Uiso   1.00
H256   H     0.08278   0.74391   0.00133   0.00000  Uiso   1.00
H257   H     0.05361   0.05333   0.17938   0.00000  Uiso   1.00
H258   H     0.26432   0.79564   0.22712   0.00000  Uiso   1.00
H259   H     0.06468   0.64016   0.85725   0.00000  Uiso   1.00
H260   H     0.00316   0.29262   0.23269   0.00000  Uiso   1.00
H261   H     0.16783   0.26314   0.98014   0.00000  Uiso   1.00
H262   H     0.24235   0.21962   0.03401   0.00000  Uiso   1.00
H263   H     0.14768   0.14586   0.85859   0.00000  Uiso   1.00
H264   H     0.11850   0.45528   0.03664   0.00000  Uiso   1.00
H265   H     0.31700   0.12187   0.11127   0.00000  Uiso   1.00
H266   H     0.11735   0.96639   0.74140   0.00000  Uiso   1.00
H267   H     0.05584   0.61886   0.11684   0.00000  Uiso   1.00
O268   O     0.33858   0.92321   0.20705   0.00000  Uiso   1.00
O269   O     0.07665   0.71925   0.72180   0.00000  Uiso   1.00
O270   O     0.99594   0.57526   0.21438   0.00000  Uiso   1.00
N271   N     0.26649   0.87841   0.19247   0.00000  Uiso   1.00
N272   N     0.07984   0.73303   0.84666   0.00000  Uiso   1.00
N273   N     0.02232   0.34302   0.19766   0.00000  Uiso   1.00
N274   N     0.29483   0.05396   0.13013   0.00000  Uiso   1.00
N275   N     0.10819   0.90858   0.78433   0.00000  Uiso   1.00
N276   N     0.05066   0.51857   0.13532   0.00000  Uiso   1.00
C277   C     0.62040   0.53060   0.91555   0.00000  Uiso   1.00
C278   C     0.66759   0.51276   0.90100   0.00000  Uiso   1.00
C279   C     0.69147   0.59556   0.85406   0.00000  Uiso   1.00
C280   C     0.73416   0.56223   0.84833   0.00000  Uiso   1.00
C281   C     0.80468   0.55164   0.81972   0.00000  Uiso   1.00
C282   C     0.61615   0.55284   0.99631   0.00000  Uiso   1.00
C283   C     0.59679   0.66934   0.02950   0.00000  Uiso   1.00
C284   C     0.59617   0.66973   0.10401   0.00000  Uiso   1.00
C285   C     0.58681   0.72131   0.22336   0.00000  Uiso   1.00
C286   C     0.60030   0.38473   0.89957   0.00000  Uiso   1.00
C287   C     0.56761   0.35987   0.85143   0.00000  Uiso   1.00
C288   C     0.55364   0.21873   0.84450   0.00000  Uiso   1.00
C289   C     0.51967   0.00929   0.81365   0.00000  Uiso   1.00
C290   C     0.65373   0.32416   0.98886   0.00000  Uiso   1.00
C291   C     0.68569   0.40063   0.94083   0.00000  Uiso   1.00
C292   C     0.72835   0.36716   0.93517   0.00000  Uiso   1.00
C293   C     0.75230   0.44990   0.88822   0.00000  Uiso   1.00
C294   C     0.63426   0.44072   0.03613   0.00000  Uiso   1.00
C295   C     0.63366   0.44093   0.11061   0.00000  Uiso   1.00
C296   C     0.61431   0.55740   0.14390   0.00000  Uiso   1.00
C297   C     0.61841   0.27260   0.93939   0.00000  Uiso   1.00
C298   C     0.60449   0.13147   0.93254   0.00000  Uiso   1.00
C299   C     0.57178   0.10640   0.88439   0.00000  Uiso   1.00
H300   H     0.60630   0.61790   0.88455   0.00000  Uiso   1.00
H301   H     0.67745   0.68234   0.82326   0.00000  Uiso   1.00
H302   H     0.58278   0.75609   0.99867   0.00000  Uiso   1.00
H303   H     0.55361   0.44667   0.82062   0.00000  Uiso   1.00
H304   H     0.76432   0.70436   0.77288   0.00000  Uiso   1.00
H305   H     0.56468   0.85984   0.14275   0.00000  Uiso   1.00
H306   H     0.50316   0.20738   0.76731   0.00000  Uiso   1.00
H307   H     0.66783   0.23686   0.01986   0.00000  Uiso   1.00
H308   H     0.74235   0.28038   0.96599   0.00000  Uiso   1.00
H309   H     0.64768   0.35414   0.14141   0.00000  Uiso   1.00
H310   H     0.61850   0.04472   0.96336   0.00000  Uiso   1.00
H311   H     0.81700   0.37813   0.88873   0.00000  Uiso   1.00
H312   H     0.61735   0.53361   0.25860   0.00000  Uiso   1.00
H313   H     0.55584   0.88114   0.88316   0.00000  Uiso   1.00
O314   O     0.83858   0.57679   0.79295   0.00000  Uiso   1.00
O315   O     0.57665   0.78075   0.27820   0.00000  Uiso   1.00
O316   O     0.49594   0.92474   0.78562   0.00000  Uiso   1.00
N317   N     0.76649   0.62159   0.80753   0.00000  Uiso   1.00
N318   N     0.57984   0.76697   0.15334   0.00000  Uiso   1.00
N319   N     0.52232   0.15698   0.80234   0.00000  Uiso   1.00
N320   N     0.79483   0.44604   0.86987   0.00000  Uiso   1.00
N321   N     0.60819   0.59142   0.21567   0.00000  Uiso   1.00
N322   N     0.55066   0.98143   0.86468   0.00000  Uiso   1.00
C323   C     0.87960   0.46940   0.41555   0.00000  Uiso   1.00
C324   C     0.83241   0.48724   0.40100   0.00000  Uiso   1.00
C325   C     0.80853   0.40444   0.35406   0.00000  Uiso   1.00
C326   C     0.76584   0.43777   0.34833   0.00000  Uiso   1.00
C327   C     0.69532   0.44836   0.31972   0.00000  Uiso   1.00
C328   C     0.88385   0.44716   0.49631   0.00000  Uiso   1.00
C329   C     0.90321   0.33066   0.52950   0.00000  Uiso   1.00
C330   C     0.90383   0.33027   0.60401   0.00000  Uiso   1.00
C331   C     0.91319   0.27869   0.72336   0.00000  Uiso   1.00
C332   C     0.89970   0.61527   0.39957   0.00000  Uiso   1.00
C333   C     0.93239   0.64013   0.35143   0.00000  Uiso   1.00
C334   C     0.94636   0.78127   0.34450   0.00000  Uiso   1.00
C335   C     0.98033   0.99071   0.31365   0.00000  Uiso   1.00
C336   C     0.84627   0.67584   0.48886   0.00000  Uiso   1.00
C337   C     0.81431   0.59937   0.44083   0.00000  Uiso   1.00
C338   C     0.77165   0.63284   0.43517   0.00000  Uiso   1.00
C339   C     0.74770   0.55010   0.38822   0.00000  Uiso   1.00
C340   C     0.86574   0.55928   0.53613   0.00000  Uiso   1.00
C341   C     0.86634   0.55907   0.61061   0.00000  Uiso   1.00
C342   C     0.88569   0.44260   0.64390   0.00000  Uiso   1.00
C343   C     0.88159   0.72740   0.43939   0.00000  Uiso   1.00
C344   C     0.89551   0.86853   0.43254   0.00000  Uiso   1.00
C345   C     0.92822   0.89360   0.38439   0.00000  Uiso   1.00
H346   H     0.89370   0.38210   0.38455   0.00000  Uiso   1.00
H347   H     0.82255   0.31766   0.32326   0.00000  Uiso   1.00
H348   H     0.91722   0.24391   0.49867   0.00000  Uiso   1.00
H349   H     0.94639   0.55333   0.32062   0.00000  Uiso   1.00
H350   H     0.73568   0.29564   0.27288   0.00000  Uiso   1.00
H351   H     0.93532   0.14016   0.64275   0.00000  Uiso   1.00
H352   H     0.99684   0.79262   0.26731   0.00000  Uiso   1.00
H353   H     0.83217   0.76314   0.51986   0.00000  Uiso   1.00
H354   H     0.75765   0.71962   0.46599   0.00000  Uiso   1.00
H355   H     0.85232   0.64586   0.64141   0.00000  Uiso   1.00
H356   H     0.88150   0.95528   0.46336   0.00000  Uiso   1.00
H357   H     0.68300   0.62187   0.38873   0.00000  Uiso   1.00
H358   H     0.88265   0.46639   0.75860   0.00000  Uiso   1.00
H359   H     0.94416   0.11886   0.38316   0.00000  Uiso   1.00
O360   O     0.66142   0.42321   0.29295   0.00000  Uiso   1.00
O361   O     0.92335   0.21925   0.77820   0.00000  Uiso   1.00
O362   O     0.00406   0.07526   0.28562   0.00000  Uiso   1.00
N363   N     0.73351   0.37841   0.30753   0.00000  Uiso   1.00
N364   N     0.92016   0.23303   0.65334   0.00000  Uiso   1.00
N365   N     0.97768   0.84302   0.30234   0.00000  Uiso   1.00
N366   N     0.70517   0.55396   0.36987   0.00000  Uiso   1.00
N367   N     0.89181   0.40858   0.71567   0.00000  Uiso   1.00
N368   N     0.94934   0.01857   0.36468   0.00000  Uiso   1.00
