data_job_00822
_audit_creation_date              2018-12-19
_audit_creation_method            'Materials Studio'
_symmetry_space_group_name_H-M    'P1'
_symmetry_Int_Tables_number       1
_symmetry_cell_setting            triclinic
loop_
_symmetry_equiv_pos_as_xyz
  x,y,z
_cell_length_a                    9.9032
_cell_length_b                    37.3767
_cell_length_c                    15.3173
_cell_angle_alpha                 90.0000
_cell_angle_beta                  90.0000
_cell_angle_gamma                 90.0000
loop_
_atom_site_label
_atom_site_type_symbol
_atom_site_fract_x
_atom_site_fract_y
_atom_site_fract_z
_atom_site_U_iso_or_equiv
_atom_site_adp_type
_atom_site_occupancy
C1     C     0.69401   0.62555   0.24882   0.00000  Uiso   1.00
C2     C     0.78798   0.61333   0.32184   0.00000  Uiso   1.00
C3     C     0.81174   0.57812   0.34612   0.00000  Uiso   1.00
C4     C     0.90119   0.57251   0.41456   0.00000  Uiso   1.00
C5     C     0.03741   0.54919   0.52150   0.00000  Uiso   1.00
C6     C     0.59373   0.65126   0.29089   0.00000  Uiso   1.00
C7     C     0.45418   0.64794   0.28914   0.00000  Uiso   1.00
C8     C     0.38011   0.67427   0.33152   0.00000  Uiso   1.00
C9     C     0.21476   0.70986   0.39035   0.00000  Uiso   1.00
C10    C     0.78022   0.64813   0.18744   0.00000  Uiso   1.00
C11    C     0.79743   0.64219   0.09870   0.00000  Uiso   1.00
C12    C     0.88034   0.66588   0.05398   0.00000  Uiso   1.00
C13    C     0.00453   0.69661   0.95219   0.00000  Uiso   1.00
C14    C     0.81061   0.67820   0.32719   0.00000  Uiso   1.00
C15    C     0.85130   0.64193   0.36441   0.00000  Uiso   1.00
C16    C     0.94074   0.63637   0.43283   0.00000  Uiso   1.00
C17    C     0.96464   0.60116   0.45721   0.00000  Uiso   1.00
C18    C     0.65706   0.67986   0.33346   0.00000  Uiso   1.00
C19    C     0.58318   0.70620   0.37584   0.00000  Uiso   1.00
C20    C     0.44355   0.70292   0.37416   0.00000  Uiso   1.00
C21    C     0.84355   0.67673   0.23001   0.00000  Uiso   1.00
C22    C     0.92644   0.70044   0.18541   0.00000  Uiso   1.00
C23    C     0.94378   0.69453   0.09662   0.00000  Uiso   1.00
H24    H     0.64470   0.60328   0.21568   0.00000  Uiso   1.00
H25    H     0.76270   0.55599   0.31317   0.00000  Uiso   1.00
H26    H     0.40520   0.62581   0.25618   0.00000  Uiso   1.00
H27    H     0.74841   0.62005   0.06578   0.00000  Uiso   1.00
H28    H     0.92142   0.51617   0.44004   0.00000  Uiso   1.00
H29    H     0.16760   0.66340   0.31987   0.00000  Uiso   1.00
H30    H     0.89132   0.65126   0.91836   0.00000  Uiso   1.00
H31    H     0.85991   0.70047   0.36033   0.00000  Uiso   1.00
H32    H     0.98973   0.65851   0.46576   0.00000  Uiso   1.00
H33    H     0.63222   0.72833   0.40877   0.00000  Uiso   1.00
H34    H     0.97543   0.72257   0.21837   0.00000  Uiso   1.00
H35    H     0.10568   0.59938   0.56390   0.00000  Uiso   1.00
H36    H     0.35186   0.74661   0.44371   0.00000  Uiso   1.00
H37    H     0.07558   0.73447   0.04221   0.00000  Uiso   1.00
O38    O     0.09503   0.52843   0.56873   0.00000  Uiso   1.00
O39    O     0.10605   0.72158   0.41105   0.00000  Uiso   1.00
O40    O     0.05555   0.70565   0.88429   0.00000  Uiso   1.00
N41    N     0.94699   0.54152   0.45471   0.00000  Uiso   1.00
N42    N     0.24222   0.67916   0.34237   0.00000  Uiso   1.00
N43    N     0.91880   0.66781   0.96699   0.00000  Uiso   1.00
N44    N     0.04614   0.58629   0.52136   0.00000  Uiso   1.00
N45    N     0.34137   0.72394   0.40901   0.00000  Uiso   1.00
N46    N     0.01795   0.71259   0.03363   0.00000  Uiso   1.00
C47    C     0.80599   0.37445   0.24882   0.00000  Uiso   1.00
C48    C     0.71202   0.38667   0.32184   0.00000  Uiso   1.00
C49    C     0.68826   0.42188   0.34612   0.00000  Uiso   1.00
C50    C     0.59881   0.42749   0.41456   0.00000  Uiso   1.00
C51    C     0.46259   0.45081   0.52150   0.00000  Uiso   1.00
C52    C     0.90627   0.34874   0.29089   0.00000  Uiso   1.00
C53    C     0.04582   0.35206   0.28914   0.00000  Uiso   1.00
C54    C     0.11989   0.32573   0.33152   0.00000  Uiso   1.00
C55    C     0.28524   0.29014   0.39035   0.00000  Uiso   1.00
C56    C     0.71978   0.35187   0.18744   0.00000  Uiso   1.00
C57    C     0.70257   0.35781   0.09870   0.00000  Uiso   1.00
C58    C     0.61966   0.33412   0.05398   0.00000  Uiso   1.00
C59    C     0.49547   0.30339   0.95219   0.00000  Uiso   1.00
C60    C     0.68939   0.32180   0.32719   0.00000  Uiso   1.00
C61    C     0.64870   0.35807   0.36441   0.00000  Uiso   1.00
C62    C     0.55926   0.36363   0.43283   0.00000  Uiso   1.00
C63    C     0.53536   0.39884   0.45721   0.00000  Uiso   1.00
C64    C     0.84294   0.32014   0.33346   0.00000  Uiso   1.00
C65    C     0.91682   0.29380   0.37584   0.00000  Uiso   1.00
C66    C     0.05645   0.29708   0.37416   0.00000  Uiso   1.00
C67    C     0.65645   0.32327   0.23001   0.00000  Uiso   1.00
C68    C     0.57356   0.29956   0.18541   0.00000  Uiso   1.00
C69    C     0.55622   0.30547   0.09662   0.00000  Uiso   1.00
H70    H     0.85530   0.39672   0.21568   0.00000  Uiso   1.00
H71    H     0.73730   0.44401   0.31317   0.00000  Uiso   1.00
H72    H     0.09480   0.37419   0.25618   0.00000  Uiso   1.00
H73    H     0.75159   0.37995   0.06578   0.00000  Uiso   1.00
H74    H     0.57858   0.48383   0.44004   0.00000  Uiso   1.00
H75    H     0.33240   0.33660   0.31987   0.00000  Uiso   1.00
H76    H     0.60868   0.34874   0.91836   0.00000  Uiso   1.00
H77    H     0.64009   0.29953   0.36033   0.00000  Uiso   1.00
H78    H     0.51027   0.34149   0.46576   0.00000  Uiso   1.00
H79    H     0.86778   0.27167   0.40877   0.00000  Uiso   1.00
H80    H     0.52457   0.27743   0.21837   0.00000  Uiso   1.00
H81    H     0.39432   0.40062   0.56390   0.00000  Uiso   1.00
H82    H     0.14814   0.25339   0.44371   0.00000  Uiso   1.00
H83    H     0.42442   0.26553   0.04221   0.00000  Uiso   1.00
O84    O     0.40497   0.47157   0.56873   0.00000  Uiso   1.00
O85    O     0.39395   0.27842   0.41105   0.00000  Uiso   1.00
O86    O     0.44445   0.29435   0.88429   0.00000  Uiso   1.00
N87    N     0.55301   0.45848   0.45471   0.00000  Uiso   1.00
N88    N     0.25778   0.32084   0.34237   0.00000  Uiso   1.00
N89    N     0.58120   0.33219   0.96699   0.00000  Uiso   1.00
N90    N     0.45386   0.41371   0.52136   0.00000  Uiso   1.00
N91    N     0.15863   0.27606   0.40901   0.00000  Uiso   1.00
N92    N     0.48205   0.28741   0.03363   0.00000  Uiso   1.00
C93    C     0.80599   0.12555   0.25118   0.00000  Uiso   1.00
C94    C     0.71202   0.11333   0.17816   0.00000  Uiso   1.00
C95    C     0.68826   0.07812   0.15388   0.00000  Uiso   1.00
C96    C     0.59881   0.07251   0.08544   0.00000  Uiso   1.00
C97    C     0.46259   0.04919   0.97850   0.00000  Uiso   1.00
C98    C     0.90627   0.15126   0.20911   0.00000  Uiso   1.00
C99    C     0.04582   0.14794   0.21086   0.00000  Uiso   1.00
C100   C     0.11989   0.17427   0.16848   0.00000  Uiso   1.00
C101   C     0.28524   0.20986   0.10965   0.00000  Uiso   1.00
C102   C     0.71978   0.14813   0.31256   0.00000  Uiso   1.00
C103   C     0.70257   0.14219   0.40130   0.00000  Uiso   1.00
C104   C     0.61966   0.16588   0.44602   0.00000  Uiso   1.00
C105   C     0.49547   0.19661   0.54781   0.00000  Uiso   1.00
C106   C     0.68939   0.17820   0.17281   0.00000  Uiso   1.00
C107   C     0.64870   0.14193   0.13559   0.00000  Uiso   1.00
C108   C     0.55926   0.13637   0.06717   0.00000  Uiso   1.00
C109   C     0.53536   0.10116   0.04279   0.00000  Uiso   1.00
C110   C     0.84294   0.17986   0.16654   0.00000  Uiso   1.00
C111   C     0.91682   0.20620   0.12416   0.00000  Uiso   1.00
C112   C     0.05645   0.20292   0.12584   0.00000  Uiso   1.00
C113   C     0.65645   0.17673   0.26999   0.00000  Uiso   1.00
C114   C     0.57356   0.20044   0.31459   0.00000  Uiso   1.00
C115   C     0.55622   0.19453   0.40338   0.00000  Uiso   1.00
H116   H     0.85530   0.10328   0.28432   0.00000  Uiso   1.00
H117   H     0.73730   0.05599   0.18683   0.00000  Uiso   1.00
H118   H     0.09480   0.12581   0.24382   0.00000  Uiso   1.00
H119   H     0.75159   0.12005   0.43422   0.00000  Uiso   1.00
H120   H     0.57858   0.01617   0.05996   0.00000  Uiso   1.00
H121   H     0.33240   0.16340   0.18013   0.00000  Uiso   1.00
H122   H     0.60868   0.15126   0.58164   0.00000  Uiso   1.00
H123   H     0.64009   0.20047   0.13967   0.00000  Uiso   1.00
H124   H     0.51027   0.15851   0.03424   0.00000  Uiso   1.00
H125   H     0.86778   0.22833   0.09123   0.00000  Uiso   1.00
H126   H     0.52457   0.22257   0.28163   0.00000  Uiso   1.00
H127   H     0.39432   0.09938   0.93610   0.00000  Uiso   1.00
H128   H     0.14814   0.24661   0.05629   0.00000  Uiso   1.00
H129   H     0.42442   0.23447   0.45779   0.00000  Uiso   1.00
O130   O     0.40497   0.02843   0.93127   0.00000  Uiso   1.00
O131   O     0.39395   0.22158   0.08895   0.00000  Uiso   1.00
O132   O     0.44445   0.20565   0.61571   0.00000  Uiso   1.00
N133   N     0.55301   0.04152   0.04529   0.00000  Uiso   1.00
N134   N     0.25778   0.17916   0.15763   0.00000  Uiso   1.00
N135   N     0.58120   0.16781   0.53301   0.00000  Uiso   1.00
N136   N     0.45386   0.08629   0.97864   0.00000  Uiso   1.00
N137   N     0.15863   0.22394   0.09099   0.00000  Uiso   1.00
N138   N     0.48205   0.21259   0.46637   0.00000  Uiso   1.00
C139   C     0.69401   0.87445   0.25118   0.00000  Uiso   1.00
C140   C     0.78798   0.88667   0.17816   0.00000  Uiso   1.00
C141   C     0.81174   0.92188   0.15388   0.00000  Uiso   1.00
C142   C     0.90119   0.92749   0.08544   0.00000  Uiso   1.00
C143   C     0.03741   0.95081   0.97850   0.00000  Uiso   1.00
C144   C     0.59373   0.84874   0.20911   0.00000  Uiso   1.00
C145   C     0.45418   0.85206   0.21086   0.00000  Uiso   1.00
C146   C     0.38011   0.82573   0.16848   0.00000  Uiso   1.00
C147   C     0.21476   0.79014   0.10965   0.00000  Uiso   1.00
C148   C     0.78022   0.85187   0.31256   0.00000  Uiso   1.00
C149   C     0.79743   0.85781   0.40130   0.00000  Uiso   1.00
C150   C     0.88034   0.83412   0.44602   0.00000  Uiso   1.00
C151   C     0.00453   0.80339   0.54781   0.00000  Uiso   1.00
C152   C     0.81061   0.82180   0.17281   0.00000  Uiso   1.00
C153   C     0.85130   0.85807   0.13559   0.00000  Uiso   1.00
C154   C     0.94074   0.86363   0.06717   0.00000  Uiso   1.00
C155   C     0.96464   0.89884   0.04279   0.00000  Uiso   1.00
C156   C     0.65706   0.82014   0.16654   0.00000  Uiso   1.00
C157   C     0.58318   0.79380   0.12416   0.00000  Uiso   1.00
C158   C     0.44355   0.79708   0.12584   0.00000  Uiso   1.00
C159   C     0.84355   0.82327   0.26999   0.00000  Uiso   1.00
C160   C     0.92644   0.79956   0.31459   0.00000  Uiso   1.00
C161   C     0.94378   0.80547   0.40338   0.00000  Uiso   1.00
H162   H     0.64470   0.89672   0.28432   0.00000  Uiso   1.00
H163   H     0.76270   0.94401   0.18683   0.00000  Uiso   1.00
H164   H     0.40520   0.87419   0.24382   0.00000  Uiso   1.00
H165   H     0.74841   0.87995   0.43422   0.00000  Uiso   1.00
H166   H     0.92142   0.98383   0.05996   0.00000  Uiso   1.00
H167   H     0.16760   0.83660   0.18013   0.00000  Uiso   1.00
H168   H     0.89132   0.84874   0.58164   0.00000  Uiso   1.00
H169   H     0.85991   0.79953   0.13967   0.00000  Uiso   1.00
H170   H     0.98973   0.84149   0.03424   0.00000  Uiso   1.00
H171   H     0.63222   0.77167   0.09123   0.00000  Uiso   1.00
H172   H     0.97543   0.77743   0.28163   0.00000  Uiso   1.00
H173   H     0.10568   0.90062   0.93610   0.00000  Uiso   1.00
H174   H     0.35186   0.75339   0.05629   0.00000  Uiso   1.00
H175   H     0.07558   0.76553   0.45779   0.00000  Uiso   1.00
O176   O     0.09503   0.97157   0.93127   0.00000  Uiso   1.00
O177   O     0.10605   0.77842   0.08895   0.00000  Uiso   1.00
O178   O     0.05555   0.79435   0.61571   0.00000  Uiso   1.00
N179   N     0.94699   0.95848   0.04529   0.00000  Uiso   1.00
N180   N     0.24222   0.82084   0.15763   0.00000  Uiso   1.00
N181   N     0.91880   0.83219   0.53301   0.00000  Uiso   1.00
N182   N     0.04614   0.91371   0.97864   0.00000  Uiso   1.00
N183   N     0.34137   0.77606   0.09099   0.00000  Uiso   1.00
N184   N     0.01795   0.78741   0.46637   0.00000  Uiso   1.00
C185   C     0.30599   0.37445   0.75118   0.00000  Uiso   1.00
C186   C     0.21202   0.38667   0.67816   0.00000  Uiso   1.00
C187   C     0.18826   0.42188   0.65388   0.00000  Uiso   1.00
C188   C     0.09881   0.42749   0.58544   0.00000  Uiso   1.00
C189   C     0.96259   0.45081   0.47850   0.00000  Uiso   1.00
C190   C     0.40627   0.34874   0.70911   0.00000  Uiso   1.00
C191   C     0.54582   0.35206   0.71086   0.00000  Uiso   1.00
C192   C     0.61989   0.32573   0.66848   0.00000  Uiso   1.00
C193   C     0.78524   0.29014   0.60965   0.00000  Uiso   1.00
C194   C     0.21978   0.35187   0.81256   0.00000  Uiso   1.00
C195   C     0.20257   0.35781   0.90130   0.00000  Uiso   1.00
C196   C     0.11966   0.33412   0.94602   0.00000  Uiso   1.00
C197   C     0.99547   0.30339   0.04781   0.00000  Uiso   1.00
C198   C     0.18939   0.32180   0.67281   0.00000  Uiso   1.00
C199   C     0.14870   0.35807   0.63559   0.00000  Uiso   1.00
C200   C     0.05926   0.36363   0.56717   0.00000  Uiso   1.00
C201   C     0.03536   0.39884   0.54279   0.00000  Uiso   1.00
C202   C     0.34294   0.32014   0.66654   0.00000  Uiso   1.00
C203   C     0.41682   0.29380   0.62416   0.00000  Uiso   1.00
C204   C     0.55645   0.29708   0.62584   0.00000  Uiso   1.00
C205   C     0.15645   0.32327   0.76999   0.00000  Uiso   1.00
C206   C     0.07356   0.29956   0.81459   0.00000  Uiso   1.00
C207   C     0.05622   0.30547   0.90338   0.00000  Uiso   1.00
H208   H     0.35530   0.39672   0.78432   0.00000  Uiso   1.00
H209   H     0.23730   0.44401   0.68683   0.00000  Uiso   1.00
H210   H     0.59480   0.37419   0.74382   0.00000  Uiso   1.00
H211   H     0.25159   0.37995   0.93422   0.00000  Uiso   1.00
H212   H     0.07858   0.48383   0.55996   0.00000  Uiso   1.00
H213   H     0.83240   0.33660   0.68013   0.00000  Uiso   1.00
H214   H     0.10868   0.34874   0.08164   0.00000  Uiso   1.00
H215   H     0.14009   0.29953   0.63967   0.00000  Uiso   1.00
H216   H     0.01027   0.34149   0.53424   0.00000  Uiso   1.00
H217   H     0.36778   0.27167   0.59123   0.00000  Uiso   1.00
H218   H     0.02457   0.27743   0.78163   0.00000  Uiso   1.00
H219   H     0.89432   0.40062   0.43610   0.00000  Uiso   1.00
H220   H     0.64814   0.25339   0.55629   0.00000  Uiso   1.00
H221   H     0.92442   0.26553   0.95779   0.00000  Uiso   1.00
O222   O     0.90497   0.47157   0.43127   0.00000  Uiso   1.00
O223   O     0.89395   0.27842   0.58895   0.00000  Uiso   1.00
O224   O     0.94445   0.29435   0.11571   0.00000  Uiso   1.00
N225   N     0.05301   0.45848   0.54529   0.00000  Uiso   1.00
N226   N     0.75778   0.32084   0.65763   0.00000  Uiso   1.00
N227   N     0.08120   0.33219   0.03301   0.00000  Uiso   1.00
N228   N     0.95386   0.41371   0.47864   0.00000  Uiso   1.00
N229   N     0.65863   0.27606   0.59099   0.00000  Uiso   1.00
N230   N     0.98205   0.28741   0.96637   0.00000  Uiso   1.00
C231   C     0.19401   0.62555   0.75118   0.00000  Uiso   1.00
C232   C     0.28798   0.61333   0.67816   0.00000  Uiso   1.00
C233   C     0.31174   0.57812   0.65388   0.00000  Uiso   1.00
C234   C     0.40119   0.57251   0.58544   0.00000  Uiso   1.00
C235   C     0.53741   0.54919   0.47850   0.00000  Uiso   1.00
C236   C     0.09373   0.65126   0.70911   0.00000  Uiso   1.00
C237   C     0.95418   0.64794   0.71086   0.00000  Uiso   1.00
C238   C     0.88011   0.67427   0.66848   0.00000  Uiso   1.00
C239   C     0.71476   0.70986   0.60965   0.00000  Uiso   1.00
C240   C     0.28022   0.64813   0.81256   0.00000  Uiso   1.00
C241   C     0.29743   0.64219   0.90130   0.00000  Uiso   1.00
C242   C     0.38034   0.66588   0.94602   0.00000  Uiso   1.00
C243   C     0.50453   0.69661   0.04781   0.00000  Uiso   1.00
C244   C     0.31061   0.67820   0.67281   0.00000  Uiso   1.00
C245   C     0.35130   0.64193   0.63559   0.00000  Uiso   1.00
C246   C     0.44074   0.63637   0.56717   0.00000  Uiso   1.00
C247   C     0.46464   0.60116   0.54279   0.00000  Uiso   1.00
C248   C     0.15706   0.67986   0.66654   0.00000  Uiso   1.00
C249   C     0.08318   0.70620   0.62416   0.00000  Uiso   1.00
C250   C     0.94355   0.70292   0.62584   0.00000  Uiso   1.00
C251   C     0.34355   0.67673   0.76999   0.00000  Uiso   1.00
C252   C     0.42644   0.70044   0.81459   0.00000  Uiso   1.00
C253   C     0.44378   0.69453   0.90338   0.00000  Uiso   1.00
H254   H     0.14470   0.60328   0.78432   0.00000  Uiso   1.00
H255   H     0.26270   0.55599   0.68683   0.00000  Uiso   1.00
H256   H     0.90520   0.62581   0.74382   0.00000  Uiso   1.00
H257   H     0.24841   0.62005   0.93422   0.00000  Uiso   1.00
H258   H     0.42142   0.51617   0.55996   0.00000  Uiso   1.00
H259   H     0.66760   0.66340   0.68013   0.00000  Uiso   1.00
H260   H     0.39132   0.65126   0.08164   0.00000  Uiso   1.00
H261   H     0.35991   0.70047   0.63967   0.00000  Uiso   1.00
H262   H     0.48973   0.65851   0.53424   0.00000  Uiso   1.00
H263   H     0.13222   0.72833   0.59123   0.00000  Uiso   1.00
H264   H     0.47543   0.72257   0.78163   0.00000  Uiso   1.00
H265   H     0.60568   0.59938   0.43610   0.00000  Uiso   1.00
H266   H     0.85186   0.74661   0.55629   0.00000  Uiso   1.00
H267   H     0.57558   0.73447   0.95779   0.00000  Uiso   1.00
O268   O     0.59503   0.52843   0.43127   0.00000  Uiso   1.00
O269   O     0.60605   0.72158   0.58895   0.00000  Uiso   1.00
O270   O     0.55555   0.70565   0.11571   0.00000  Uiso   1.00
N271   N     0.44699   0.54152   0.54529   0.00000  Uiso   1.00
N272   N     0.74222   0.67916   0.65763   0.00000  Uiso   1.00
N273   N     0.41880   0.66781   0.03301   0.00000  Uiso   1.00
N274   N     0.54614   0.58629   0.47864   0.00000  Uiso   1.00
N275   N     0.84137   0.72394   0.59099   0.00000  Uiso   1.00
N276   N     0.51795   0.71259   0.96637   0.00000  Uiso   1.00
C277   C     0.19401   0.87445   0.74882   0.00000  Uiso   1.00
C278   C     0.28798   0.88667   0.82184   0.00000  Uiso   1.00
C279   C     0.31174   0.92188   0.84612   0.00000  Uiso   1.00
C280   C     0.40119   0.92749   0.91456   0.00000  Uiso   1.00
C281   C     0.53741   0.95081   0.02150   0.00000  Uiso   1.00
C282   C     0.09373   0.84874   0.79089   0.00000  Uiso   1.00
C283   C     0.95418   0.85206   0.78914   0.00000  Uiso   1.00
C284   C     0.88011   0.82573   0.83152   0.00000  Uiso   1.00
C285   C     0.71476   0.79014   0.89035   0.00000  Uiso   1.00
C286   C     0.28022   0.85187   0.68744   0.00000  Uiso   1.00
C287   C     0.29743   0.85781   0.59870   0.00000  Uiso   1.00
C288   C     0.38034   0.83412   0.55398   0.00000  Uiso   1.00
C289   C     0.50453   0.80339   0.45219   0.00000  Uiso   1.00
C290   C     0.31061   0.82180   0.82719   0.00000  Uiso   1.00
C291   C     0.35130   0.85807   0.86441   0.00000  Uiso   1.00
C292   C     0.44074   0.86363   0.93283   0.00000  Uiso   1.00
C293   C     0.46464   0.89884   0.95721   0.00000  Uiso   1.00
C294   C     0.15706   0.82014   0.83346   0.00000  Uiso   1.00
C295   C     0.08318   0.79380   0.87584   0.00000  Uiso   1.00
C296   C     0.94355   0.79708   0.87416   0.00000  Uiso   1.00
C297   C     0.34355   0.82327   0.73001   0.00000  Uiso   1.00
C298   C     0.42644   0.79956   0.68541   0.00000  Uiso   1.00
C299   C     0.44378   0.80547   0.59662   0.00000  Uiso   1.00
H300   H     0.14470   0.89672   0.71568   0.00000  Uiso   1.00
H301   H     0.26270   0.94401   0.81317   0.00000  Uiso   1.00
H302   H     0.90520   0.87419   0.75618   0.00000  Uiso   1.00
H303   H     0.24841   0.87995   0.56578   0.00000  Uiso   1.00
H304   H     0.42142   0.98383   0.94004   0.00000  Uiso   1.00
H305   H     0.66760   0.83660   0.81987   0.00000  Uiso   1.00
H306   H     0.39132   0.84874   0.41836   0.00000  Uiso   1.00
H307   H     0.35991   0.79953   0.86033   0.00000  Uiso   1.00
H308   H     0.48973   0.84149   0.96576   0.00000  Uiso   1.00
H309   H     0.13222   0.77167   0.90877   0.00000  Uiso   1.00
H310   H     0.47543   0.77743   0.71837   0.00000  Uiso   1.00
H311   H     0.60568   0.90062   0.06390   0.00000  Uiso   1.00
H312   H     0.85186   0.75339   0.94371   0.00000  Uiso   1.00
H313   H     0.57558   0.76553   0.54221   0.00000  Uiso   1.00
O314   O     0.59503   0.97157   0.06873   0.00000  Uiso   1.00
O315   O     0.60605   0.77842   0.91105   0.00000  Uiso   1.00
O316   O     0.55555   0.79435   0.38429   0.00000  Uiso   1.00
N317   N     0.44699   0.95848   0.95471   0.00000  Uiso   1.00
N318   N     0.74222   0.82084   0.84237   0.00000  Uiso   1.00
N319   N     0.41880   0.83219   0.46699   0.00000  Uiso   1.00
N320   N     0.54614   0.91371   0.02136   0.00000  Uiso   1.00
N321   N     0.84137   0.77606   0.90901   0.00000  Uiso   1.00
N322   N     0.51795   0.78741   0.53363   0.00000  Uiso   1.00
C323   C     0.30599   0.12555   0.74882   0.00000  Uiso   1.00
C324   C     0.21202   0.11333   0.82184   0.00000  Uiso   1.00
C325   C     0.18826   0.07812   0.84612   0.00000  Uiso   1.00
C326   C     0.09881   0.07251   0.91456   0.00000  Uiso   1.00
C327   C     0.96259   0.04919   0.02150   0.00000  Uiso   1.00
C328   C     0.40627   0.15126   0.79089   0.00000  Uiso   1.00
C329   C     0.54582   0.14794   0.78914   0.00000  Uiso   1.00
C330   C     0.61989   0.17427   0.83152   0.00000  Uiso   1.00
C331   C     0.78524   0.20986   0.89035   0.00000  Uiso   1.00
C332   C     0.21978   0.14813   0.68744   0.00000  Uiso   1.00
C333   C     0.20257   0.14219   0.59870   0.00000  Uiso   1.00
C334   C     0.11966   0.16588   0.55398   0.00000  Uiso   1.00
C335   C     0.99547   0.19661   0.45219   0.00000  Uiso   1.00
C336   C     0.18939   0.17820   0.82719   0.00000  Uiso   1.00
C337   C     0.14870   0.14193   0.86441   0.00000  Uiso   1.00
C338   C     0.05926   0.13637   0.93283   0.00000  Uiso   1.00
C339   C     0.03536   0.10116   0.95721   0.00000  Uiso   1.00
C340   C     0.34294   0.17986   0.83346   0.00000  Uiso   1.00
C341   C     0.41682   0.20620   0.87584   0.00000  Uiso   1.00
C342   C     0.55645   0.20292   0.87416   0.00000  Uiso   1.00
C343   C     0.15645   0.17673   0.73001   0.00000  Uiso   1.00
C344   C     0.07356   0.20044   0.68541   0.00000  Uiso   1.00
C345   C     0.05622   0.19453   0.59662   0.00000  Uiso   1.00
H346   H     0.35530   0.10328   0.71568   0.00000  Uiso   1.00
H347   H     0.23730   0.05599   0.81317   0.00000  Uiso   1.00
H348   H     0.59480   0.12581   0.75618   0.00000  Uiso   1.00
H349   H     0.25159   0.12005   0.56578   0.00000  Uiso   1.00
H350   H     0.07858   0.01617   0.94004   0.00000  Uiso   1.00
H351   H     0.83240   0.16340   0.81987   0.00000  Uiso   1.00
H352   H     0.10868   0.15126   0.41836   0.00000  Uiso   1.00
H353   H     0.14009   0.20047   0.86033   0.00000  Uiso   1.00
H354   H     0.01027   0.15851   0.96576   0.00000  Uiso   1.00
H355   H     0.36778   0.22833   0.90877   0.00000  Uiso   1.00
H356   H     0.02457   0.22257   0.71837   0.00000  Uiso   1.00
H357   H     0.89432   0.09938   0.06390   0.00000  Uiso   1.00
H358   H     0.64814   0.24661   0.94371   0.00000  Uiso   1.00
H359   H     0.92442   0.23447   0.54221   0.00000  Uiso   1.00
O360   O     0.90497   0.02843   0.06873   0.00000  Uiso   1.00
O361   O     0.89395   0.22158   0.91105   0.00000  Uiso   1.00
O362   O     0.94445   0.20565   0.38429   0.00000  Uiso   1.00
N363   N     0.05301   0.04152   0.95471   0.00000  Uiso   1.00
N364   N     0.75778   0.17916   0.84237   0.00000  Uiso   1.00
N365   N     0.08120   0.16781   0.46699   0.00000  Uiso   1.00
N366   N     0.95386   0.08629   0.02136   0.00000  Uiso   1.00
N367   N     0.65863   0.22394   0.90901   0.00000  Uiso   1.00
N368   N     0.98205   0.21259   0.53363   0.00000  Uiso   1.00
