data_job_02477
_audit_creation_date              2018-12-19
_audit_creation_method            'Materials Studio'
_symmetry_space_group_name_H-M    'P1'
_symmetry_Int_Tables_number       1
_symmetry_cell_setting            triclinic
loop_
_symmetry_equiv_pos_as_xyz
  x,y,z
_cell_length_a                    9.9020
_cell_length_b                    10.1398
_cell_length_c                    14.9841
_cell_angle_alpha                 93.2159
_cell_angle_beta                  101.0724
_cell_angle_gamma                 74.9025
loop_
_atom_site_label
_atom_site_type_symbol
_atom_site_fract_x
_atom_site_fract_y
_atom_site_fract_z
_atom_site_U_iso_or_equiv
_atom_site_adp_type
_atom_site_occupancy
C1     C     0.52895   0.21714   0.79560   0.00000  Uiso   1.00
C2     C     0.52383   0.06827   0.79701   0.00000  Uiso   1.00
C3     C     0.62034   0.96670   0.85166   0.00000  Uiso   1.00
C4     C     0.59715   0.83694   0.84281   0.00000  Uiso   1.00
C5     C     0.60681   0.60989   0.85429   0.00000  Uiso   1.00
C6     C     0.53123   0.24705   0.69737   0.00000  Uiso   1.00
C7     C     0.63396   0.29581   0.66826   0.00000  Uiso   1.00
C8     C     0.61697   0.31657   0.57553   0.00000  Uiso   1.00
C9     C     0.63807   0.36717   0.43233   0.00000  Uiso   1.00
C10    C     0.38597   0.30195   0.81505   0.00000  Uiso   1.00
C11    C     0.36654   0.39690   0.88486   0.00000  Uiso   1.00
C12    C     0.22725   0.46390   0.89120   0.00000  Uiso   1.00
C13    C     0.02280   0.59974   0.93071   0.00000  Uiso   1.00
C14    C     0.31613   0.16732   0.68270   0.00000  Uiso   1.00
C15    C     0.40823   0.04121   0.73568   0.00000  Uiso   1.00
C16    C     0.38488   0.91158   0.72675   0.00000  Uiso   1.00
C17    C     0.48134   0.80983   0.78138   0.00000  Uiso   1.00
C18    C     0.41564   0.21999   0.63605   0.00000  Uiso   1.00
C19    C     0.39849   0.24069   0.54334   0.00000  Uiso   1.00
C20    C     0.50117   0.28946   0.51409   0.00000  Uiso   1.00
C21    C     0.27036   0.27489   0.75373   0.00000  Uiso   1.00
C22    C     0.13108   0.34177   0.75995   0.00000  Uiso   1.00
C23    C     0.11144   0.43679   0.82976   0.00000  Uiso   1.00
H24    H     0.61895   0.23821   0.84334   0.00000  Uiso   1.00
H25    H     0.70980   0.98768   0.89910   0.00000  Uiso   1.00
H26    H     0.72339   0.31676   0.71573   0.00000  Uiso   1.00
H27    H     0.45602   0.41781   0.93230   0.00000  Uiso   1.00
H28    H     0.75956   0.69798   0.93386   0.00000  Uiso   1.00
H29    H     0.78821   0.39189   0.54721   0.00000  Uiso   1.00
H30    H     0.22440   0.60500   0.00390   0.00000  Uiso   1.00
H31    H     0.22613   0.14625   0.63495   0.00000  Uiso   1.00
H32    H     0.29541   0.89067   0.67928   0.00000  Uiso   1.00
H33    H     0.30902   0.21975   0.49591   0.00000  Uiso   1.00
H34    H     0.04165   0.32080   0.71248   0.00000  Uiso   1.00
H35    H     0.42324   0.61924   0.75544   0.00000  Uiso   1.00
H36    H     0.45189   0.31316   0.36879   0.00000  Uiso   1.00
H37    H     0.88808   0.52626   0.82548   0.00000  Uiso   1.00
O38    O     0.64409   0.49213   0.87755   0.00000  Uiso   1.00
O39    O     0.68166   0.40255   0.37028   0.00000  Uiso   1.00
O40    O     0.94197   0.68213   0.96945   0.00000  Uiso   1.00
N41    N     0.67088   0.71453   0.88580   0.00000  Uiso   1.00
N42    N     0.69768   0.36328   0.52430   0.00000  Uiso   1.00
N43    N     0.17057   0.56254   0.95125   0.00000  Uiso   1.00
N44    N     0.48991   0.67216   0.78979   0.00000  Uiso   1.00
N45    N     0.51671   0.32091   0.42830   0.00000  Uiso   1.00
N46    N     0.98960   0.52017   0.85525   0.00000  Uiso   1.00
C47    C     0.47105   0.78286   0.20440   0.00000  Uiso   1.00
C48    C     0.47617   0.93173   0.20299   0.00000  Uiso   1.00
C49    C     0.37966   0.03330   0.14834   0.00000  Uiso   1.00
C50    C     0.40285   0.16306   0.15719   0.00000  Uiso   1.00
C51    C     0.39319   0.39011   0.14571   0.00000  Uiso   1.00
C52    C     0.46877   0.75295   0.30263   0.00000  Uiso   1.00
C53    C     0.36604   0.70419   0.33174   0.00000  Uiso   1.00
C54    C     0.38303   0.68343   0.42447   0.00000  Uiso   1.00
C55    C     0.36193   0.63283   0.56767   0.00000  Uiso   1.00
C56    C     0.61403   0.69805   0.18495   0.00000  Uiso   1.00
C57    C     0.63346   0.60310   0.11514   0.00000  Uiso   1.00
C58    C     0.77275   0.53610   0.10880   0.00000  Uiso   1.00
C59    C     0.97720   0.40026   0.06929   0.00000  Uiso   1.00
C60    C     0.68387   0.83268   0.31730   0.00000  Uiso   1.00
C61    C     0.59177   0.95879   0.26432   0.00000  Uiso   1.00
C62    C     0.61512   0.08842   0.27325   0.00000  Uiso   1.00
C63    C     0.51866   0.19017   0.21862   0.00000  Uiso   1.00
C64    C     0.58436   0.78001   0.36395   0.00000  Uiso   1.00
C65    C     0.60151   0.75931   0.45666   0.00000  Uiso   1.00
C66    C     0.49883   0.71054   0.48591   0.00000  Uiso   1.00
C67    C     0.72964   0.72511   0.24627   0.00000  Uiso   1.00
C68    C     0.86892   0.65823   0.24005   0.00000  Uiso   1.00
C69    C     0.88856   0.56321   0.17024   0.00000  Uiso   1.00
H70    H     0.38105   0.76179   0.15666   0.00000  Uiso   1.00
H71    H     0.29020   0.01232   0.10090   0.00000  Uiso   1.00
H72    H     0.27661   0.68324   0.28427   0.00000  Uiso   1.00
H73    H     0.54398   0.58219   0.06770   0.00000  Uiso   1.00
H74    H     0.24044   0.30202   0.06614   0.00000  Uiso   1.00
H75    H     0.21179   0.60811   0.45279   0.00000  Uiso   1.00
H76    H     0.77560   0.39500   0.99610   0.00000  Uiso   1.00
H77    H     0.77387   0.85375   0.36505   0.00000  Uiso   1.00
H78    H     0.70459   0.10933   0.32072   0.00000  Uiso   1.00
H79    H     0.69098   0.78025   0.50409   0.00000  Uiso   1.00
H80    H     0.95835   0.67920   0.28752   0.00000  Uiso   1.00
H81    H     0.57676   0.38076   0.24456   0.00000  Uiso   1.00
H82    H     0.54811   0.68684   0.63121   0.00000  Uiso   1.00
H83    H     0.11192   0.47374   0.17452   0.00000  Uiso   1.00
O84    O     0.35591   0.50787   0.12245   0.00000  Uiso   1.00
O85    O     0.31834   0.59745   0.62972   0.00000  Uiso   1.00
O86    O     0.05803   0.31787   0.03055   0.00000  Uiso   1.00
N87    N     0.32912   0.28547   0.11420   0.00000  Uiso   1.00
N88    N     0.30232   0.63672   0.47570   0.00000  Uiso   1.00
N89    N     0.82943   0.43746   0.04875   0.00000  Uiso   1.00
N90    N     0.51009   0.32784   0.21021   0.00000  Uiso   1.00
N91    N     0.48329   0.67909   0.57170   0.00000  Uiso   1.00
N92    N     0.01040   0.47983   0.14475   0.00000  Uiso   1.00
