data_job_05753
_audit_creation_date              2018-12-19
_audit_creation_method            'Materials Studio'
_symmetry_space_group_name_H-M    'P1'
_symmetry_Int_Tables_number       1
_symmetry_cell_setting            triclinic
loop_
_symmetry_equiv_pos_as_xyz
  x,y,z
_cell_length_a                    15.7500
_cell_length_b                    21.9313
_cell_length_c                    7.3532
_cell_angle_alpha                 90.0000
_cell_angle_beta                  90.0000
_cell_angle_gamma                 90.0000
loop_
_atom_site_label
_atom_site_type_symbol
_atom_site_fract_x
_atom_site_fract_y
_atom_site_fract_z
_atom_site_U_iso_or_equiv
_atom_site_adp_type
_atom_site_occupancy
C1     C     0.75172   0.42132   0.66969   0.00000  Uiso   1.00
C2     C     0.68885   0.46881   0.73905   0.00000  Uiso   1.00
C3     C     0.66019   0.51917   0.64269   0.00000  Uiso   1.00
C4     C     0.60274   0.55720   0.73009   0.00000  Uiso   1.00
C5     C     0.50937   0.63278   0.81084   0.00000  Uiso   1.00
C6     C     0.82425   0.42017   0.80704   0.00000  Uiso   1.00
C7     C     0.90943   0.42963   0.76783   0.00000  Uiso   1.00
C8     C     0.96595   0.42670   0.91247   0.00000  Uiso   1.00
C9     C     0.08279   0.42672   0.09875   0.00000  Uiso   1.00
C10    C     0.70707   0.35989   0.68679   0.00000  Uiso   1.00
C11    C     0.69375   0.31866   0.54648   0.00000  Uiso   1.00
C12    C     0.65164   0.26498   0.58989   0.00000  Uiso   1.00
C13    C     0.58655   0.17141   0.58947   0.00000  Uiso   1.00
C14    C     0.70064   0.39930   0.99628   0.00000  Uiso   1.00
C15    C     0.66111   0.45685   0.91644   0.00000  Uiso   1.00
C16    C     0.60368   0.49481   0.00402   0.00000  Uiso   1.00
C17    C     0.57494   0.54522   0.90780   0.00000  Uiso   1.00
C18    C     0.79650   0.40821   0.98443   0.00000  Uiso   1.00
C19    C     0.85291   0.40526   0.12916   0.00000  Uiso   1.00
C20    C     0.93816   0.41472   0.09018   0.00000  Uiso   1.00
C21    C     0.67932   0.34793   0.86418   0.00000  Uiso   1.00
C22    C     0.63723   0.29430   0.90782   0.00000  Uiso   1.00
C23    C     0.62384   0.25300   0.76760   0.00000  Uiso   1.00
H24    H     0.77333   0.43063   0.53159   0.00000  Uiso   1.00
H25    H     0.68169   0.52842   0.50541   0.00000  Uiso   1.00
H26    H     0.93088   0.43888   0.63054   0.00000  Uiso   1.00
H27    H     0.71523   0.32794   0.40923   0.00000  Uiso   1.00
H28    H     0.56787   0.63157   0.55465   0.00000  Uiso   1.00
H29    H     0.09332   0.44275   0.81846   0.00000  Uiso   1.00
H30    H     0.63858   0.20880   0.35179   0.00000  Uiso   1.00
H31    H     0.67904   0.38998   0.13439   0.00000  Uiso   1.00
H32    H     0.58222   0.48554   0.14129   0.00000  Uiso   1.00
H33    H     0.83142   0.39600   0.26641   0.00000  Uiso   1.00
H34    H     0.61577   0.28506   0.04511   0.00000  Uiso   1.00
H35    H     0.48714   0.59677   0.07076   0.00000  Uiso   1.00
H36    H     0.01259   0.40795   0.33456   0.00000  Uiso   1.00
H37    H     0.55786   0.17400   0.86790   0.00000  Uiso   1.00
O38    O     0.46554   0.67777   0.80639   0.00000  Uiso   1.00
O39    O     0.15490   0.43004   0.15249   0.00000  Uiso   1.00
O40    O     0.55830   0.12311   0.54023   0.00000  Uiso   1.00
N41    N     0.56215   0.61026   0.67515   0.00000  Uiso   1.00
N42    N     0.05341   0.43373   0.92181   0.00000  Uiso   1.00
N43    N     0.62829   0.21500   0.48552   0.00000  Uiso   1.00
N44    N     0.51871   0.59153   0.95287   0.00000  Uiso   1.00
N45    N     0.00997   0.41501   0.19952   0.00000  Uiso   1.00
N46    N     0.58485   0.19628   0.76323   0.00000  Uiso   1.00
C47    C     0.24828   0.57868   0.16969   0.00000  Uiso   1.00
C48    C     0.31115   0.53119   0.23905   0.00000  Uiso   1.00
C49    C     0.33981   0.48083   0.14269   0.00000  Uiso   1.00
C50    C     0.39726   0.44280   0.23009   0.00000  Uiso   1.00
C51    C     0.49063   0.36722   0.31084   0.00000  Uiso   1.00
C52    C     0.17575   0.57983   0.30704   0.00000  Uiso   1.00
C53    C     0.09057   0.57037   0.26783   0.00000  Uiso   1.00
C54    C     0.03405   0.57330   0.41247   0.00000  Uiso   1.00
C55    C     0.91721   0.57328   0.59875   0.00000  Uiso   1.00
C56    C     0.29293   0.64011   0.18679   0.00000  Uiso   1.00
C57    C     0.30625   0.68134   0.04648   0.00000  Uiso   1.00
C58    C     0.34836   0.73502   0.08989   0.00000  Uiso   1.00
C59    C     0.41345   0.82859   0.08947   0.00000  Uiso   1.00
C60    C     0.29936   0.60070   0.49628   0.00000  Uiso   1.00
C61    C     0.33889   0.54315   0.41644   0.00000  Uiso   1.00
C62    C     0.39632   0.50519   0.50402   0.00000  Uiso   1.00
C63    C     0.42506   0.45478   0.40780   0.00000  Uiso   1.00
C64    C     0.20350   0.59179   0.48443   0.00000  Uiso   1.00
C65    C     0.14709   0.59474   0.62916   0.00000  Uiso   1.00
C66    C     0.06184   0.58528   0.59018   0.00000  Uiso   1.00
C67    C     0.32068   0.65207   0.36418   0.00000  Uiso   1.00
C68    C     0.36277   0.70570   0.40782   0.00000  Uiso   1.00
C69    C     0.37616   0.74700   0.26760   0.00000  Uiso   1.00
H70    H     0.22667   0.56937   0.03159   0.00000  Uiso   1.00
H71    H     0.31831   0.47158   0.00541   0.00000  Uiso   1.00
H72    H     0.06912   0.56112   0.13054   0.00000  Uiso   1.00
H73    H     0.28477   0.67206   0.90923   0.00000  Uiso   1.00
H74    H     0.43213   0.36843   0.05465   0.00000  Uiso   1.00
H75    H     0.90668   0.55725   0.31846   0.00000  Uiso   1.00
H76    H     0.36142   0.79120   0.85179   0.00000  Uiso   1.00
H77    H     0.32096   0.61002   0.63439   0.00000  Uiso   1.00
H78    H     0.41778   0.51446   0.64129   0.00000  Uiso   1.00
H79    H     0.16858   0.60400   0.76641   0.00000  Uiso   1.00
H80    H     0.38423   0.71494   0.54511   0.00000  Uiso   1.00
H81    H     0.51286   0.40323   0.57076   0.00000  Uiso   1.00
H82    H     0.98741   0.59205   0.83456   0.00000  Uiso   1.00
H83    H     0.44214   0.82600   0.36790   0.00000  Uiso   1.00
O84    O     0.53446   0.32223   0.30639   0.00000  Uiso   1.00
O85    O     0.84510   0.56996   0.65249   0.00000  Uiso   1.00
O86    O     0.44170   0.87689   0.04023   0.00000  Uiso   1.00
N87    N     0.43785   0.38974   0.17515   0.00000  Uiso   1.00
N88    N     0.94659   0.56627   0.42181   0.00000  Uiso   1.00
N89    N     0.37171   0.78500   0.98552   0.00000  Uiso   1.00
N90    N     0.48129   0.40847   0.45287   0.00000  Uiso   1.00
N91    N     0.99003   0.58499   0.69952   0.00000  Uiso   1.00
N92    N     0.41515   0.80372   0.26323   0.00000  Uiso   1.00
C93    C     0.25172   0.07868   0.66969   0.00000  Uiso   1.00
C94    C     0.18885   0.03119   0.73905   0.00000  Uiso   1.00
C95    C     0.16019   0.98083   0.64269   0.00000  Uiso   1.00
C96    C     0.10274   0.94280   0.73009   0.00000  Uiso   1.00
C97    C     0.00937   0.86722   0.81084   0.00000  Uiso   1.00
C98    C     0.32425   0.07983   0.80704   0.00000  Uiso   1.00
C99    C     0.40943   0.07037   0.76783   0.00000  Uiso   1.00
C100   C     0.46595   0.07330   0.91247   0.00000  Uiso   1.00
C101   C     0.58279   0.07328   0.09875   0.00000  Uiso   1.00
C102   C     0.20707   0.14011   0.68679   0.00000  Uiso   1.00
C103   C     0.19375   0.18134   0.54648   0.00000  Uiso   1.00
C104   C     0.15164   0.23502   0.58989   0.00000  Uiso   1.00
C105   C     0.08655   0.32859   0.58947   0.00000  Uiso   1.00
C106   C     0.20064   0.10070   0.99628   0.00000  Uiso   1.00
C107   C     0.16111   0.04315   0.91644   0.00000  Uiso   1.00
C108   C     0.10368   0.00519   0.00402   0.00000  Uiso   1.00
C109   C     0.07494   0.95478   0.90780   0.00000  Uiso   1.00
C110   C     0.29650   0.09179   0.98443   0.00000  Uiso   1.00
C111   C     0.35291   0.09474   0.12916   0.00000  Uiso   1.00
C112   C     0.43816   0.08528   0.09018   0.00000  Uiso   1.00
C113   C     0.17932   0.15207   0.86418   0.00000  Uiso   1.00
C114   C     0.13723   0.20570   0.90782   0.00000  Uiso   1.00
C115   C     0.12384   0.24700   0.76760   0.00000  Uiso   1.00
H116   H     0.27333   0.06937   0.53159   0.00000  Uiso   1.00
H117   H     0.18169   0.97158   0.50541   0.00000  Uiso   1.00
H118   H     0.43088   0.06112   0.63054   0.00000  Uiso   1.00
H119   H     0.21523   0.17206   0.40923   0.00000  Uiso   1.00
H120   H     0.06787   0.86843   0.55465   0.00000  Uiso   1.00
H121   H     0.59332   0.05725   0.81846   0.00000  Uiso   1.00
H122   H     0.13858   0.29120   0.35179   0.00000  Uiso   1.00
H123   H     0.17904   0.11002   0.13439   0.00000  Uiso   1.00
H124   H     0.08222   0.01446   0.14129   0.00000  Uiso   1.00
H125   H     0.33142   0.10400   0.26641   0.00000  Uiso   1.00
H126   H     0.11577   0.21494   0.04511   0.00000  Uiso   1.00
H127   H     0.98714   0.90323   0.07076   0.00000  Uiso   1.00
H128   H     0.51259   0.09205   0.33456   0.00000  Uiso   1.00
H129   H     0.05786   0.32600   0.86790   0.00000  Uiso   1.00
O130   O     0.96554   0.82223   0.80639   0.00000  Uiso   1.00
O131   O     0.65490   0.06996   0.15249   0.00000  Uiso   1.00
O132   O     0.05830   0.37689   0.54023   0.00000  Uiso   1.00
N133   N     0.06215   0.88974   0.67515   0.00000  Uiso   1.00
N134   N     0.55341   0.06627   0.92181   0.00000  Uiso   1.00
N135   N     0.12829   0.28500   0.48552   0.00000  Uiso   1.00
N136   N     0.01871   0.90847   0.95287   0.00000  Uiso   1.00
N137   N     0.50997   0.08499   0.19952   0.00000  Uiso   1.00
N138   N     0.08485   0.30372   0.76323   0.00000  Uiso   1.00
C139   C     0.74828   0.92132   0.16969   0.00000  Uiso   1.00
C140   C     0.81115   0.96881   0.23905   0.00000  Uiso   1.00
C141   C     0.83981   0.01917   0.14269   0.00000  Uiso   1.00
C142   C     0.89726   0.05720   0.23009   0.00000  Uiso   1.00
C143   C     0.99063   0.13278   0.31084   0.00000  Uiso   1.00
C144   C     0.67575   0.92017   0.30704   0.00000  Uiso   1.00
C145   C     0.59057   0.92963   0.26783   0.00000  Uiso   1.00
C146   C     0.53405   0.92670   0.41247   0.00000  Uiso   1.00
C147   C     0.41721   0.92672   0.59875   0.00000  Uiso   1.00
C148   C     0.79293   0.85989   0.18679   0.00000  Uiso   1.00
C149   C     0.80625   0.81866   0.04648   0.00000  Uiso   1.00
C150   C     0.84836   0.76498   0.08989   0.00000  Uiso   1.00
C151   C     0.91345   0.67141   0.08947   0.00000  Uiso   1.00
C152   C     0.79936   0.89930   0.49628   0.00000  Uiso   1.00
C153   C     0.83889   0.95685   0.41644   0.00000  Uiso   1.00
C154   C     0.89632   0.99481   0.50402   0.00000  Uiso   1.00
C155   C     0.92506   0.04522   0.40780   0.00000  Uiso   1.00
C156   C     0.70350   0.90821   0.48443   0.00000  Uiso   1.00
C157   C     0.64709   0.90526   0.62916   0.00000  Uiso   1.00
C158   C     0.56184   0.91472   0.59018   0.00000  Uiso   1.00
C159   C     0.82068   0.84793   0.36418   0.00000  Uiso   1.00
C160   C     0.86277   0.79430   0.40782   0.00000  Uiso   1.00
C161   C     0.87616   0.75300   0.26760   0.00000  Uiso   1.00
H162   H     0.72667   0.93063   0.03159   0.00000  Uiso   1.00
H163   H     0.81831   0.02842   0.00541   0.00000  Uiso   1.00
H164   H     0.56912   0.93888   0.13054   0.00000  Uiso   1.00
H165   H     0.78477   0.82794   0.90923   0.00000  Uiso   1.00
H166   H     0.93213   0.13157   0.05465   0.00000  Uiso   1.00
H167   H     0.40668   0.94275   0.31846   0.00000  Uiso   1.00
H168   H     0.86142   0.70880   0.85179   0.00000  Uiso   1.00
H169   H     0.82096   0.88998   0.63439   0.00000  Uiso   1.00
H170   H     0.91778   0.98554   0.64129   0.00000  Uiso   1.00
H171   H     0.66858   0.89600   0.76641   0.00000  Uiso   1.00
H172   H     0.88423   0.78506   0.54511   0.00000  Uiso   1.00
H173   H     0.01286   0.09677   0.57076   0.00000  Uiso   1.00
H174   H     0.48741   0.90795   0.83456   0.00000  Uiso   1.00
H175   H     0.94214   0.67400   0.36790   0.00000  Uiso   1.00
O176   O     0.03446   0.17777   0.30639   0.00000  Uiso   1.00
O177   O     0.34510   0.93004   0.65249   0.00000  Uiso   1.00
O178   O     0.94170   0.62311   0.04023   0.00000  Uiso   1.00
N179   N     0.93785   0.11026   0.17515   0.00000  Uiso   1.00
N180   N     0.44659   0.93373   0.42181   0.00000  Uiso   1.00
N181   N     0.87171   0.71500   0.98552   0.00000  Uiso   1.00
N182   N     0.98129   0.09153   0.45287   0.00000  Uiso   1.00
N183   N     0.49003   0.91501   0.69952   0.00000  Uiso   1.00
N184   N     0.91515   0.69628   0.26323   0.00000  Uiso   1.00
