data_job_03558
_audit_creation_date              2018-12-19
_audit_creation_method            'Materials Studio'
_symmetry_space_group_name_H-M    'P1'
_symmetry_Int_Tables_number       1
_symmetry_cell_setting            triclinic
loop_
_symmetry_equiv_pos_as_xyz
  x,y,z
_cell_length_a                    11.1565
_cell_length_b                    14.8554
_cell_length_c                    19.8194
_cell_angle_alpha                 90.0000
_cell_angle_beta                  121.8040
_cell_angle_gamma                 90.0000
loop_
_atom_site_label
_atom_site_type_symbol
_atom_site_fract_x
_atom_site_fract_y
_atom_site_fract_z
_atom_site_U_iso_or_equiv
_atom_site_adp_type
_atom_site_occupancy
C1     C     0.13344   0.28760   0.83804   0.00000  Uiso   1.00
C2     C     0.00201   0.32907   0.76742   0.00000  Uiso   1.00
C3     C     0.89378   0.28197   0.70407   0.00000  Uiso   1.00
C4     C     0.78271   0.33225   0.64535   0.00000  Uiso   1.00
C5     C     0.57906   0.38234   0.53499   0.00000  Uiso   1.00
C6     C     0.25883   0.33227   0.84059   0.00000  Uiso   1.00
C7     C     0.36655   0.28787   0.83878   0.00000  Uiso   1.00
C8     C     0.47169   0.34085   0.84167   0.00000  Uiso   1.00
C9     C     0.66681   0.39591   0.84496   0.00000  Uiso   1.00
C10    C     0.13621   0.32004   0.91184   0.00000  Uiso   1.00
C11    C     0.14087   0.26536   0.96995   0.00000  Uiso   1.00
C12    C     0.14280   0.30804   0.03285   0.00000  Uiso   1.00
C13    C     0.14754   0.34412   0.14677   0.00000  Uiso   1.00
C14    C     0.12865   0.46064   0.84641   0.00000  Uiso   1.00
C15    C     0.99941   0.42306   0.77197   0.00000  Uiso   1.00
C16    C     0.88848   0.47342   0.71333   0.00000  Uiso   1.00
C17    C     0.78010   0.42640   0.64991   0.00000  Uiso   1.00
C18    C     0.25624   0.42626   0.84514   0.00000  Uiso   1.00
C19    C     0.36125   0.47932   0.84804   0.00000  Uiso   1.00
C20    C     0.46908   0.43500   0.84622   0.00000  Uiso   1.00
C21    C     0.13361   0.41403   0.91639   0.00000  Uiso   1.00
C22    C     0.13555   0.45681   0.97921   0.00000  Uiso   1.00
C23    C     0.14020   0.40220   0.03740   0.00000  Uiso   1.00
H24    H     0.13548   0.21443   0.83450   0.00000  Uiso   1.00
H25    H     0.89584   0.20923   0.70057   0.00000  Uiso   1.00
H26    H     0.36854   0.21513   0.83527   0.00000  Uiso   1.00
H27    H     0.14288   0.19263   0.96641   0.00000  Uiso   1.00
H28    H     0.62903   0.24493   0.55407   0.00000  Uiso   1.00
H29    H     0.62577   0.25736   0.83811   0.00000  Uiso   1.00
H30    H     0.14993   0.20991   0.11467   0.00000  Uiso   1.00
H31    H     0.12663   0.53382   0.84995   0.00000  Uiso   1.00
H32    H     0.88649   0.54615   0.71687   0.00000  Uiso   1.00
H33    H     0.35920   0.55205   0.85156   0.00000  Uiso   1.00
H34    H     0.13354   0.52954   0.98271   0.00000  Uiso   1.00
H35    H     0.62145   0.51838   0.56730   0.00000  Uiso   1.00
H36    H     0.61820   0.53081   0.85134   0.00000  Uiso   1.00
H37    H     0.14235   0.48336   0.12790   0.00000  Uiso   1.00
O38    O     0.46746   0.38401   0.47285   0.00000  Uiso   1.00
O39    O     0.77515   0.40032   0.84551   0.00000  Uiso   1.00
O40    O     0.15085   0.33806   0.20834   0.00000  Uiso   1.00
N41    N     0.66019   0.30759   0.57546   0.00000  Uiso   1.00
N42    N     0.59207   0.31922   0.84100   0.00000  Uiso   1.00
N43    N     0.14723   0.27485   0.09957   0.00000  Uiso   1.00
N44    N     0.65611   0.45474   0.58258   0.00000  Uiso   1.00
N45    N     0.58799   0.46636   0.84812   0.00000  Uiso   1.00
N46    N     0.14315   0.42199   0.10669   0.00000  Uiso   1.00
C47    C     0.86656   0.78760   0.66196   0.00000  Uiso   1.00
C48    C     0.99799   0.82907   0.73258   0.00000  Uiso   1.00
C49    C     0.10622   0.78197   0.79593   0.00000  Uiso   1.00
C50    C     0.21729   0.83225   0.85465   0.00000  Uiso   1.00
C51    C     0.42094   0.88234   0.96501   0.00000  Uiso   1.00
C52    C     0.74117   0.83227   0.65941   0.00000  Uiso   1.00
C53    C     0.63345   0.78787   0.66122   0.00000  Uiso   1.00
C54    C     0.52831   0.84085   0.65833   0.00000  Uiso   1.00
C55    C     0.33319   0.89591   0.65504   0.00000  Uiso   1.00
C56    C     0.86379   0.82004   0.58816   0.00000  Uiso   1.00
C57    C     0.85913   0.76536   0.53005   0.00000  Uiso   1.00
C58    C     0.85720   0.80804   0.46715   0.00000  Uiso   1.00
C59    C     0.85246   0.84412   0.35323   0.00000  Uiso   1.00
C60    C     0.87135   0.96064   0.65359   0.00000  Uiso   1.00
C61    C     0.00059   0.92306   0.72803   0.00000  Uiso   1.00
C62    C     0.11152   0.97342   0.78667   0.00000  Uiso   1.00
C63    C     0.21990   0.92640   0.85009   0.00000  Uiso   1.00
C64    C     0.74376   0.92626   0.65486   0.00000  Uiso   1.00
C65    C     0.63875   0.97932   0.65196   0.00000  Uiso   1.00
C66    C     0.53092   0.93500   0.65378   0.00000  Uiso   1.00
C67    C     0.86639   0.91403   0.58361   0.00000  Uiso   1.00
C68    C     0.86445   0.95681   0.52079   0.00000  Uiso   1.00
C69    C     0.85980   0.90220   0.46260   0.00000  Uiso   1.00
H70    H     0.86452   0.71443   0.66550   0.00000  Uiso   1.00
H71    H     0.10416   0.70923   0.79943   0.00000  Uiso   1.00
H72    H     0.63146   0.71513   0.66473   0.00000  Uiso   1.00
H73    H     0.85712   0.69263   0.53359   0.00000  Uiso   1.00
H74    H     0.37097   0.74493   0.94593   0.00000  Uiso   1.00
H75    H     0.37423   0.75736   0.66189   0.00000  Uiso   1.00
H76    H     0.85007   0.70991   0.38533   0.00000  Uiso   1.00
H77    H     0.87337   0.03382   0.65005   0.00000  Uiso   1.00
H78    H     0.11351   0.04615   0.78313   0.00000  Uiso   1.00
H79    H     0.64080   0.05205   0.64844   0.00000  Uiso   1.00
H80    H     0.86646   0.02954   0.51729   0.00000  Uiso   1.00
H81    H     0.37855   0.01838   0.93270   0.00000  Uiso   1.00
H82    H     0.38180   0.03081   0.64866   0.00000  Uiso   1.00
H83    H     0.85765   0.98336   0.37210   0.00000  Uiso   1.00
O84    O     0.53254   0.88401   0.02715   0.00000  Uiso   1.00
O85    O     0.22485   0.90032   0.65449   0.00000  Uiso   1.00
O86    O     0.84915   0.83806   0.29166   0.00000  Uiso   1.00
N87    N     0.33981   0.80759   0.92454   0.00000  Uiso   1.00
N88    N     0.40793   0.81922   0.65900   0.00000  Uiso   1.00
N89    N     0.85277   0.77485   0.40043   0.00000  Uiso   1.00
N90    N     0.34389   0.95474   0.91742   0.00000  Uiso   1.00
N91    N     0.41201   0.96636   0.65188   0.00000  Uiso   1.00
N92    N     0.85685   0.92199   0.39331   0.00000  Uiso   1.00
C93    C     0.86656   0.71240   0.16196   0.00000  Uiso   1.00
C94    C     0.99799   0.67093   0.23258   0.00000  Uiso   1.00
C95    C     0.10622   0.71803   0.29593   0.00000  Uiso   1.00
C96    C     0.21729   0.66775   0.35465   0.00000  Uiso   1.00
C97    C     0.42094   0.61766   0.46501   0.00000  Uiso   1.00
C98    C     0.74117   0.66773   0.15941   0.00000  Uiso   1.00
C99    C     0.63345   0.71213   0.16122   0.00000  Uiso   1.00
C100   C     0.52831   0.65915   0.15833   0.00000  Uiso   1.00
C101   C     0.33319   0.60409   0.15504   0.00000  Uiso   1.00
C102   C     0.86379   0.67996   0.08816   0.00000  Uiso   1.00
C103   C     0.85913   0.73464   0.03005   0.00000  Uiso   1.00
C104   C     0.85720   0.69196   0.96715   0.00000  Uiso   1.00
C105   C     0.85246   0.65588   0.85323   0.00000  Uiso   1.00
C106   C     0.87135   0.53936   0.15359   0.00000  Uiso   1.00
C107   C     0.00059   0.57694   0.22803   0.00000  Uiso   1.00
C108   C     0.11152   0.52658   0.28667   0.00000  Uiso   1.00
C109   C     0.21990   0.57360   0.35009   0.00000  Uiso   1.00
C110   C     0.74376   0.57374   0.15486   0.00000  Uiso   1.00
C111   C     0.63875   0.52068   0.15196   0.00000  Uiso   1.00
C112   C     0.53092   0.56500   0.15378   0.00000  Uiso   1.00
C113   C     0.86639   0.58597   0.08361   0.00000  Uiso   1.00
C114   C     0.86445   0.54319   0.02079   0.00000  Uiso   1.00
C115   C     0.85980   0.59780   0.96260   0.00000  Uiso   1.00
H116   H     0.86452   0.78557   0.16550   0.00000  Uiso   1.00
H117   H     0.10416   0.79077   0.29943   0.00000  Uiso   1.00
H118   H     0.63146   0.78487   0.16473   0.00000  Uiso   1.00
H119   H     0.85712   0.80737   0.03359   0.00000  Uiso   1.00
H120   H     0.37097   0.75507   0.44593   0.00000  Uiso   1.00
H121   H     0.37423   0.74264   0.16189   0.00000  Uiso   1.00
H122   H     0.85007   0.79009   0.88533   0.00000  Uiso   1.00
H123   H     0.87337   0.46618   0.15005   0.00000  Uiso   1.00
H124   H     0.11351   0.45385   0.28313   0.00000  Uiso   1.00
H125   H     0.64080   0.44795   0.14844   0.00000  Uiso   1.00
H126   H     0.86646   0.47046   0.01729   0.00000  Uiso   1.00
H127   H     0.37855   0.48162   0.43270   0.00000  Uiso   1.00
H128   H     0.38180   0.46919   0.14866   0.00000  Uiso   1.00
H129   H     0.85765   0.51664   0.87210   0.00000  Uiso   1.00
O130   O     0.53254   0.61599   0.52715   0.00000  Uiso   1.00
O131   O     0.22485   0.59968   0.15449   0.00000  Uiso   1.00
O132   O     0.84915   0.66194   0.79166   0.00000  Uiso   1.00
N133   N     0.33981   0.69241   0.42454   0.00000  Uiso   1.00
N134   N     0.40793   0.68078   0.15900   0.00000  Uiso   1.00
N135   N     0.85277   0.72515   0.90043   0.00000  Uiso   1.00
N136   N     0.34389   0.54526   0.41742   0.00000  Uiso   1.00
N137   N     0.41201   0.53364   0.15188   0.00000  Uiso   1.00
N138   N     0.85685   0.57801   0.89331   0.00000  Uiso   1.00
C139   C     0.13344   0.21240   0.33804   0.00000  Uiso   1.00
C140   C     0.00201   0.17093   0.26742   0.00000  Uiso   1.00
C141   C     0.89378   0.21803   0.20407   0.00000  Uiso   1.00
C142   C     0.78271   0.16775   0.14535   0.00000  Uiso   1.00
C143   C     0.57906   0.11766   0.03499   0.00000  Uiso   1.00
C144   C     0.25883   0.16773   0.34059   0.00000  Uiso   1.00
C145   C     0.36655   0.21213   0.33878   0.00000  Uiso   1.00
C146   C     0.47169   0.15915   0.34167   0.00000  Uiso   1.00
C147   C     0.66681   0.10409   0.34496   0.00000  Uiso   1.00
C148   C     0.13621   0.17996   0.41184   0.00000  Uiso   1.00
C149   C     0.14087   0.23464   0.46995   0.00000  Uiso   1.00
C150   C     0.14280   0.19196   0.53285   0.00000  Uiso   1.00
C151   C     0.14754   0.15588   0.64677   0.00000  Uiso   1.00
C152   C     0.12865   0.03936   0.34641   0.00000  Uiso   1.00
C153   C     0.99941   0.07694   0.27197   0.00000  Uiso   1.00
C154   C     0.88848   0.02658   0.21333   0.00000  Uiso   1.00
C155   C     0.78010   0.07360   0.14991   0.00000  Uiso   1.00
C156   C     0.25624   0.07374   0.34514   0.00000  Uiso   1.00
C157   C     0.36125   0.02068   0.34804   0.00000  Uiso   1.00
C158   C     0.46908   0.06500   0.34622   0.00000  Uiso   1.00
C159   C     0.13361   0.08597   0.41639   0.00000  Uiso   1.00
C160   C     0.13555   0.04319   0.47921   0.00000  Uiso   1.00
C161   C     0.14020   0.09780   0.53740   0.00000  Uiso   1.00
H162   H     0.13548   0.28557   0.33450   0.00000  Uiso   1.00
H163   H     0.89584   0.29077   0.20057   0.00000  Uiso   1.00
H164   H     0.36854   0.28487   0.33527   0.00000  Uiso   1.00
H165   H     0.14288   0.30737   0.46641   0.00000  Uiso   1.00
H166   H     0.62903   0.25507   0.05407   0.00000  Uiso   1.00
H167   H     0.62577   0.24264   0.33811   0.00000  Uiso   1.00
H168   H     0.14993   0.29009   0.61467   0.00000  Uiso   1.00
H169   H     0.12663   0.96618   0.34995   0.00000  Uiso   1.00
H170   H     0.88649   0.95385   0.21687   0.00000  Uiso   1.00
H171   H     0.35920   0.94795   0.35156   0.00000  Uiso   1.00
H172   H     0.13354   0.97046   0.48271   0.00000  Uiso   1.00
H173   H     0.62145   0.98162   0.06730   0.00000  Uiso   1.00
H174   H     0.61820   0.96919   0.35134   0.00000  Uiso   1.00
H175   H     0.14235   0.01664   0.62790   0.00000  Uiso   1.00
O176   O     0.46746   0.11599   0.97285   0.00000  Uiso   1.00
O177   O     0.77515   0.09968   0.34551   0.00000  Uiso   1.00
O178   O     0.15085   0.16194   0.70834   0.00000  Uiso   1.00
N179   N     0.66019   0.19241   0.07546   0.00000  Uiso   1.00
N180   N     0.59207   0.18078   0.34100   0.00000  Uiso   1.00
N181   N     0.14723   0.22515   0.59957   0.00000  Uiso   1.00
N182   N     0.65611   0.04526   0.08258   0.00000  Uiso   1.00
N183   N     0.58799   0.03364   0.34812   0.00000  Uiso   1.00
N184   N     0.14315   0.07801   0.60669   0.00000  Uiso   1.00
