data_job_00770
_audit_creation_date              2018-12-19
_audit_creation_method            'Materials Studio'
_symmetry_space_group_name_H-M    'P1'
_symmetry_Int_Tables_number       1
_symmetry_cell_setting            triclinic
loop_
_symmetry_equiv_pos_as_xyz
  x,y,z
_cell_length_a                    11.1587
_cell_length_b                    15.8191
_cell_length_c                    22.1533
_cell_angle_alpha                 90.0000
_cell_angle_beta                  138.6045
_cell_angle_gamma                 90.0000
loop_
_atom_site_label
_atom_site_type_symbol
_atom_site_fract_x
_atom_site_fract_y
_atom_site_fract_z
_atom_site_U_iso_or_equiv
_atom_site_adp_type
_atom_site_occupancy
C1     C     0.32630   0.73750   0.16642   0.00000  Uiso   1.00
C2     C     0.40525   0.81164   0.23153   0.00000  Uiso   1.00
C3     C     0.58608   0.83573   0.30053   0.00000  Uiso   1.00
C4     C     0.63110   0.90530   0.35268   0.00000  Uiso   1.00
C5     C     0.77366   0.01372   0.45629   0.00000  Uiso   1.00
C6     C     0.23101   0.68174   0.17673   0.00000  Uiso   1.00
C7     C     0.26532   0.59661   0.19964   0.00000  Uiso   1.00
C8     C     0.16364   0.55683   0.20565   0.00000  Uiso   1.00
C9     C     0.03559   0.46357   0.22412   0.00000  Uiso   1.00
C10    C     0.17707   0.77443   0.07039   0.00000  Uiso   1.00
C11    C     0.16601   0.76723   0.00388   0.00000  Uiso   1.00
C12    C     0.01888   0.80548   0.92034   0.00000  Uiso   1.00
C13    C     0.80710   0.85614   0.77370   0.00000  Uiso   1.00
C14    C     0.08468   0.81822   0.13632   0.00000  Uiso   1.00
C15    C     0.27400   0.85548   0.21518   0.00000  Uiso   1.00
C16    C     0.31875   0.92503   0.26723   0.00000  Uiso   1.00
C17    C     0.49962   0.94923   0.33630   0.00000  Uiso   1.00
C18    C     0.09977   0.72558   0.16038   0.00000  Uiso   1.00
C19    C     0.99799   0.68591   0.16635   0.00000  Uiso   1.00
C20    C     0.03216   0.60075   0.18927   0.00000  Uiso   1.00
C21    C     0.04583   0.81828   0.05404   0.00000  Uiso   1.00
C22    C     0.89868   0.85654   0.97058   0.00000  Uiso   1.00
C23    C     0.88740   0.84940   0.90397   0.00000  Uiso   1.00
H24    H     0.42848   0.70336   0.17915   0.00000  Uiso   1.00
H25    H     0.68761   0.80178   0.31317   0.00000  Uiso   1.00
H26    H     0.36688   0.56270   0.21228   0.00000  Uiso   1.00
H27    H     0.26759   0.73330   0.01655   0.00000  Uiso   1.00
H28    H     0.91704   0.93021   0.45456   0.00000  Uiso   1.00
H29    H     0.24073   0.42609   0.24182   0.00000  Uiso   1.00
H30    H     0.03135   0.78582   0.82908   0.00000  Uiso   1.00
H31    H     0.98249   0.85235   0.12359   0.00000  Uiso   1.00
H32    H     0.21716   0.95895   0.25457   0.00000  Uiso   1.00
H33    H     0.89644   0.71986   0.15369   0.00000  Uiso   1.00
H34    H     0.79714   0.89046   0.95796   0.00000  Uiso   1.00
H35    H     0.53521   0.05777   0.40701   0.00000  Uiso   1.00
H36    H     0.85889   0.55364   0.19426   0.00000  Uiso   1.00
H37    H     0.64952   0.91338   0.78152   0.00000  Uiso   1.00
O38    O     0.88855   0.06140   0.51796   0.00000  Uiso   1.00
O39    O     0.00124   0.40001   0.23883   0.00000  Uiso   1.00
O40    O     0.72654   0.87198   0.69734   0.00000  Uiso   1.00
N41    N     0.79497   0.94561   0.42538   0.00000  Uiso   1.00
N42    N     0.16268   0.47429   0.22650   0.00000  Uiso   1.00
N43    N     0.96690   0.81060   0.84061   0.00000  Uiso   1.00
N44    N     0.58951   0.01425   0.39979   0.00000  Uiso   1.00
N45    N     0.95722   0.54293   0.20091   0.00000  Uiso   1.00
N46    N     0.76144   0.87924   0.81502   0.00000  Uiso   1.00
C47    C     0.67370   0.23750   0.33358   0.00000  Uiso   1.00
C48    C     0.59475   0.31164   0.26847   0.00000  Uiso   1.00
C49    C     0.41392   0.33573   0.19947   0.00000  Uiso   1.00
C50    C     0.36890   0.40530   0.14732   0.00000  Uiso   1.00
C51    C     0.22634   0.51372   0.04371   0.00000  Uiso   1.00
C52    C     0.76899   0.18174   0.32327   0.00000  Uiso   1.00
C53    C     0.73468   0.09661   0.30036   0.00000  Uiso   1.00
C54    C     0.83636   0.05683   0.29435   0.00000  Uiso   1.00
C55    C     0.96441   0.96357   0.27588   0.00000  Uiso   1.00
C56    C     0.82293   0.27443   0.42961   0.00000  Uiso   1.00
C57    C     0.83399   0.26723   0.49612   0.00000  Uiso   1.00
C58    C     0.98112   0.30548   0.57966   0.00000  Uiso   1.00
C59    C     0.19290   0.35614   0.72630   0.00000  Uiso   1.00
C60    C     0.91532   0.31822   0.36368   0.00000  Uiso   1.00
C61    C     0.72600   0.35548   0.28482   0.00000  Uiso   1.00
C62    C     0.68125   0.42503   0.23277   0.00000  Uiso   1.00
C63    C     0.50038   0.44923   0.16370   0.00000  Uiso   1.00
C64    C     0.90023   0.22558   0.33962   0.00000  Uiso   1.00
C65    C     0.00201   0.18591   0.33365   0.00000  Uiso   1.00
C66    C     0.96784   0.10075   0.31073   0.00000  Uiso   1.00
C67    C     0.95417   0.31828   0.44596   0.00000  Uiso   1.00
C68    C     0.10132   0.35654   0.52942   0.00000  Uiso   1.00
C69    C     0.11260   0.34940   0.59603   0.00000  Uiso   1.00
H70    H     0.57152   0.20336   0.32085   0.00000  Uiso   1.00
H71    H     0.31239   0.30178   0.18683   0.00000  Uiso   1.00
H72    H     0.63312   0.06270   0.28772   0.00000  Uiso   1.00
H73    H     0.73241   0.23330   0.48345   0.00000  Uiso   1.00
H74    H     0.08296   0.43021   0.04544   0.00000  Uiso   1.00
H75    H     0.75927   0.92609   0.25818   0.00000  Uiso   1.00
H76    H     0.96865   0.28582   0.67092   0.00000  Uiso   1.00
H77    H     0.01751   0.35235   0.37641   0.00000  Uiso   1.00
H78    H     0.78284   0.45895   0.24543   0.00000  Uiso   1.00
H79    H     0.10356   0.21986   0.34631   0.00000  Uiso   1.00
H80    H     0.20286   0.39046   0.54204   0.00000  Uiso   1.00
H81    H     0.46479   0.55777   0.09299   0.00000  Uiso   1.00
H82    H     0.14111   0.05364   0.30574   0.00000  Uiso   1.00
H83    H     0.35048   0.41338   0.71848   0.00000  Uiso   1.00
O84    O     0.11145   0.56140   0.98204   0.00000  Uiso   1.00
O85    O     0.99876   0.90001   0.26117   0.00000  Uiso   1.00
O86    O     0.27346   0.37198   0.80266   0.00000  Uiso   1.00
N87    N     0.20503   0.44561   0.07462   0.00000  Uiso   1.00
N88    N     0.83732   0.97429   0.27350   0.00000  Uiso   1.00
N89    N     0.03310   0.31060   0.65939   0.00000  Uiso   1.00
N90    N     0.41049   0.51425   0.10021   0.00000  Uiso   1.00
N91    N     0.04278   0.04293   0.29909   0.00000  Uiso   1.00
N92    N     0.23856   0.37924   0.68498   0.00000  Uiso   1.00
C93    C     0.67370   0.26250   0.83358   0.00000  Uiso   1.00
C94    C     0.59475   0.18836   0.76847   0.00000  Uiso   1.00
C95    C     0.41392   0.16427   0.69947   0.00000  Uiso   1.00
C96    C     0.36890   0.09470   0.64732   0.00000  Uiso   1.00
C97    C     0.22634   0.98628   0.54371   0.00000  Uiso   1.00
C98    C     0.76899   0.31826   0.82327   0.00000  Uiso   1.00
C99    C     0.73468   0.40339   0.80036   0.00000  Uiso   1.00
C100   C     0.83636   0.44317   0.79435   0.00000  Uiso   1.00
C101   C     0.96441   0.53643   0.77588   0.00000  Uiso   1.00
C102   C     0.82293   0.22557   0.92961   0.00000  Uiso   1.00
C103   C     0.83399   0.23277   0.99612   0.00000  Uiso   1.00
C104   C     0.98112   0.19452   0.07966   0.00000  Uiso   1.00
C105   C     0.19290   0.14386   0.22630   0.00000  Uiso   1.00
C106   C     0.91532   0.18178   0.86368   0.00000  Uiso   1.00
C107   C     0.72600   0.14452   0.78482   0.00000  Uiso   1.00
C108   C     0.68125   0.07497   0.73277   0.00000  Uiso   1.00
C109   C     0.50038   0.05077   0.66370   0.00000  Uiso   1.00
C110   C     0.90023   0.27442   0.83962   0.00000  Uiso   1.00
C111   C     0.00201   0.31409   0.83365   0.00000  Uiso   1.00
C112   C     0.96784   0.39925   0.81073   0.00000  Uiso   1.00
C113   C     0.95417   0.18172   0.94596   0.00000  Uiso   1.00
C114   C     0.10132   0.14346   0.02942   0.00000  Uiso   1.00
C115   C     0.11260   0.15060   0.09603   0.00000  Uiso   1.00
H116   H     0.57152   0.29664   0.82085   0.00000  Uiso   1.00
H117   H     0.31239   0.19822   0.68683   0.00000  Uiso   1.00
H118   H     0.63312   0.43730   0.78772   0.00000  Uiso   1.00
H119   H     0.73241   0.26670   0.98345   0.00000  Uiso   1.00
H120   H     0.08296   0.06979   0.54544   0.00000  Uiso   1.00
H121   H     0.75927   0.57391   0.75818   0.00000  Uiso   1.00
H122   H     0.96865   0.21418   0.17092   0.00000  Uiso   1.00
H123   H     0.01751   0.14765   0.87641   0.00000  Uiso   1.00
H124   H     0.78284   0.04105   0.74543   0.00000  Uiso   1.00
H125   H     0.10356   0.28014   0.84631   0.00000  Uiso   1.00
H126   H     0.20286   0.10954   0.04204   0.00000  Uiso   1.00
H127   H     0.46479   0.94223   0.59299   0.00000  Uiso   1.00
H128   H     0.14111   0.44636   0.80574   0.00000  Uiso   1.00
H129   H     0.35048   0.08662   0.21848   0.00000  Uiso   1.00
O130   O     0.11145   0.93860   0.48204   0.00000  Uiso   1.00
O131   O     0.99876   0.59999   0.76117   0.00000  Uiso   1.00
O132   O     0.27346   0.12802   0.30266   0.00000  Uiso   1.00
N133   N     0.20503   0.05439   0.57462   0.00000  Uiso   1.00
N134   N     0.83732   0.52571   0.77350   0.00000  Uiso   1.00
N135   N     0.03310   0.18940   0.15939   0.00000  Uiso   1.00
N136   N     0.41049   0.98575   0.60021   0.00000  Uiso   1.00
N137   N     0.04278   0.45707   0.79909   0.00000  Uiso   1.00
N138   N     0.23856   0.12076   0.18498   0.00000  Uiso   1.00
C139   C     0.32630   0.76250   0.66642   0.00000  Uiso   1.00
C140   C     0.40525   0.68836   0.73153   0.00000  Uiso   1.00
C141   C     0.58608   0.66427   0.80053   0.00000  Uiso   1.00
C142   C     0.63110   0.59470   0.85268   0.00000  Uiso   1.00
C143   C     0.77366   0.48628   0.95629   0.00000  Uiso   1.00
C144   C     0.23101   0.81826   0.67673   0.00000  Uiso   1.00
C145   C     0.26532   0.90339   0.69964   0.00000  Uiso   1.00
C146   C     0.16364   0.94317   0.70565   0.00000  Uiso   1.00
C147   C     0.03559   0.03643   0.72412   0.00000  Uiso   1.00
C148   C     0.17707   0.72557   0.57039   0.00000  Uiso   1.00
C149   C     0.16601   0.73277   0.50388   0.00000  Uiso   1.00
C150   C     0.01888   0.69452   0.42034   0.00000  Uiso   1.00
C151   C     0.80710   0.64386   0.27370   0.00000  Uiso   1.00
C152   C     0.08468   0.68178   0.63632   0.00000  Uiso   1.00
C153   C     0.27400   0.64452   0.71518   0.00000  Uiso   1.00
C154   C     0.31875   0.57497   0.76723   0.00000  Uiso   1.00
C155   C     0.49962   0.55077   0.83630   0.00000  Uiso   1.00
C156   C     0.09977   0.77442   0.66038   0.00000  Uiso   1.00
C157   C     0.99799   0.81409   0.66635   0.00000  Uiso   1.00
C158   C     0.03216   0.89925   0.68927   0.00000  Uiso   1.00
C159   C     0.04583   0.68172   0.55404   0.00000  Uiso   1.00
C160   C     0.89868   0.64346   0.47058   0.00000  Uiso   1.00
C161   C     0.88740   0.65060   0.40397   0.00000  Uiso   1.00
H162   H     0.42848   0.79664   0.67915   0.00000  Uiso   1.00
H163   H     0.68761   0.69822   0.81317   0.00000  Uiso   1.00
H164   H     0.36688   0.93730   0.71228   0.00000  Uiso   1.00
H165   H     0.26759   0.76670   0.51655   0.00000  Uiso   1.00
H166   H     0.91704   0.56979   0.95456   0.00000  Uiso   1.00
H167   H     0.24073   0.07391   0.74182   0.00000  Uiso   1.00
H168   H     0.03135   0.71418   0.32908   0.00000  Uiso   1.00
H169   H     0.98249   0.64765   0.62359   0.00000  Uiso   1.00
H170   H     0.21716   0.54105   0.75457   0.00000  Uiso   1.00
H171   H     0.89644   0.78014   0.65369   0.00000  Uiso   1.00
H172   H     0.79714   0.60954   0.45796   0.00000  Uiso   1.00
H173   H     0.53521   0.44223   0.90701   0.00000  Uiso   1.00
H174   H     0.85889   0.94636   0.69426   0.00000  Uiso   1.00
H175   H     0.64952   0.58662   0.28152   0.00000  Uiso   1.00
O176   O     0.88855   0.43860   0.01796   0.00000  Uiso   1.00
O177   O     0.00124   0.09999   0.73883   0.00000  Uiso   1.00
O178   O     0.72654   0.62802   0.19734   0.00000  Uiso   1.00
N179   N     0.79497   0.55439   0.92538   0.00000  Uiso   1.00
N180   N     0.16268   0.02571   0.72650   0.00000  Uiso   1.00
N181   N     0.96690   0.68940   0.34061   0.00000  Uiso   1.00
N182   N     0.58951   0.48575   0.89979   0.00000  Uiso   1.00
N183   N     0.95722   0.95707   0.70091   0.00000  Uiso   1.00
N184   N     0.76144   0.62076   0.31502   0.00000  Uiso   1.00
