data_job_03075
_audit_creation_date              2018-12-19
_audit_creation_method            'Materials Studio'
_symmetry_space_group_name_H-M    'P1'
_symmetry_Int_Tables_number       1
_symmetry_cell_setting            triclinic
loop_
_symmetry_equiv_pos_as_xyz
  x,y,z
_cell_length_a                    13.5943
_cell_length_b                    21.9787
_cell_length_c                    23.5662
_cell_angle_alpha                 90.0000
_cell_angle_beta                  90.0000
_cell_angle_gamma                 90.0000
loop_
_atom_site_label
_atom_site_type_symbol
_atom_site_fract_x
_atom_site_fract_y
_atom_site_fract_z
_atom_site_U_iso_or_equiv
_atom_site_adp_type
_atom_site_occupancy
C1     C     0.60750   0.58923   0.88155   0.00000  Uiso   1.00
C2     C     0.66205   0.56320   0.93262   0.00000  Uiso   1.00
C3     C     0.64218   0.57631   0.98907   0.00000  Uiso   1.00
C4     C     0.70044   0.54785   0.02953   0.00000  Uiso   1.00
C5     C     0.77371   0.51357   0.11118   0.00000  Uiso   1.00
C6     C     0.68556   0.61926   0.84447   0.00000  Uiso   1.00
C7     C     0.68544   0.67949   0.82680   0.00000  Uiso   1.00
C8     C     0.76349   0.69822   0.79305   0.00000  Uiso   1.00
C9     C     0.87322   0.75095   0.73781   0.00000  Uiso   1.00
C10    C     0.57001   0.53462   0.84801   0.00000  Uiso   1.00
C11    C     0.47275   0.52369   0.83331   0.00000  Uiso   1.00
C12    C     0.45352   0.47115   0.80253   0.00000  Uiso   1.00
C13    C     0.38384   0.39247   0.75279   0.00000  Uiso   1.00
C14    C     0.74630   0.51537   0.85302   0.00000  Uiso   1.00
C15    C     0.73744   0.52309   0.91712   0.00000  Uiso   1.00
C16    C     0.79575   0.49460   0.95750   0.00000  Uiso   1.00
C17    C     0.77596   0.50766   0.01401   0.00000  Uiso   1.00
C18    C     0.76095   0.57914   0.82897   0.00000  Uiso   1.00
C19    C     0.83901   0.59778   0.79523   0.00000  Uiso   1.00
C20    C     0.83902   0.65803   0.77752   0.00000  Uiso   1.00
C21    C     0.64540   0.49450   0.83251   0.00000  Uiso   1.00
C22    C     0.62632   0.44197   0.80174   0.00000  Uiso   1.00
C23    C     0.52904   0.43097   0.78700   0.00000  Uiso   1.00
H24    H     0.54881   0.62046   0.89362   0.00000  Uiso   1.00
H25    H     0.58384   0.60737   0.00105   0.00000  Uiso   1.00
H26    H     0.62709   0.71053   0.83880   0.00000  Uiso   1.00
H27    H     0.41443   0.55474   0.84531   0.00000  Uiso   1.00
H28    H     0.65594   0.57517   0.11333   0.00000  Uiso   1.00
H29    H     0.74712   0.79269   0.77120   0.00000  Uiso   1.00
H30    H     0.29869   0.46419   0.78492   0.00000  Uiso   1.00
H31    H     0.80500   0.48414   0.84095   0.00000  Uiso   1.00
H32    H     0.85408   0.46356   0.94549   0.00000  Uiso   1.00
H33    H     0.89734   0.56672   0.78324   0.00000  Uiso   1.00
H34    H     0.68468   0.41094   0.78975   0.00000  Uiso   1.00
H35    H     0.87529   0.45845   0.06823   0.00000  Uiso   1.00
H36    H     0.96647   0.67597   0.72610   0.00000  Uiso   1.00
H37    H     0.51803   0.34747   0.73983   0.00000  Uiso   1.00
O38    O     0.79330   0.50575   0.16050   0.00000  Uiso   1.00
O39    O     0.91292   0.79112   0.71163   0.00000  Uiso   1.00
O40    O     0.32458   0.36014   0.72964   0.00000  Uiso   1.00
N41    N     0.70082   0.55051   0.08837   0.00000  Uiso   1.00
N42    N     0.78607   0.75388   0.76850   0.00000  Uiso   1.00
N43    N     0.36683   0.44677   0.78132   0.00000  Uiso   1.00
N44    N     0.81884   0.48771   0.06410   0.00000  Uiso   1.00
N45    N     0.90410   0.69108   0.74424   0.00000  Uiso   1.00
N46    N     0.48485   0.38397   0.75706   0.00000  Uiso   1.00
C47    C     0.89250   0.41077   0.38155   0.00000  Uiso   1.00
C48    C     0.83795   0.43680   0.43262   0.00000  Uiso   1.00
C49    C     0.85782   0.42369   0.48907   0.00000  Uiso   1.00
C50    C     0.79956   0.45215   0.52953   0.00000  Uiso   1.00
C51    C     0.72629   0.48643   0.61118   0.00000  Uiso   1.00
C52    C     0.81444   0.38074   0.34447   0.00000  Uiso   1.00
C53    C     0.81456   0.32051   0.32680   0.00000  Uiso   1.00
C54    C     0.73651   0.30178   0.29305   0.00000  Uiso   1.00
C55    C     0.62678   0.24905   0.23781   0.00000  Uiso   1.00
C56    C     0.92999   0.46538   0.34801   0.00000  Uiso   1.00
C57    C     0.02725   0.47631   0.33331   0.00000  Uiso   1.00
C58    C     0.04648   0.52885   0.30253   0.00000  Uiso   1.00
C59    C     0.11616   0.60753   0.25279   0.00000  Uiso   1.00
C60    C     0.75370   0.48463   0.35302   0.00000  Uiso   1.00
C61    C     0.76256   0.47691   0.41712   0.00000  Uiso   1.00
C62    C     0.70425   0.50540   0.45750   0.00000  Uiso   1.00
C63    C     0.72404   0.49234   0.51401   0.00000  Uiso   1.00
C64    C     0.73905   0.42086   0.32897   0.00000  Uiso   1.00
C65    C     0.66099   0.40222   0.29523   0.00000  Uiso   1.00
C66    C     0.66098   0.34197   0.27752   0.00000  Uiso   1.00
C67    C     0.85460   0.50550   0.33251   0.00000  Uiso   1.00
C68    C     0.87368   0.55803   0.30174   0.00000  Uiso   1.00
C69    C     0.97096   0.56903   0.28700   0.00000  Uiso   1.00
H70    H     0.95119   0.37954   0.39362   0.00000  Uiso   1.00
H71    H     0.91616   0.39263   0.50105   0.00000  Uiso   1.00
H72    H     0.87291   0.28947   0.33880   0.00000  Uiso   1.00
H73    H     0.08557   0.44526   0.34531   0.00000  Uiso   1.00
H74    H     0.84406   0.42483   0.61333   0.00000  Uiso   1.00
H75    H     0.75288   0.20731   0.27120   0.00000  Uiso   1.00
H76    H     0.20131   0.53581   0.28492   0.00000  Uiso   1.00
H77    H     0.69500   0.51586   0.34095   0.00000  Uiso   1.00
H78    H     0.64592   0.53644   0.44549   0.00000  Uiso   1.00
H79    H     0.60266   0.43328   0.28324   0.00000  Uiso   1.00
H80    H     0.81532   0.58906   0.28975   0.00000  Uiso   1.00
H81    H     0.62471   0.54155   0.56823   0.00000  Uiso   1.00
H82    H     0.53353   0.32403   0.22610   0.00000  Uiso   1.00
H83    H     0.98197   0.65253   0.23983   0.00000  Uiso   1.00
O84    O     0.70670   0.49425   0.66050   0.00000  Uiso   1.00
O85    O     0.58708   0.20888   0.21163   0.00000  Uiso   1.00
O86    O     0.17542   0.63986   0.22964   0.00000  Uiso   1.00
N87    N     0.79918   0.44949   0.58837   0.00000  Uiso   1.00
N88    N     0.71393   0.24612   0.26850   0.00000  Uiso   1.00
N89    N     0.13317   0.55323   0.28132   0.00000  Uiso   1.00
N90    N     0.68116   0.51229   0.56410   0.00000  Uiso   1.00
N91    N     0.59590   0.30892   0.24424   0.00000  Uiso   1.00
N92    N     0.01515   0.61603   0.25706   0.00000  Uiso   1.00
C93    C     0.39250   0.08923   0.61845   0.00000  Uiso   1.00
C94    C     0.33795   0.06320   0.56738   0.00000  Uiso   1.00
C95    C     0.35782   0.07631   0.51093   0.00000  Uiso   1.00
C96    C     0.29956   0.04785   0.47047   0.00000  Uiso   1.00
C97    C     0.22629   0.01357   0.38882   0.00000  Uiso   1.00
C98    C     0.31444   0.11926   0.65553   0.00000  Uiso   1.00
C99    C     0.31456   0.17949   0.67320   0.00000  Uiso   1.00
C100   C     0.23651   0.19822   0.70695   0.00000  Uiso   1.00
C101   C     0.12678   0.25095   0.76219   0.00000  Uiso   1.00
C102   C     0.42999   0.03462   0.65199   0.00000  Uiso   1.00
C103   C     0.52725   0.02369   0.66669   0.00000  Uiso   1.00
C104   C     0.54648   0.97115   0.69747   0.00000  Uiso   1.00
C105   C     0.61616   0.89246   0.74721   0.00000  Uiso   1.00
C106   C     0.25370   0.01537   0.64698   0.00000  Uiso   1.00
C107   C     0.26256   0.02309   0.58288   0.00000  Uiso   1.00
C108   C     0.20425   0.99460   0.54250   0.00000  Uiso   1.00
C109   C     0.22404   0.00766   0.48599   0.00000  Uiso   1.00
C110   C     0.23905   0.07914   0.67103   0.00000  Uiso   1.00
C111   C     0.16099   0.09778   0.70477   0.00000  Uiso   1.00
C112   C     0.16098   0.15803   0.72248   0.00000  Uiso   1.00
C113   C     0.35460   0.99450   0.66749   0.00000  Uiso   1.00
C114   C     0.37368   0.94197   0.69826   0.00000  Uiso   1.00
C115   C     0.47096   0.93097   0.71300   0.00000  Uiso   1.00
H116   H     0.45119   0.12046   0.60638   0.00000  Uiso   1.00
H117   H     0.41616   0.10737   0.49895   0.00000  Uiso   1.00
H118   H     0.37291   0.21053   0.66120   0.00000  Uiso   1.00
H119   H     0.58557   0.05474   0.65469   0.00000  Uiso   1.00
H120   H     0.34406   0.07517   0.38667   0.00000  Uiso   1.00
H121   H     0.25288   0.29269   0.72880   0.00000  Uiso   1.00
H122   H     0.70131   0.96419   0.71508   0.00000  Uiso   1.00
H123   H     0.19500   0.98414   0.65905   0.00000  Uiso   1.00
H124   H     0.14592   0.96356   0.55451   0.00000  Uiso   1.00
H125   H     0.10266   0.06672   0.71676   0.00000  Uiso   1.00
H126   H     0.31532   0.91094   0.71025   0.00000  Uiso   1.00
H127   H     0.12471   0.95845   0.43177   0.00000  Uiso   1.00
H128   H     0.03353   0.17597   0.77390   0.00000  Uiso   1.00
H129   H     0.48197   0.84747   0.76017   0.00000  Uiso   1.00
O130   O     0.20670   0.00575   0.33950   0.00000  Uiso   1.00
O131   O     0.08708   0.29112   0.78837   0.00000  Uiso   1.00
O132   O     0.67542   0.86014   0.77036   0.00000  Uiso   1.00
N133   N     0.29918   0.05051   0.41163   0.00000  Uiso   1.00
N134   N     0.21393   0.25388   0.73150   0.00000  Uiso   1.00
N135   N     0.63317   0.94677   0.71868   0.00000  Uiso   1.00
N136   N     0.18116   0.98771   0.43590   0.00000  Uiso   1.00
N137   N     0.09590   0.19108   0.75576   0.00000  Uiso   1.00
N138   N     0.51515   0.88397   0.74294   0.00000  Uiso   1.00
C139   C     0.10750   0.91077   0.11845   0.00000  Uiso   1.00
C140   C     0.16205   0.93680   0.06738   0.00000  Uiso   1.00
C141   C     0.14218   0.92369   0.01093   0.00000  Uiso   1.00
C142   C     0.20044   0.95215   0.97047   0.00000  Uiso   1.00
C143   C     0.27371   0.98643   0.88882   0.00000  Uiso   1.00
C144   C     0.18556   0.88074   0.15553   0.00000  Uiso   1.00
C145   C     0.18544   0.82051   0.17320   0.00000  Uiso   1.00
C146   C     0.26349   0.80178   0.20695   0.00000  Uiso   1.00
C147   C     0.37322   0.74905   0.26219   0.00000  Uiso   1.00
C148   C     0.07001   0.96538   0.15199   0.00000  Uiso   1.00
C149   C     0.97275   0.97631   0.16669   0.00000  Uiso   1.00
C150   C     0.95352   0.02885   0.19747   0.00000  Uiso   1.00
C151   C     0.88384   0.10753   0.24721   0.00000  Uiso   1.00
C152   C     0.24630   0.98463   0.14698   0.00000  Uiso   1.00
C153   C     0.23744   0.97691   0.08288   0.00000  Uiso   1.00
C154   C     0.29575   0.00540   0.04250   0.00000  Uiso   1.00
C155   C     0.27596   0.99234   0.98599   0.00000  Uiso   1.00
C156   C     0.26095   0.92086   0.17103   0.00000  Uiso   1.00
C157   C     0.33901   0.90222   0.20477   0.00000  Uiso   1.00
C158   C     0.33902   0.84197   0.22248   0.00000  Uiso   1.00
C159   C     0.14540   0.00550   0.16749   0.00000  Uiso   1.00
C160   C     0.12632   0.05803   0.19826   0.00000  Uiso   1.00
C161   C     0.02904   0.06903   0.21300   0.00000  Uiso   1.00
H162   H     0.04881   0.87954   0.10638   0.00000  Uiso   1.00
H163   H     0.08384   0.89263   0.99895   0.00000  Uiso   1.00
H164   H     0.12709   0.78947   0.16120   0.00000  Uiso   1.00
H165   H     0.91443   0.94526   0.15469   0.00000  Uiso   1.00
H166   H     0.15594   0.92483   0.88667   0.00000  Uiso   1.00
H167   H     0.24712   0.70731   0.22880   0.00000  Uiso   1.00
H168   H     0.79869   0.03581   0.21508   0.00000  Uiso   1.00
H169   H     0.30500   0.01586   0.15905   0.00000  Uiso   1.00
H170   H     0.35408   0.03644   0.05451   0.00000  Uiso   1.00
H171   H     0.39734   0.93328   0.21676   0.00000  Uiso   1.00
H172   H     0.18468   0.08906   0.21025   0.00000  Uiso   1.00
H173   H     0.37529   0.04155   0.93177   0.00000  Uiso   1.00
H174   H     0.46647   0.82403   0.27390   0.00000  Uiso   1.00
H175   H     0.01803   0.15253   0.26017   0.00000  Uiso   1.00
O176   O     0.29330   0.99425   0.83950   0.00000  Uiso   1.00
O177   O     0.41292   0.70888   0.28837   0.00000  Uiso   1.00
O178   O     0.82458   0.13986   0.27036   0.00000  Uiso   1.00
N179   N     0.20082   0.94949   0.91163   0.00000  Uiso   1.00
N180   N     0.28607   0.74612   0.23150   0.00000  Uiso   1.00
N181   N     0.86683   0.05323   0.21868   0.00000  Uiso   1.00
N182   N     0.31884   0.01229   0.93590   0.00000  Uiso   1.00
N183   N     0.40410   0.80892   0.25576   0.00000  Uiso   1.00
N184   N     0.98485   0.11603   0.24294   0.00000  Uiso   1.00
C185   C     0.39250   0.41077   0.11845   0.00000  Uiso   1.00
C186   C     0.33795   0.43680   0.06738   0.00000  Uiso   1.00
C187   C     0.35782   0.42369   0.01093   0.00000  Uiso   1.00
C188   C     0.29956   0.45215   0.97047   0.00000  Uiso   1.00
C189   C     0.22629   0.48643   0.88882   0.00000  Uiso   1.00
C190   C     0.31444   0.38074   0.15553   0.00000  Uiso   1.00
C191   C     0.31456   0.32051   0.17320   0.00000  Uiso   1.00
C192   C     0.23651   0.30178   0.20695   0.00000  Uiso   1.00
C193   C     0.12678   0.24905   0.26219   0.00000  Uiso   1.00
C194   C     0.42999   0.46538   0.15199   0.00000  Uiso   1.00
C195   C     0.52725   0.47631   0.16669   0.00000  Uiso   1.00
C196   C     0.54648   0.52885   0.19747   0.00000  Uiso   1.00
C197   C     0.61616   0.60753   0.24721   0.00000  Uiso   1.00
C198   C     0.25370   0.48463   0.14698   0.00000  Uiso   1.00
C199   C     0.26256   0.47691   0.08288   0.00000  Uiso   1.00
C200   C     0.20425   0.50540   0.04250   0.00000  Uiso   1.00
C201   C     0.22404   0.49234   0.98599   0.00000  Uiso   1.00
C202   C     0.23905   0.42086   0.17103   0.00000  Uiso   1.00
C203   C     0.16099   0.40222   0.20477   0.00000  Uiso   1.00
C204   C     0.16098   0.34197   0.22248   0.00000  Uiso   1.00
C205   C     0.35460   0.50550   0.16749   0.00000  Uiso   1.00
C206   C     0.37368   0.55803   0.19826   0.00000  Uiso   1.00
C207   C     0.47096   0.56903   0.21300   0.00000  Uiso   1.00
H208   H     0.45119   0.37954   0.10638   0.00000  Uiso   1.00
H209   H     0.41616   0.39263   0.99895   0.00000  Uiso   1.00
H210   H     0.37291   0.28947   0.16120   0.00000  Uiso   1.00
H211   H     0.58557   0.44526   0.15469   0.00000  Uiso   1.00
H212   H     0.34406   0.42483   0.88667   0.00000  Uiso   1.00
H213   H     0.25288   0.20731   0.22880   0.00000  Uiso   1.00
H214   H     0.70131   0.53581   0.21508   0.00000  Uiso   1.00
H215   H     0.19500   0.51586   0.15905   0.00000  Uiso   1.00
H216   H     0.14592   0.53644   0.05451   0.00000  Uiso   1.00
H217   H     0.10266   0.43328   0.21676   0.00000  Uiso   1.00
H218   H     0.31532   0.58906   0.21025   0.00000  Uiso   1.00
H219   H     0.12471   0.54155   0.93177   0.00000  Uiso   1.00
H220   H     0.03353   0.32403   0.27390   0.00000  Uiso   1.00
H221   H     0.48197   0.65253   0.26017   0.00000  Uiso   1.00
O222   O     0.20670   0.49425   0.83950   0.00000  Uiso   1.00
O223   O     0.08708   0.20888   0.28837   0.00000  Uiso   1.00
O224   O     0.67542   0.63986   0.27036   0.00000  Uiso   1.00
N225   N     0.29918   0.44949   0.91163   0.00000  Uiso   1.00
N226   N     0.21393   0.24612   0.23150   0.00000  Uiso   1.00
N227   N     0.63317   0.55323   0.21868   0.00000  Uiso   1.00
N228   N     0.18116   0.51229   0.93590   0.00000  Uiso   1.00
N229   N     0.09590   0.30892   0.25576   0.00000  Uiso   1.00
N230   N     0.51515   0.61603   0.24294   0.00000  Uiso   1.00
C231   C     0.10750   0.58923   0.61845   0.00000  Uiso   1.00
C232   C     0.16205   0.56320   0.56738   0.00000  Uiso   1.00
C233   C     0.14218   0.57631   0.51093   0.00000  Uiso   1.00
C234   C     0.20044   0.54785   0.47047   0.00000  Uiso   1.00
C235   C     0.27371   0.51357   0.38882   0.00000  Uiso   1.00
C236   C     0.18556   0.61926   0.65553   0.00000  Uiso   1.00
C237   C     0.18544   0.67949   0.67320   0.00000  Uiso   1.00
C238   C     0.26349   0.69822   0.70695   0.00000  Uiso   1.00
C239   C     0.37322   0.75095   0.76219   0.00000  Uiso   1.00
C240   C     0.07001   0.53462   0.65199   0.00000  Uiso   1.00
C241   C     0.97275   0.52369   0.66669   0.00000  Uiso   1.00
C242   C     0.95352   0.47115   0.69747   0.00000  Uiso   1.00
C243   C     0.88384   0.39247   0.74721   0.00000  Uiso   1.00
C244   C     0.24630   0.51537   0.64698   0.00000  Uiso   1.00
C245   C     0.23744   0.52309   0.58288   0.00000  Uiso   1.00
C246   C     0.29575   0.49460   0.54250   0.00000  Uiso   1.00
C247   C     0.27596   0.50766   0.48599   0.00000  Uiso   1.00
C248   C     0.26095   0.57914   0.67103   0.00000  Uiso   1.00
C249   C     0.33901   0.59778   0.70477   0.00000  Uiso   1.00
C250   C     0.33902   0.65803   0.72248   0.00000  Uiso   1.00
C251   C     0.14540   0.49450   0.66749   0.00000  Uiso   1.00
C252   C     0.12632   0.44197   0.69826   0.00000  Uiso   1.00
C253   C     0.02904   0.43097   0.71300   0.00000  Uiso   1.00
H254   H     0.04881   0.62046   0.60638   0.00000  Uiso   1.00
H255   H     0.08384   0.60737   0.49895   0.00000  Uiso   1.00
H256   H     0.12709   0.71053   0.66120   0.00000  Uiso   1.00
H257   H     0.91443   0.55474   0.65469   0.00000  Uiso   1.00
H258   H     0.15594   0.57517   0.38667   0.00000  Uiso   1.00
H259   H     0.24712   0.79269   0.72880   0.00000  Uiso   1.00
H260   H     0.79869   0.46419   0.71508   0.00000  Uiso   1.00
H261   H     0.30500   0.48414   0.65905   0.00000  Uiso   1.00
H262   H     0.35408   0.46356   0.55451   0.00000  Uiso   1.00
H263   H     0.39734   0.56672   0.71676   0.00000  Uiso   1.00
H264   H     0.18468   0.41094   0.71025   0.00000  Uiso   1.00
H265   H     0.37529   0.45845   0.43177   0.00000  Uiso   1.00
H266   H     0.46647   0.67597   0.77390   0.00000  Uiso   1.00
H267   H     0.01803   0.34747   0.76017   0.00000  Uiso   1.00
O268   O     0.29330   0.50575   0.33950   0.00000  Uiso   1.00
O269   O     0.41292   0.79112   0.78837   0.00000  Uiso   1.00
O270   O     0.82458   0.36014   0.77036   0.00000  Uiso   1.00
N271   N     0.20082   0.55051   0.41163   0.00000  Uiso   1.00
N272   N     0.28607   0.75388   0.73150   0.00000  Uiso   1.00
N273   N     0.86683   0.44677   0.71868   0.00000  Uiso   1.00
N274   N     0.31884   0.48771   0.43590   0.00000  Uiso   1.00
N275   N     0.40410   0.69108   0.75576   0.00000  Uiso   1.00
N276   N     0.98485   0.38397   0.74294   0.00000  Uiso   1.00
C277   C     0.60750   0.91077   0.38155   0.00000  Uiso   1.00
C278   C     0.66205   0.93680   0.43262   0.00000  Uiso   1.00
C279   C     0.64218   0.92369   0.48907   0.00000  Uiso   1.00
C280   C     0.70044   0.95215   0.52953   0.00000  Uiso   1.00
C281   C     0.77371   0.98643   0.61118   0.00000  Uiso   1.00
C282   C     0.68556   0.88074   0.34447   0.00000  Uiso   1.00
C283   C     0.68544   0.82051   0.32680   0.00000  Uiso   1.00
C284   C     0.76349   0.80178   0.29305   0.00000  Uiso   1.00
C285   C     0.87322   0.74905   0.23781   0.00000  Uiso   1.00
C286   C     0.57001   0.96538   0.34801   0.00000  Uiso   1.00
C287   C     0.47275   0.97631   0.33331   0.00000  Uiso   1.00
C288   C     0.45352   0.02885   0.30253   0.00000  Uiso   1.00
C289   C     0.38384   0.10753   0.25279   0.00000  Uiso   1.00
C290   C     0.74630   0.98463   0.35302   0.00000  Uiso   1.00
C291   C     0.73744   0.97691   0.41712   0.00000  Uiso   1.00
C292   C     0.79575   0.00540   0.45750   0.00000  Uiso   1.00
C293   C     0.77596   0.99234   0.51401   0.00000  Uiso   1.00
C294   C     0.76095   0.92086   0.32897   0.00000  Uiso   1.00
C295   C     0.83901   0.90222   0.29523   0.00000  Uiso   1.00
C296   C     0.83902   0.84197   0.27752   0.00000  Uiso   1.00
C297   C     0.64540   0.00550   0.33251   0.00000  Uiso   1.00
C298   C     0.62632   0.05803   0.30174   0.00000  Uiso   1.00
C299   C     0.52904   0.06903   0.28700   0.00000  Uiso   1.00
H300   H     0.54881   0.87954   0.39362   0.00000  Uiso   1.00
H301   H     0.58384   0.89263   0.50105   0.00000  Uiso   1.00
H302   H     0.62709   0.78947   0.33880   0.00000  Uiso   1.00
H303   H     0.41443   0.94526   0.34531   0.00000  Uiso   1.00
H304   H     0.65594   0.92483   0.61333   0.00000  Uiso   1.00
H305   H     0.74712   0.70731   0.27120   0.00000  Uiso   1.00
H306   H     0.29869   0.03581   0.28492   0.00000  Uiso   1.00
H307   H     0.80500   0.01586   0.34095   0.00000  Uiso   1.00
H308   H     0.85408   0.03644   0.44549   0.00000  Uiso   1.00
H309   H     0.89734   0.93328   0.28324   0.00000  Uiso   1.00
H310   H     0.68468   0.08906   0.28975   0.00000  Uiso   1.00
H311   H     0.87529   0.04155   0.56823   0.00000  Uiso   1.00
H312   H     0.96647   0.82403   0.22610   0.00000  Uiso   1.00
H313   H     0.51803   0.15253   0.23983   0.00000  Uiso   1.00
O314   O     0.79330   0.99425   0.66050   0.00000  Uiso   1.00
O315   O     0.91292   0.70888   0.21163   0.00000  Uiso   1.00
O316   O     0.32458   0.13986   0.22964   0.00000  Uiso   1.00
N317   N     0.70082   0.94949   0.58837   0.00000  Uiso   1.00
N318   N     0.78607   0.74612   0.26850   0.00000  Uiso   1.00
N319   N     0.36683   0.05323   0.28132   0.00000  Uiso   1.00
N320   N     0.81884   0.01229   0.56410   0.00000  Uiso   1.00
N321   N     0.90410   0.80892   0.24424   0.00000  Uiso   1.00
N322   N     0.48485   0.11603   0.25706   0.00000  Uiso   1.00
C323   C     0.89250   0.08923   0.88155   0.00000  Uiso   1.00
C324   C     0.83795   0.06320   0.93262   0.00000  Uiso   1.00
C325   C     0.85782   0.07631   0.98907   0.00000  Uiso   1.00
C326   C     0.79956   0.04785   0.02953   0.00000  Uiso   1.00
C327   C     0.72629   0.01357   0.11118   0.00000  Uiso   1.00
C328   C     0.81444   0.11926   0.84447   0.00000  Uiso   1.00
C329   C     0.81456   0.17949   0.82680   0.00000  Uiso   1.00
C330   C     0.73651   0.19822   0.79305   0.00000  Uiso   1.00
C331   C     0.62678   0.25095   0.73781   0.00000  Uiso   1.00
C332   C     0.92999   0.03462   0.84801   0.00000  Uiso   1.00
C333   C     0.02725   0.02369   0.83331   0.00000  Uiso   1.00
C334   C     0.04648   0.97115   0.80253   0.00000  Uiso   1.00
C335   C     0.11616   0.89246   0.75279   0.00000  Uiso   1.00
C336   C     0.75370   0.01537   0.85302   0.00000  Uiso   1.00
C337   C     0.76256   0.02309   0.91712   0.00000  Uiso   1.00
C338   C     0.70425   0.99460   0.95750   0.00000  Uiso   1.00
C339   C     0.72404   0.00766   0.01401   0.00000  Uiso   1.00
C340   C     0.73905   0.07914   0.82897   0.00000  Uiso   1.00
C341   C     0.66099   0.09778   0.79523   0.00000  Uiso   1.00
C342   C     0.66098   0.15803   0.77752   0.00000  Uiso   1.00
C343   C     0.85460   0.99450   0.83251   0.00000  Uiso   1.00
C344   C     0.87368   0.94197   0.80174   0.00000  Uiso   1.00
C345   C     0.97096   0.93097   0.78700   0.00000  Uiso   1.00
H346   H     0.95119   0.12046   0.89362   0.00000  Uiso   1.00
H347   H     0.91616   0.10737   0.00105   0.00000  Uiso   1.00
H348   H     0.87291   0.21053   0.83880   0.00000  Uiso   1.00
H349   H     0.08557   0.05474   0.84531   0.00000  Uiso   1.00
H350   H     0.84406   0.07517   0.11333   0.00000  Uiso   1.00
H351   H     0.75288   0.29269   0.77120   0.00000  Uiso   1.00
H352   H     0.20131   0.96419   0.78492   0.00000  Uiso   1.00
H353   H     0.69500   0.98414   0.84095   0.00000  Uiso   1.00
H354   H     0.64592   0.96356   0.94549   0.00000  Uiso   1.00
H355   H     0.60266   0.06672   0.78324   0.00000  Uiso   1.00
H356   H     0.81532   0.91094   0.78975   0.00000  Uiso   1.00
H357   H     0.62471   0.95845   0.06823   0.00000  Uiso   1.00
H358   H     0.53353   0.17597   0.72610   0.00000  Uiso   1.00
H359   H     0.98197   0.84747   0.73983   0.00000  Uiso   1.00
O360   O     0.70670   0.00575   0.16050   0.00000  Uiso   1.00
O361   O     0.58708   0.29112   0.71163   0.00000  Uiso   1.00
O362   O     0.17542   0.86014   0.72964   0.00000  Uiso   1.00
N363   N     0.79918   0.05051   0.08837   0.00000  Uiso   1.00
N364   N     0.71393   0.25388   0.76850   0.00000  Uiso   1.00
N365   N     0.13317   0.94677   0.78132   0.00000  Uiso   1.00
N366   N     0.68116   0.98771   0.06410   0.00000  Uiso   1.00
N367   N     0.59590   0.19108   0.74424   0.00000  Uiso   1.00
N368   N     0.01515   0.88397   0.75706   0.00000  Uiso   1.00
