data_job_06641
_audit_creation_date              2018-12-19
_audit_creation_method            'Materials Studio'
_symmetry_space_group_name_H-M    'P1'
_symmetry_Int_Tables_number       1
_symmetry_cell_setting            triclinic
loop_
_symmetry_equiv_pos_as_xyz
  x,y,z
_cell_length_a                    20.3187
_cell_length_b                    21.6736
_cell_length_c                    19.4161
_cell_angle_alpha                 73.6596
_cell_angle_beta                  72.7763
_cell_angle_gamma                 87.7491
loop_
_atom_site_label
_atom_site_type_symbol
_atom_site_fract_x
_atom_site_fract_y
_atom_site_fract_z
_atom_site_U_iso_or_equiv
_atom_site_adp_type
_atom_site_occupancy
C1     C     0.73054   0.59525   0.51629   0.00000  Uiso   1.00
C2     C     0.76356   0.64928   0.53283   0.00000  Uiso   1.00
C3     C     0.78181   0.71102   0.48503   0.00000  Uiso   1.00
C4     C     0.81140   0.75344   0.51052   0.00000  Uiso   1.00
C5     C     0.86104   0.84016   0.52544   0.00000  Uiso   1.00
C6     C     0.77795   0.53911   0.52491   0.00000  Uiso   1.00
C7     C     0.80829   0.50822   0.47045   0.00000  Uiso   1.00
C8     C     0.84999   0.45790   0.48928   0.00000  Uiso   1.00
C9     C     0.92194   0.37356   0.49192   0.00000  Uiso   1.00
C10    C     0.66389   0.57375   0.58039   0.00000  Uiso   1.00
C11    C     0.59833   0.57197   0.57258   0.00000  Uiso   1.00
C12    C     0.54400   0.55080   0.63812   0.00000  Uiso   1.00
C13    C     0.43884   0.52024   0.72689   0.00000  Uiso   1.00
C14    C     0.75064   0.56079   0.64656   0.00000  Uiso   1.00
C15    C     0.77448   0.63056   0.60359   0.00000  Uiso   1.00
C16    C     0.80405   0.67290   0.62917   0.00000  Uiso   1.00
C17    C     0.82234   0.73469   0.58141   0.00000  Uiso   1.00
C18    C     0.78887   0.52039   0.59567   0.00000  Uiso   1.00
C19    C     0.83053   0.47010   0.61459   0.00000  Uiso   1.00
C20    C     0.86093   0.43915   0.56017   0.00000  Uiso   1.00
C21    C     0.67480   0.55504   0.65115   0.00000  Uiso   1.00
C22    C     0.62057   0.53385   0.71672   0.00000  Uiso   1.00
C23    C     0.55493   0.53205   0.70901   0.00000  Uiso   1.00
H24    H     0.72204   0.60982   0.46120   0.00000  Uiso   1.00
H25    H     0.77335   0.72548   0.43027   0.00000  Uiso   1.00
H26    H     0.79983   0.52271   0.41570   0.00000  Uiso   1.00
H27    H     0.58990   0.58646   0.51781   0.00000  Uiso   1.00
H28    H     0.83509   0.84546   0.42718   0.00000  Uiso   1.00
H29    H     0.89089   0.41789   0.39647   0.00000  Uiso   1.00
H30    H     0.44820   0.55230   0.61179   0.00000  Uiso   1.00
H31    H     0.75914   0.54622   0.70166   0.00000  Uiso   1.00
H32    H     0.81249   0.65840   0.68393   0.00000  Uiso   1.00
H33    H     0.83897   0.45563   0.66935   0.00000  Uiso   1.00
H34    H     0.62903   0.51937   0.77147   0.00000  Uiso   1.00
H35    H     0.86685   0.79101   0.63306   0.00000  Uiso   1.00
H36    H     0.92265   0.36344   0.60234   0.00000  Uiso   1.00
H37    H     0.47997   0.49786   0.81766   0.00000  Uiso   1.00
O38    O     0.88542   0.89317   0.51411   0.00000  Uiso   1.00
O39    O     0.95861   0.33221   0.47382   0.00000  Uiso   1.00
O40    O     0.37783   0.50856   0.75631   0.00000  Uiso   1.00
N41    N     0.83523   0.81725   0.47807   0.00000  Uiso   1.00
N42    N     0.88741   0.41751   0.44935   0.00000  Uiso   1.00
N43    N     0.47354   0.54316   0.65066   0.00000  Uiso   1.00
N44    N     0.85232   0.78795   0.58885   0.00000  Uiso   1.00
N45    N     0.90450   0.38821   0.56013   0.00000  Uiso   1.00
N46    N     0.49063   0.51386   0.76144   0.00000  Uiso   1.00
C47    C     0.50388   0.94172   0.47051   0.00000  Uiso   1.00
C48    C     0.54464   0.96060   0.51660   0.00000  Uiso   1.00
C49    C     0.51813   0.96302   0.59033   0.00000  Uiso   1.00
C50    C     0.56384   0.98146   0.62257   0.00000  Uiso   1.00
C51    C     0.61652   0.00846   0.70022   0.00000  Uiso   1.00
C52    C     0.51420   0.99809   0.39985   0.00000  Uiso   1.00
C53    C     0.46211   0.03201   0.37542   0.00000  Uiso   1.00
C54    C     0.48219   0.08199   0.30937   0.00000  Uiso   1.00
C55    C     0.48761   0.16715   0.20573   0.00000  Uiso   1.00
C56    C     0.54073   0.88596   0.44447   0.00000  Uiso   1.00
C57    C     0.51092   0.82562   0.45753   0.00000  Uiso   1.00
C58    C     0.55334   0.78120   0.42903   0.00000  Uiso   1.00
C59    C     0.59994   0.69228   0.39466   0.00000  Uiso   1.00
C60    C     0.63218   0.97015   0.39664   0.00000  Uiso   1.00
C61    C     0.61433   0.97605   0.47647   0.00000  Uiso   1.00
C62    C     0.66009   0.99448   0.50860   0.00000  Uiso   1.00
C63    C     0.63365   0.99692   0.58237   0.00000  Uiso   1.00
C64    C     0.58389   0.01353   0.35972   0.00000  Uiso   1.00
C65    C     0.60406   0.06346   0.29368   0.00000  Uiso   1.00
C66    C     0.55200   0.09746   0.26917   0.00000  Uiso   1.00
C67    C     0.61042   0.90140   0.40434   0.00000  Uiso   1.00
C68    C     0.65288   0.85707   0.37580   0.00000  Uiso   1.00
C69    C     0.62315   0.79667   0.38882   0.00000  Uiso   1.00
H70    H     0.44963   0.92970   0.50175   0.00000  Uiso   1.00
H71    H     0.46420   0.95108   0.62137   0.00000  Uiso   1.00
H72    H     0.40818   0.02005   0.40648   0.00000  Uiso   1.00
H73    H     0.45700   0.81369   0.48859   0.00000  Uiso   1.00
H74    H     0.51108   0.98160   0.73628   0.00000  Uiso   1.00
H75    H     0.39296   0.12702   0.28317   0.00000  Uiso   1.00
H76    H     0.49590   0.69187   0.45630   0.00000  Uiso   1.00
H77    H     0.68644   0.98217   0.36539   0.00000  Uiso   1.00
H78    H     0.71401   0.00642   0.47753   0.00000  Uiso   1.00
H79    H     0.65799   0.07540   0.26265   0.00000  Uiso   1.00
H80    H     0.70681   0.86904   0.34475   0.00000  Uiso   1.00
H81    H     0.71384   0.02653   0.61954   0.00000  Uiso   1.00
H82    H     0.59572   0.17194   0.16642   0.00000  Uiso   1.00
H83    H     0.69865   0.73680   0.33955   0.00000  Uiso   1.00
O84    O     0.62632   0.01910   0.75413   0.00000  Uiso   1.00
O85    O     0.47135   0.20986   0.15966   0.00000  Uiso   1.00
O86    O     0.60640   0.63896   0.38680   0.00000  Uiso   1.00
N87    N     0.55502   0.98884   0.69342   0.00000  Uiso   1.00
N88    N     0.44459   0.12480   0.26979   0.00000  Uiso   1.00
N89    N     0.54082   0.71798   0.43164   0.00000  Uiso   1.00
N90    N     0.66412   0.01301   0.63060   0.00000  Uiso   1.00
N91    N     0.55369   0.14897   0.20698   0.00000  Uiso   1.00
N92    N     0.64992   0.74215   0.36882   0.00000  Uiso   1.00
C93    C     0.37211   0.68657   0.78559   0.00000  Uiso   1.00
C94    C     0.44360   0.71208   0.77786   0.00000  Uiso   1.00
C95    C     0.50192   0.67625   0.77575   0.00000  Uiso   1.00
C96    C     0.56244   0.70846   0.76843   0.00000  Uiso   1.00
C97    C     0.67313   0.73807   0.75723   0.00000  Uiso   1.00
C98    C     0.32337   0.70212   0.85446   0.00000  Uiso   1.00
C99    C     0.28060   0.65793   0.91674   0.00000  Uiso   1.00
C100   C     0.23990   0.68176   0.97390   0.00000  Uiso   1.00
C101   C     0.16389   0.69592   0.08158   0.00000  Uiso   1.00
C102   C     0.35193   0.72836   0.71814   0.00000  Uiso   1.00
C103   C     0.33315   0.70623   0.66581   0.00000  Uiso   1.00
C104   C     0.31648   0.75216   0.60820   0.00000  Uiso   1.00
C105   C     0.28482   0.80706   0.50423   0.00000  Uiso   1.00
C106   C     0.37586   0.80747   0.77636   0.00000  Uiso   1.00
C107   C     0.44563   0.77775   0.77285   0.00000  Uiso   1.00
C108   C     0.50608   0.81002   0.76553   0.00000  Uiso   1.00
C109   C     0.56449   0.77425   0.76341   0.00000  Uiso   1.00
C110   C     0.32540   0.76779   0.84945   0.00000  Uiso   1.00
C111   C     0.28475   0.79169   0.90652   0.00000  Uiso   1.00
C112   C     0.24194   0.74755   0.96887   0.00000  Uiso   1.00
C113   C     0.35397   0.79403   0.71312   0.00000  Uiso   1.00
C114   C     0.33732   0.84000   0.65559   0.00000  Uiso   1.00
C115   C     0.31853   0.81794   0.60318   0.00000  Uiso   1.00
H116   H     0.37051   0.63545   0.78950   0.00000  Uiso   1.00
H117   H     0.50032   0.62543   0.77964   0.00000  Uiso   1.00
H118   H     0.27903   0.60712   0.92060   0.00000  Uiso   1.00
H119   H     0.33158   0.65541   0.66971   0.00000  Uiso   1.00
H120   H     0.64513   0.64329   0.76652   0.00000  Uiso   1.00
H121   H     0.17850   0.60467   0.06373   0.00000  Uiso   1.00
H122   H     0.28932   0.70651   0.53468   0.00000  Uiso   1.00
H123   H     0.37745   0.85860   0.77246   0.00000  Uiso   1.00
H124   H     0.50764   0.86084   0.76165   0.00000  Uiso   1.00
H125   H     0.28634   0.84252   0.90262   0.00000  Uiso   1.00
H126   H     0.33890   0.89081   0.65172   0.00000  Uiso   1.00
H127   H     0.65107   0.83435   0.75193   0.00000  Uiso   1.00
H128   H     0.18444   0.79573   0.04914   0.00000  Uiso   1.00
H129   H     0.29526   0.89757   0.52008   0.00000  Uiso   1.00
O130   O     0.73362   0.73626   0.75245   0.00000  Uiso   1.00
O131   O     0.12141   0.68559   0.14237   0.00000  Uiso   1.00
O132   O     0.26680   0.81920   0.44826   0.00000  Uiso   1.00
N133   N     0.62867   0.68795   0.76455   0.00000  Uiso   1.00
N134   N     0.19240   0.65184   0.04243   0.00000  Uiso   1.00
N135   N     0.29599   0.74705   0.54782   0.00000  Uiso   1.00
N136   N     0.63186   0.79076   0.75670   0.00000  Uiso   1.00
N137   N     0.19560   0.75465   0.03458   0.00000  Uiso   1.00
N138   N     0.29919   0.84986   0.53997   0.00000  Uiso   1.00
C139   C     0.27553   0.21904   0.76694   0.00000  Uiso   1.00
C140   C     0.30370   0.25379   0.81126   0.00000  Uiso   1.00
C141   C     0.29859   0.23098   0.88707   0.00000  Uiso   1.00
C142   C     0.32771   0.26997   0.91716   0.00000  Uiso   1.00
C143   C     0.36646   0.31484   0.99269   0.00000  Uiso   1.00
C144   C     0.33678   0.21329   0.70134   0.00000  Uiso   1.00
C145   C     0.35948   0.15644   0.68472   0.00000  Uiso   1.00
C146   C     0.41645   0.16135   0.62226   0.00000  Uiso   1.00
C147   C     0.50653   0.14335   0.52710   0.00000  Uiso   1.00
C148   C     0.22778   0.26530   0.73245   0.00000  Uiso   1.00
C149   C     0.15884   0.25217   0.74197   0.00000  Uiso   1.00
C150   C     0.12404   0.30086   0.70569   0.00000  Uiso   1.00
C151   C     0.04489   0.36361   0.65884   0.00000  Uiso   1.00
C152   C     0.33634   0.32886   0.68555   0.00000  Uiso   1.00
C153   C     0.33673   0.31343   0.76705   0.00000  Uiso   1.00
C154   C     0.36587   0.35248   0.79703   0.00000  Uiso   1.00
C155   C     0.36080   0.32973   0.87287   0.00000  Uiso   1.00
C156   C     0.36982   0.27294   0.65713   0.00000  Uiso   1.00
C157   C     0.42677   0.27794   0.59468   0.00000  Uiso   1.00
C158   C     0.44955   0.22111   0.57797   0.00000  Uiso   1.00
C159   C     0.26082   0.32495   0.68824   0.00000  Uiso   1.00
C160   C     0.22613   0.37367   0.65193   0.00000  Uiso   1.00
C161   C     0.15714   0.36062   0.66141   0.00000  Uiso   1.00
H162   H     0.24981   0.17260   0.80135   0.00000  Uiso   1.00
H163   H     0.27302   0.18481   0.92126   0.00000  Uiso   1.00
H164   H     0.33390   0.11028   0.71894   0.00000  Uiso   1.00
H165   H     0.13329   0.20600   0.77619   0.00000  Uiso   1.00
H166   H     0.31335   0.22464   0.03470   0.00000  Uiso   1.00
H167   H     0.44170   0.06750   0.60807   0.00000  Uiso   1.00
H168   H     0.01867   0.26934   0.72879   0.00000  Uiso   1.00
H169   H     0.36207   0.37530   0.65113   0.00000  Uiso   1.00
H170   H     0.39143   0.39864   0.76280   0.00000  Uiso   1.00
H171   H     0.45232   0.32411   0.56048   0.00000  Uiso   1.00
H172   H     0.25171   0.41983   0.61773   0.00000  Uiso   1.00
H173   H     0.40946   0.39819   0.90609   0.00000  Uiso   1.00
H174   H     0.53781   0.24105   0.47946   0.00000  Uiso   1.00
H175   H     0.11478   0.44289   0.60018   0.00000  Uiso   1.00
O176   O     0.37872   0.32310   0.04656   0.00000  Uiso   1.00
O177   O     0.54710   0.11694   0.48683   0.00000  Uiso   1.00
O178   O     0.99210   0.38175   0.64522   0.00000  Uiso   1.00
N179   N     0.33192   0.26229   0.98911   0.00000  Uiso   1.00
N180   N     0.45193   0.11537   0.59025   0.00000  Uiso   1.00
N181   N     0.05644   0.30407   0.70309   0.00000  Uiso   1.00
N182   N     0.38364   0.35567   0.91991   0.00000  Uiso   1.00
N183   N     0.50365   0.20876   0.52104   0.00000  Uiso   1.00
N184   N     0.10816   0.39745   0.63389   0.00000  Uiso   1.00
C185   C     0.17337   0.04572   0.10886   0.00000  Uiso   1.00
C186   C     0.18543   0.10772   0.12675   0.00000  Uiso   1.00
C187   C     0.14335   0.15981   0.12289   0.00000  Uiso   1.00
C188   C     0.16328   0.21201   0.14151   0.00000  Uiso   1.00
C189   C     0.17288   0.30826   0.16603   0.00000  Uiso   1.00
C190   C     0.17183   0.99115   0.17899   0.00000  Uiso   1.00
C191   C     0.11832   0.94522   0.21903   0.00000  Uiso   1.00
C192   C     0.12682   0.89929   0.28162   0.00000  Uiso   1.00
C193   C     0.11533   0.81453   0.38720   0.00000  Uiso   1.00
C194   C     0.23838   0.03833   0.04822   0.00000  Uiso   1.00
C195   C     0.24083   0.03207   0.97832   0.00000  Uiso   1.00
C196   C     0.30536   0.02584   0.93082   0.00000  Uiso   1.00
C197   C     0.39720   0.01435   0.83337   0.00000  Uiso   1.00
C198   C     0.28360   0.04579   0.14881   0.00000  Uiso   1.00
C199   C     0.24530   0.10775   0.14845   0.00000  Uiso   1.00
C200   C     0.26531   0.15989   0.16708   0.00000  Uiso   1.00
C201   C     0.22326   0.21205   0.16325   0.00000  Uiso   1.00
C202   C     0.23170   0.99118   0.20068   0.00000  Uiso   1.00
C203   C     0.24028   0.94530   0.26322   0.00000  Uiso   1.00
C204   C     0.18680   0.89932   0.30335   0.00000  Uiso   1.00
C205   C     0.29826   0.03837   0.06992   0.00000  Uiso   1.00
C206   C     0.36279   0.03215   0.02252   0.00000  Uiso   1.00
C207   C     0.36534   0.02588   0.95256   0.00000  Uiso   1.00
H208   H     0.12675   0.04569   0.09197   0.00000  Uiso   1.00
H209   H     0.09701   0.15977   0.10610   0.00000  Uiso   1.00
H210   H     0.07200   0.94521   0.20222   0.00000  Uiso   1.00
H211   H     0.19449   0.03204   0.96155   0.00000  Uiso   1.00
H212   H     0.09043   0.28625   0.13136   0.00000  Uiso   1.00
H213   H     0.03769   0.83382   0.33402   0.00000  Uiso   1.00
H214   H     0.29599   0.01693   0.82652   0.00000  Uiso   1.00
H215   H     0.33021   0.04581   0.16570   0.00000  Uiso   1.00
H216   H     0.31164   0.15990   0.18387   0.00000  Uiso   1.00
H217   H     0.28662   0.94534   0.28000   0.00000  Uiso   1.00
H218   H     0.40911   0.03218   0.03933   0.00000  Uiso   1.00
H219   H     0.26463   0.28636   0.19449   0.00000  Uiso   1.00
H220   H     0.21189   0.83393   0.39715   0.00000  Uiso   1.00
H221   H     0.47019   0.01704   0.88965   0.00000  Uiso   1.00
O222   O     0.16163   0.36134   0.17358   0.00000  Uiso   1.00
O223   O     0.09244   0.76777   0.43944   0.00000  Uiso   1.00
O224   O     0.43133   0.00801   0.77362   0.00000  Uiso   1.00
N225   N     0.13399   0.27062   0.14371   0.00000  Uiso   1.00
N226   N     0.08467   0.84764   0.33319   0.00000  Uiso   1.00
N227   N     0.32616   0.01881   0.85873   0.00000  Uiso   1.00
N228   N     0.22772   0.27068   0.17768   0.00000  Uiso   1.00
N229   N     0.17841   0.84770   0.36716   0.00000  Uiso   1.00
N230   N     0.41989   0.01887   0.89270   0.00000  Uiso   1.00
C231   C     0.03963   0.35426   0.89081   0.00000  Uiso   1.00
C232   C     0.09307   0.38322   0.91527   0.00000  Uiso   1.00
C233   C     0.15855   0.40777   0.86996   0.00000  Uiso   1.00
C234   C     0.19968   0.43212   0.90291   0.00000  Uiso   1.00
C235   C     0.28623   0.47715   0.92939   0.00000  Uiso   1.00
C236   C     0.97527   0.39261   0.90805   0.00000  Uiso   1.00
C237   C     0.94168   0.42505   0.85666   0.00000  Uiso   1.00
C238   C     0.88364   0.45730   0.88353   0.00000  Uiso   1.00
C239   C     0.78726   0.51687   0.89881   0.00000  Uiso   1.00
C240   C     0.02083   0.28668   0.94441   0.00000  Uiso   1.00
C241   C     0.02555   0.23005   0.92360   0.00000  Uiso   1.00
C242   C     0.00586   0.17311   0.98109   0.00000  Uiso   1.00
C243   C     0.98023   0.06821   0.05283   0.00000  Uiso   1.00
C244   C     0.99626   0.35386   0.02990   0.00000  Uiso   1.00
C245   C     0.06951   0.38300   0.99082   0.00000  Uiso   1.00
C246   C     0.11056   0.40733   0.02385   0.00000  Uiso   1.00
C247   C     0.17608   0.43190   0.97859   0.00000  Uiso   1.00
C248   C     0.95171   0.39240   0.98359   0.00000  Uiso   1.00
C249   C     0.89370   0.42461   0.01054   0.00000  Uiso   1.00
C250   C     0.86004   0.45709   0.95921   0.00000  Uiso   1.00
C251   C     0.99728   0.28646   0.01996   0.00000  Uiso   1.00
C252   C     0.97757   0.22961   0.07749   0.00000  Uiso   1.00
C253   C     0.98225   0.17290   0.05677   0.00000  Uiso   1.00
H254   H     0.05797   0.35443   0.83199   0.00000  Uiso   1.00
H255   H     0.17676   0.40793   0.81150   0.00000  Uiso   1.00
H256   H     0.95992   0.42520   0.79820   0.00000  Uiso   1.00
H257   H     0.04378   0.23023   0.86514   0.00000  Uiso   1.00
H258   H     0.29805   0.46717   0.82209   0.00000  Uiso   1.00
H259   H     0.84084   0.50357   0.79406   0.00000  Uiso   1.00
H260   H     0.01766   0.09244   0.93520   0.00000  Uiso   1.00
H261   H     0.97792   0.35369   0.08871   0.00000  Uiso   1.00
H262   H     0.09231   0.40715   0.08231   0.00000  Uiso   1.00
H263   H     0.87548   0.42442   0.06901   0.00000  Uiso   1.00
H264   H     0.95934   0.22946   0.13594   0.00000  Uiso   1.00
H265   H     0.22951   0.46654   0.04188   0.00000  Uiso   1.00
H266   H     0.77230   0.50294   0.01385   0.00000  Uiso   1.00
H267   H     0.94913   0.09181   0.15500   0.00000  Uiso   1.00
O268   O     0.34047   0.50206   0.92313   0.00000  Uiso   1.00
O269   O     0.74062   0.54980   0.88636   0.00000  Uiso   1.00
O270   O     0.97261   0.01041   0.07154   0.00000  Uiso   1.00
N271   N     0.26623   0.45968   0.87470   0.00000  Uiso   1.00
N272   N     0.83876   0.49372   0.84849   0.00000  Uiso   1.00
N273   N     0.00407   0.10934   0.98045   0.00000  Uiso   1.00
N274   N     0.22935   0.45934   0.99297   0.00000  Uiso   1.00
N275   N     0.80188   0.49338   0.96676   0.00000  Uiso   1.00
N276   N     0.96719   0.10900   0.09872   0.00000  Uiso   1.00
C277   C     0.23469   0.57408   0.42214   0.00000  Uiso   1.00
C278   C     0.23726   0.52551   0.37793   0.00000  Uiso   1.00
C279   C     0.27706   0.47184   0.38111   0.00000  Uiso   1.00
C280   C     0.27216   0.43335   0.33633   0.00000  Uiso   1.00
C281   C     0.28269   0.35569   0.27474   0.00000  Uiso   1.00
C282   C     0.15909   0.57561   0.46615   0.00000  Uiso   1.00
C283   C     0.13316   0.56406   0.54350   0.00000  Uiso   1.00
C284   C     0.06246   0.56775   0.57298   0.00000  Uiso   1.00
C285   C     0.95163   0.56790   0.64835   0.00000  Uiso   1.00
C286   C     0.25326   0.63968   0.36399   0.00000  Uiso   1.00
C287   C     0.30650   0.68202   0.35546   0.00000  Uiso   1.00
C288   C     0.31507   0.73966   0.29894   0.00000  Uiso   1.00
C289   C     0.35045   0.83929   0.21569   0.00000  Uiso   1.00
C290   C     0.15523   0.60117   0.33696   0.00000  Uiso   1.00
C291   C     0.19410   0.54023   0.33166   0.00000  Uiso   1.00
C292   C     0.18914   0.50181   0.28686   0.00000  Uiso   1.00
C293   C     0.22892   0.44809   0.28997   0.00000  Uiso   1.00
C294   C     0.11593   0.59032   0.41989   0.00000  Uiso   1.00
C295   C     0.04524   0.59403   0.44926   0.00000  Uiso   1.00
C296   C     0.01921   0.58249   0.52663   0.00000  Uiso   1.00
C297   C     0.21010   0.65439   0.31772   0.00000  Uiso   1.00
C298   C     0.21858   0.71198   0.26121   0.00000  Uiso   1.00
C299   C     0.27182   0.75440   0.25259   0.00000  Uiso   1.00
H300   H     0.26829   0.56263   0.45817   0.00000  Uiso   1.00
H301   H     0.31045   0.46047   0.41692   0.00000  Uiso   1.00
H302   H     0.16658   0.55268   0.57929   0.00000  Uiso   1.00
H303   H     0.33989   0.67062   0.39127   0.00000  Uiso   1.00
H304   H     0.33813   0.35369   0.35081   0.00000  Uiso   1.00
H305   H     0.03478   0.54815   0.69317   0.00000  Uiso   1.00
H306   H     0.40024   0.79684   0.29670   0.00000  Uiso   1.00
H307   H     0.12162   0.61262   0.30094   0.00000  Uiso   1.00
H308   H     0.15573   0.51321   0.25107   0.00000  Uiso   1.00
H309   H     0.01186   0.60542   0.41344   0.00000  Uiso   1.00
H310   H     0.18517   0.72335   0.22542   0.00000  Uiso   1.00
H311   H     0.21256   0.39649   0.21620   0.00000  Uiso   1.00
H312   H     0.90920   0.59095   0.55856   0.00000  Uiso   1.00
H313   H     0.27466   0.83964   0.16209   0.00000  Uiso   1.00
O314   O     0.30041   0.30878   0.25355   0.00000  Uiso   1.00
O315   O     0.90243   0.56391   0.70271   0.00000  Uiso   1.00
O316   O     0.38190   0.89018   0.18255   0.00000  Uiso   1.00
N317   N     0.30391   0.37741   0.32596   0.00000  Uiso   1.00
N318   N     0.02029   0.55921   0.64605   0.00000  Uiso   1.00
N319   N     0.36195   0.79172   0.27540   0.00000  Uiso   1.00
N320   N     0.23634   0.40044   0.25353   0.00000  Uiso   1.00
N321   N     0.95272   0.58224   0.57361   0.00000  Uiso   1.00
N322   N     0.29438   0.81475   0.20296   0.00000  Uiso   1.00
C323   C     0.61803   0.42285   0.23965   0.00000  Uiso   1.00
C324   C     0.58024   0.42111   0.18302   0.00000  Uiso   1.00
C325   C     0.59966   0.45616   0.10776   0.00000  Uiso   1.00
C326   C     0.55825   0.44784   0.06527   0.00000  Uiso   1.00
C327   C     0.50852   0.45149   0.97251   0.00000  Uiso   1.00
C328   C     0.63474   0.35345   0.27192   0.00000  Uiso   1.00
C329   C     0.69997   0.33163   0.27141   0.00000  Uiso   1.00
C330   C     0.70444   0.26636   0.30376   0.00000  Uiso   1.00
C331   C     0.73930   0.16498   0.34906   0.00000  Uiso   1.00
C332   C     0.56507   0.44112   0.30401   0.00000  Uiso   1.00
C333   C     0.57174   0.49301   0.33050   0.00000  Uiso   1.00
C334   C     0.51756   0.50155   0.38988   0.00000  Uiso   1.00
C335   C     0.44426   0.53629   0.48501   0.00000  Uiso   1.00
C336   C     0.50998   0.34573   0.29803   0.00000  Uiso   1.00
C337   C     0.52155   0.37921   0.21474   0.00000  Uiso   1.00
C338   C     0.48010   0.37084   0.17235   0.00000  Uiso   1.00
C339   C     0.49945   0.40588   0.09703   0.00000  Uiso   1.00
C340   C     0.57605   0.31156   0.30363   0.00000  Uiso   1.00
C341   C     0.58042   0.24631   0.33600   0.00000  Uiso   1.00
C342   C     0.64564   0.22440   0.33553   0.00000  Uiso   1.00
C343   C     0.50638   0.39924   0.33572   0.00000  Uiso   1.00
C344   C     0.45218   0.40769   0.39508   0.00000  Uiso   1.00
C345   C     0.45876   0.45958   0.42165   0.00000  Uiso   1.00
H346   H     0.66373   0.45545   0.21497   0.00000  Uiso   1.00
H347   H     0.64509   0.48857   0.08324   0.00000  Uiso   1.00
H348   H     0.74538   0.36406   0.24687   0.00000  Uiso   1.00
H349   H     0.61717   0.52542   0.30594   0.00000  Uiso   1.00
H350   H     0.59854   0.50680   0.95117   0.00000  Uiso   1.00
H351   H     0.81002   0.24426   0.29622   0.00000  Uiso   1.00
H352   H     0.53966   0.58451   0.42079   0.00000  Uiso   1.00
H353   H     0.46428   0.31311   0.32272   0.00000  Uiso   1.00
H354   H     0.43469   0.33842   0.19690   0.00000  Uiso   1.00
H355   H     0.53499   0.21391   0.36053   0.00000  Uiso   1.00
H356   H     0.40677   0.37526   0.41961   0.00000  Uiso   1.00
H357   H     0.42778   0.38493   0.04343   0.00000  Uiso   1.00
H358   H     0.63926   0.12239   0.38847   0.00000  Uiso   1.00
H359   H     0.36889   0.46264   0.51305   0.00000  Uiso   1.00
O360   O     0.49731   0.46506   0.91258   0.00000  Uiso   1.00
O361   O     0.77475   0.12063   0.36528   0.00000  Uiso   1.00
O362   O     0.42004   0.56703   0.52872   0.00000  Uiso   1.00
N363   N     0.56241   0.47465   0.99016   0.00000  Uiso   1.00
N364   N     0.76013   0.22920   0.31274   0.00000  Uiso   1.00
N365   N     0.50737   0.54729   0.42922   0.00000  Uiso   1.00
N366   N     0.47052   0.40908   0.03980   0.00000  Uiso   1.00
N367   N     0.66824   0.16362   0.36238   0.00000  Uiso   1.00
N368   N     0.41548   0.48172   0.47886   0.00000  Uiso   1.00
C369   C     0.52514   0.69192   0.13049   0.00000  Uiso   1.00
C370   C     0.48034   0.65192   0.10681   0.00000  Uiso   1.00
C371   C     0.41755   0.62048   0.15157   0.00000  Uiso   1.00
C372   C     0.38454   0.58640   0.11950   0.00000  Uiso   1.00
C373   C     0.31059   0.52470   0.09400   0.00000  Uiso   1.00
C374   C     0.53584   0.75826   0.07352   0.00000  Uiso   1.00
C375   C     0.51972   0.81622   0.09029   0.00000  Uiso   1.00
C376   C     0.53345   0.87166   0.03020   0.00000  Uiso   1.00
C377   C     0.54571   0.97506   0.95301   0.00000  Uiso   1.00
C378   C     0.59557   0.66243   0.11757   0.00000  Uiso   1.00
C379   C     0.62968   0.63984   0.17138   0.00000  Uiso   1.00
C380   C     0.69370   0.61462   0.14838   0.00000  Uiso   1.00
C381   C     0.79870   0.56923   0.13960   0.00000  Uiso   1.00
C382   C     0.57818   0.68732   0.99395   0.00000  Uiso   1.00
C383   C     0.50915   0.64943   0.03265   0.00000  Uiso   1.00
C384   C     0.47623   0.61539   0.00051   0.00000  Uiso   1.00
C385   C     0.41341   0.58390   0.04521   0.00000  Uiso   1.00
C386   C     0.56465   0.75576   0.99936   0.00000  Uiso   1.00
C387   C     0.57841   0.81113   0.93923   0.00000  Uiso   1.00
C388   C     0.56231   0.86916   0.95590   0.00000  Uiso   1.00
C389   C     0.62438   0.65993   0.04341   0.00000  Uiso   1.00
C390   C     0.68837   0.63475   0.02032   0.00000  Uiso   1.00
C391   C     0.72257   0.61212   0.07408   0.00000  Uiso   1.00
H392   H     0.50271   0.69387   0.18823   0.00000  Uiso   1.00
H393   H     0.39527   0.62243   0.20896   0.00000  Uiso   1.00
H394   H     0.49744   0.81814   0.14768   0.00000  Uiso   1.00
H395   H     0.60737   0.64178   0.22877   0.00000  Uiso   1.00
H396   H     0.28885   0.54214   0.19923   0.00000  Uiso   1.00
H397   H     0.50429   0.95481   0.07003   0.00000  Uiso   1.00
H398   H     0.73612   0.58293   0.24101   0.00000  Uiso   1.00
H399   H     0.60061   0.68538   0.93621   0.00000  Uiso   1.00
H400   H     0.49854   0.61347   0.94311   0.00000  Uiso   1.00
H401   H     0.60071   0.80918   0.88184   0.00000  Uiso   1.00
H402   H     0.71064   0.63282   0.96293   0.00000  Uiso   1.00
H403   H     0.37266   0.53487   0.98346   0.00000  Uiso   1.00
H404   H     0.58811   0.94754   0.85427   0.00000  Uiso   1.00
H405   H     0.81994   0.57566   0.02524   0.00000  Uiso   1.00
O406   O     0.26183   0.49137   0.10042   0.00000  Uiso   1.00
O407   O     0.54450   0.03278   0.93093   0.00000  Uiso   1.00
O408   O     0.84865   0.54487   0.15525   0.00000  Uiso   1.00
N409   N     0.32259   0.55029   0.14750   0.00000  Uiso   1.00
N410   N     0.52400   0.93611   0.02671   0.00000  Uiso   1.00
N411   N     0.74075   0.58844   0.18656   0.00000  Uiso   1.00
N412   N     0.36769   0.54637   0.03140   0.00000  Uiso   1.00
N413   N     0.56911   0.93220   0.91061   0.00000  Uiso   1.00
N414   N     0.78586   0.58453   0.07046   0.00000  Uiso   1.00
C415   C     0.73327   0.08802   0.02745   0.00000  Uiso   1.00
C416   C     0.73205   0.09616   0.94724   0.00000  Uiso   1.00
C417   C     0.78404   0.08014   0.89112   0.00000  Uiso   1.00
C418   C     0.77308   0.09129   0.82146   0.00000  Uiso   1.00
C419   C     0.78044   0.09997   0.69887   0.00000  Uiso   1.00
C420   C     0.72214   0.15445   0.04011   0.00000  Uiso   1.00
C421   C     0.76580   0.18744   0.06209   0.00000  Uiso   1.00
C422   C     0.74650   0.24766   0.07062   0.00000  Uiso   1.00
C423   C     0.73846   0.34683   0.09226   0.00000  Uiso   1.00
C424   C     0.66892   0.04654   0.07861   0.00000  Uiso   1.00
C425   C     0.66782   0.98880   0.13299   0.00000  Uiso   1.00
C426   C     0.60370   0.95816   0.17395   0.00000  Uiso   1.00
C427   C     0.51303   0.88977   0.25539   0.00000  Uiso   1.00
C428   C     0.62135   0.13630   0.00352   0.00000  Uiso   1.00
C429   C     0.67126   0.12239   0.93424   0.00000  Uiso   1.00
C430   C     0.66021   0.13356   0.86465   0.00000  Uiso   1.00
C431   C     0.71218   0.11756   0.80844   0.00000  Uiso   1.00
C432   C     0.66136   0.18068   0.02711   0.00000  Uiso   1.00
C433   C     0.64198   0.24086   0.03561   0.00000  Uiso   1.00
C434   C     0.68560   0.27394   0.05760   0.00000  Uiso   1.00
C435   C     0.60813   0.07276   0.06562   0.00000  Uiso   1.00
C436   C     0.54400   0.04222   0.10651   0.00000  Uiso   1.00
C437   C     0.54280   0.98444   0.16093   0.00000  Uiso   1.00
H438   H     0.78060   0.06760   0.03757   0.00000  Uiso   1.00
H439   H     0.83108   0.05985   0.90120   0.00000  Uiso   1.00
H440   H     0.81284   0.16713   0.07215   0.00000  Uiso   1.00
H441   H     0.71487   0.96852   0.14303   0.00000  Uiso   1.00
H442   H     0.86025   0.06284   0.74427   0.00000  Uiso   1.00
H443   H     0.82178   0.28905   0.10475   0.00000  Uiso   1.00
H444   H     0.61520   0.87022   0.25422   0.00000  Uiso   1.00
H445   H     0.57402   0.15672   0.99340   0.00000  Uiso   1.00
H446   H     0.61316   0.15386   0.85461   0.00000  Uiso   1.00
H447   H     0.59493   0.26114   0.02555   0.00000  Uiso   1.00
H448   H     0.49696   0.06253   0.09643   0.00000  Uiso   1.00
H449   H     0.68338   0.13915   0.70645   0.00000  Uiso   1.00
H450   H     0.64492   0.36535   0.06693   0.00000  Uiso   1.00
H451   H     0.43834   0.94652   0.21640   0.00000  Uiso   1.00
O452   O     0.80131   0.09753   0.63484   0.00000  Uiso   1.00
O453   O     0.75083   0.39428   0.10779   0.00000  Uiso   1.00
O454   O     0.47981   0.84480   0.30389   0.00000  Uiso   1.00
N455   N     0.81325   0.08118   0.75442   0.00000  Uiso   1.00
N456   N     0.77729   0.29267   0.09143   0.00000  Uiso   1.00
N457   N     0.58415   0.90112   0.23119   0.00000  Uiso   1.00
N458   N     0.71808   0.12224   0.73407   0.00000  Uiso   1.00
N459   N     0.68212   0.33373   0.07108   0.00000  Uiso   1.00
N460   N     0.48898   0.94217   0.21084   0.00000  Uiso   1.00
C461   C     0.03129   0.11274   0.71483   0.00000  Uiso   1.00
C462   C     0.00330   0.05915   0.69295   0.00000  Uiso   1.00
C463   C     0.00097   0.99381   0.72904   0.00000  Uiso   1.00
C464   C     0.97345   0.95250   0.70040   0.00000  Uiso   1.00
C465   C     0.93373   0.86575   0.67590   0.00000  Uiso   1.00
C466   C     0.08710   0.15000   0.64488   0.00000  Uiso   1.00
C467   C     0.15522   0.16105   0.64058   0.00000  Uiso   1.00
C468   C     0.19824   0.19622   0.57147   0.00000  Uiso   1.00
C469   C     0.28860   0.25055   0.47238   0.00000  Uiso   1.00
C470   C     0.97282   0.15841   0.72780   0.00000  Uiso   1.00
C471   C     0.94485   0.17655   0.79320   0.00000  Uiso   1.00
C472   C     0.89166   0.21881   0.79389   0.00000  Uiso   1.00
C473   C     0.80458   0.28620   0.82353   0.00000  Uiso   1.00
C474   C     0.98657   0.15555   0.59976   0.00000  Uiso   1.00
C475   C     0.97902   0.08240   0.63044   0.00000  Uiso   1.00
C476   C     0.95149   0.04118   0.60173   0.00000  Uiso   1.00
C477   C     0.94911   0.97579   0.63778   0.00000  Uiso   1.00
C478   C     0.06282   0.17325   0.58238   0.00000  Uiso   1.00
C479   C     0.10575   0.20842   0.51327   0.00000  Uiso   1.00
C480   C     0.17391   0.21952   0.50886   0.00000  Uiso   1.00
C481   C     0.94853   0.18166   0.66529   0.00000  Uiso   1.00
C482   C     0.89538   0.22391   0.66588   0.00000  Uiso   1.00
C483   C     0.86733   0.24211   0.73127   0.00000  Uiso   1.00
H484   H     0.05020   0.09463   0.76349   0.00000  Uiso   1.00
H485   H     0.01977   0.97583   0.77741   0.00000  Uiso   1.00
H486   H     0.17400   0.14305   0.68896   0.00000  Uiso   1.00
H487   H     0.96366   0.15854   0.84155   0.00000  Uiso   1.00
H488   H     0.97535   0.85437   0.76526   0.00000  Uiso   1.00
H489   H     0.30054   0.20698   0.57877   0.00000  Uiso   1.00
H490   H     0.85700   0.23965   0.90054   0.00000  Uiso   1.00
H491   H     0.96766   0.17366   0.55109   0.00000  Uiso   1.00
H492   H     0.93270   0.05919   0.55336   0.00000  Uiso   1.00
H493   H     0.08693   0.22641   0.46491   0.00000  Uiso   1.00
H494   H     0.87659   0.24190   0.61751   0.00000  Uiso   1.00
H495   H     0.90469   0.92203   0.58342   0.00000  Uiso   1.00
H496   H     0.22987   0.27464   0.39692   0.00000  Uiso   1.00
H497   H     0.78633   0.30730   0.71870   0.00000  Uiso   1.00
O498   O     0.91853   0.81147   0.67965   0.00000  Uiso   1.00
O499   O     0.34516   0.27409   0.43498   0.00000  Uiso   1.00
O500   O     0.76325   0.31694   0.85714   0.00000  Uiso   1.00
N501   N     0.96351   0.88600   0.72216   0.00000  Uiso   1.00
N502   N     0.26754   0.21567   0.54780   0.00000  Uiso   1.00
N503   N     0.85288   0.24622   0.84863   0.00000  Uiso   1.00
N504   N     0.92548   0.92241   0.62432   0.00000  Uiso   1.00
N505   N     0.22951   0.25207   0.44995   0.00000  Uiso   1.00
N506   N     0.81485   0.28262   0.75078   0.00000  Uiso   1.00
C507   C     0.92043   0.88188   0.98258   0.00000  Uiso   1.00
C508   C     0.87649   0.87099   0.93517   0.00000  Uiso   1.00
C509   C     0.82458   0.90971   0.91698   0.00000  Uiso   1.00
C510   C     0.79039   0.89156   0.87302   0.00000  Uiso   1.00
C511   C     0.71953   0.88299   0.80322   0.00000  Uiso   1.00
C512   C     0.91122   0.82035   0.04716   0.00000  Uiso   1.00
C513   C     0.88852   0.81650   0.12313   0.00000  Uiso   1.00
C514   C     0.88357   0.75573   0.17344   0.00000  Uiso   1.00
C515   C     0.86668   0.66854   0.27750   0.00000  Uiso   1.00
C516   C     0.99522   0.88501   0.93407   0.00000  Uiso   1.00
C517   C     0.04315   0.93553   0.91497   0.00000  Uiso   1.00
C518   C     0.10893   0.92918   0.87009   0.00000  Uiso   1.00
C519   C     0.22245   0.94239   0.79857   0.00000  Uiso   1.00
C520   C     0.95201   0.78078   0.93685   0.00000  Uiso   1.00
C521   C     0.89365   0.81607   0.91034   0.00000  Uiso   1.00
C522   C     0.85952   0.79786   0.86639   0.00000  Uiso   1.00
C523   C     0.80757   0.83655   0.84814   0.00000  Uiso   1.00
C524   C     0.92837   0.76544   0.02233   0.00000  Uiso   1.00
C525   C     0.92346   0.70465   0.07254   0.00000  Uiso   1.00
C526   C     0.90075   0.70071   0.14856   0.00000  Uiso   1.00
C527   C     0.01237   0.83010   0.90924   0.00000  Uiso   1.00
C528   C     0.07809   0.82367   0.86438   0.00000  Uiso   1.00
C529   C     0.12611   0.87417   0.84521   0.00000  Uiso   1.00
H530   H     0.90707   0.92463   0.00192   0.00000  Uiso   1.00
H531   H     0.81132   0.95220   0.93622   0.00000  Uiso   1.00
H532   H     0.87525   0.85901   0.14233   0.00000  Uiso   1.00
H533   H     0.02986   0.97801   0.93420   0.00000  Uiso   1.00
H534   H     0.71270   0.95854   0.85245   0.00000  Uiso   1.00
H535   H     0.84754   0.76204   0.28704   0.00000  Uiso   1.00
H536   H     0.17355   0.01298   0.84817   0.00000  Uiso   1.00
H537   H     0.96537   0.73803   0.91752   0.00000  Uiso   1.00
H538   H     0.87281   0.75536   0.84718   0.00000  Uiso   1.00
H539   H     0.93674   0.66217   0.05330   0.00000  Uiso   1.00
H540   H     0.09135   0.78117   0.84517   0.00000  Uiso   1.00
H541   H     0.76261   0.79878   0.78019   0.00000  Uiso   1.00
H542   H     0.89745   0.60228   0.21479   0.00000  Uiso   1.00
H543   H     0.22346   0.85322   0.77591   0.00000  Uiso   1.00
O544   O     0.67570   0.89342   0.77159   0.00000  Uiso   1.00
O545   O     0.85261   0.63562   0.34176   0.00000  Uiso   1.00
O546   O     0.28033   0.96485   0.76597   0.00000  Uiso   1.00
N547   N     0.73716   0.91857   0.84508   0.00000  Uiso   1.00
N548   N     0.86321   0.73485   0.25140   0.00000  Uiso   1.00
N549   N     0.16801   0.96946   0.84111   0.00000  Uiso   1.00
N550   N     0.76401   0.83260   0.80620   0.00000  Uiso   1.00
N551   N     0.89007   0.64889   0.21252   0.00000  Uiso   1.00
N552   N     0.19486   0.88349   0.80223   0.00000  Uiso   1.00
