data_job_00846
_audit_creation_date              2018-12-19
_audit_creation_method            'Materials Studio'
_symmetry_space_group_name_H-M    'P1'
_symmetry_Int_Tables_number       1
_symmetry_cell_setting            triclinic
loop_
_symmetry_equiv_pos_as_xyz
  x,y,z
_cell_length_a                    18.8033
_cell_length_b                    7.3128
_cell_length_c                    18.0974
_cell_angle_alpha                 90.0000
_cell_angle_beta                  89.4303
_cell_angle_gamma                 90.0000
loop_
_atom_site_label
_atom_site_type_symbol
_atom_site_fract_x
_atom_site_fract_y
_atom_site_fract_z
_atom_site_U_iso_or_equiv
_atom_site_adp_type
_atom_site_occupancy
C1     C     0.28162   0.85675   0.98445   0.00000  Uiso   1.00
C2     C     0.28488   0.71909   0.04762   0.00000  Uiso   1.00
C3     C     0.27675   0.75930   0.12216   0.00000  Uiso   1.00
C4     C     0.28153   0.61417   0.17132   0.00000  Uiso   1.00
C5     C     0.28467   0.42761   0.27314   0.00000  Uiso   1.00
C6     C     0.22399   0.78778   0.93270   0.00000  Uiso   1.00
C7     C     0.16467   0.88576   0.91063   0.00000  Uiso   1.00
C8     C     0.11820   0.79845   0.86304   0.00000  Uiso   1.00
C9     C     0.02684   0.71859   0.78642   0.00000  Uiso   1.00
C10    C     0.35169   0.83773   0.94201   0.00000  Uiso   1.00
C11    C     0.39973   0.97773   0.92773   0.00000  Uiso   1.00
C12    C     0.46076   0.93249   0.88797   0.00000  Uiso   1.00
C13    C     0.56766   0.93019   0.82579   0.00000  Uiso   1.00
C14    C     0.30457   0.52749   0.93919   0.00000  Uiso   1.00
C15    C     0.29735   0.54025   0.02303   0.00000  Uiso   1.00
C16    C     0.30214   0.39501   0.07209   0.00000  Uiso   1.00
C17    C     0.29402   0.43500   0.14670   0.00000  Uiso   1.00
C18    C     0.23646   0.60894   0.90812   0.00000  Uiso   1.00
C19    C     0.19007   0.52147   0.86055   0.00000  Uiso   1.00
C20    C     0.13069   0.61929   0.83842   0.00000  Uiso   1.00
C21    C     0.36416   0.65889   0.91742   0.00000  Uiso   1.00
C22    C     0.42512   0.61343   0.87767   0.00000  Uiso   1.00
C23    C     0.47325   0.75332   0.86334   0.00000  Uiso   1.00
H24    H     0.27191   0.99598   0.00358   0.00000  Uiso   1.00
H25    H     0.26710   0.89772   0.14116   0.00000  Uiso   1.00
H26    H     0.15504   0.02416   0.92965   0.00000  Uiso   1.00
H27    H     0.39006   0.11611   0.94677   0.00000  Uiso   1.00
H28    H     0.26724   0.70990   0.28286   0.00000  Uiso   1.00
H29    H     0.03097   0.97654   0.83686   0.00000  Uiso   1.00
H30    H     0.52656   0.17043   0.87294   0.00000  Uiso   1.00
H31    H     0.31427   0.38825   0.92005   0.00000  Uiso   1.00
H32    H     0.31179   0.25663   0.05305   0.00000  Uiso   1.00
H33    H     0.19973   0.38308   0.84154   0.00000  Uiso   1.00
H34    H     0.43475   0.47502   0.85865   0.00000  Uiso   1.00
H35    H     0.30351   0.18956   0.21134   0.00000  Uiso   1.00
H36    H     0.06725   0.45621   0.76534   0.00000  Uiso   1.00
H37    H     0.56283   0.65009   0.80142   0.00000  Uiso   1.00
O38    O     0.28295   0.37411   0.33610   0.00000  Uiso   1.00
O39    O     0.97299   0.72394   0.75095   0.00000  Uiso   1.00
O40    O     0.62319   0.97831   0.79829   0.00000  Uiso   1.00
N41    N     0.27613   0.60551   0.24777   0.00000  Uiso   1.00
N42    N     0.05523   0.85479   0.83080   0.00000  Uiso   1.00
N43    N     0.51855   0.03607   0.86452   0.00000  Uiso   1.00
N44    N     0.29565   0.32552   0.20929   0.00000  Uiso   1.00
N45    N     0.07475   0.57480   0.79232   0.00000  Uiso   1.00
N46    N     0.53807   0.75608   0.82603   0.00000  Uiso   1.00
C47    C     0.71838   0.35675   0.51555   0.00000  Uiso   1.00
C48    C     0.71512   0.21909   0.45238   0.00000  Uiso   1.00
C49    C     0.72325   0.25930   0.37784   0.00000  Uiso   1.00
C50    C     0.71847   0.11417   0.32868   0.00000  Uiso   1.00
C51    C     0.71533   0.92761   0.22686   0.00000  Uiso   1.00
C52    C     0.77601   0.28778   0.56730   0.00000  Uiso   1.00
C53    C     0.83533   0.38576   0.58937   0.00000  Uiso   1.00
C54    C     0.88180   0.29845   0.63696   0.00000  Uiso   1.00
C55    C     0.97316   0.21859   0.71358   0.00000  Uiso   1.00
C56    C     0.64831   0.33773   0.55799   0.00000  Uiso   1.00
C57    C     0.60027   0.47773   0.57227   0.00000  Uiso   1.00
C58    C     0.53924   0.43249   0.61203   0.00000  Uiso   1.00
C59    C     0.43234   0.43019   0.67421   0.00000  Uiso   1.00
C60    C     0.69543   0.02749   0.56081   0.00000  Uiso   1.00
C61    C     0.70265   0.04025   0.47697   0.00000  Uiso   1.00
C62    C     0.69786   0.89501   0.42791   0.00000  Uiso   1.00
C63    C     0.70598   0.93500   0.35330   0.00000  Uiso   1.00
C64    C     0.76354   0.10894   0.59188   0.00000  Uiso   1.00
C65    C     0.80993   0.02147   0.63945   0.00000  Uiso   1.00
C66    C     0.86931   0.11929   0.66158   0.00000  Uiso   1.00
C67    C     0.63584   0.15889   0.58258   0.00000  Uiso   1.00
C68    C     0.57488   0.11343   0.62233   0.00000  Uiso   1.00
C69    C     0.52675   0.25332   0.63666   0.00000  Uiso   1.00
H70    H     0.72809   0.49598   0.49642   0.00000  Uiso   1.00
H71    H     0.73290   0.39772   0.35884   0.00000  Uiso   1.00
H72    H     0.84496   0.52416   0.57035   0.00000  Uiso   1.00
H73    H     0.60994   0.61611   0.55323   0.00000  Uiso   1.00
H74    H     0.73276   0.20990   0.21714   0.00000  Uiso   1.00
H75    H     0.96903   0.47654   0.66314   0.00000  Uiso   1.00
H76    H     0.47344   0.67043   0.62706   0.00000  Uiso   1.00
H77    H     0.68573   0.88825   0.57995   0.00000  Uiso   1.00
H78    H     0.68821   0.75663   0.44695   0.00000  Uiso   1.00
H79    H     0.80027   0.88308   0.65846   0.00000  Uiso   1.00
H80    H     0.56525   0.97502   0.64135   0.00000  Uiso   1.00
H81    H     0.69649   0.68956   0.28866   0.00000  Uiso   1.00
H82    H     0.93275   0.95621   0.73466   0.00000  Uiso   1.00
H83    H     0.43717   0.15009   0.69858   0.00000  Uiso   1.00
O84    O     0.71705   0.87411   0.16390   0.00000  Uiso   1.00
O85    O     0.02701   0.22394   0.74905   0.00000  Uiso   1.00
O86    O     0.37681   0.47831   0.70171   0.00000  Uiso   1.00
N87    N     0.72387   0.10551   0.25223   0.00000  Uiso   1.00
N88    N     0.94477   0.35479   0.66920   0.00000  Uiso   1.00
N89    N     0.48145   0.53607   0.63548   0.00000  Uiso   1.00
N90    N     0.70435   0.82552   0.29071   0.00000  Uiso   1.00
N91    N     0.92525   0.07480   0.70768   0.00000  Uiso   1.00
N92    N     0.46193   0.25608   0.67397   0.00000  Uiso   1.00
C93    C     0.71838   0.14325   0.01555   0.00000  Uiso   1.00
C94    C     0.71512   0.28091   0.95238   0.00000  Uiso   1.00
C95    C     0.72325   0.24070   0.87784   0.00000  Uiso   1.00
C96    C     0.71847   0.38583   0.82868   0.00000  Uiso   1.00
C97    C     0.71533   0.57239   0.72686   0.00000  Uiso   1.00
C98    C     0.77601   0.21222   0.06730   0.00000  Uiso   1.00
C99    C     0.83533   0.11424   0.08937   0.00000  Uiso   1.00
C100   C     0.88180   0.20155   0.13696   0.00000  Uiso   1.00
C101   C     0.97316   0.28141   0.21358   0.00000  Uiso   1.00
C102   C     0.64831   0.16227   0.05799   0.00000  Uiso   1.00
C103   C     0.60027   0.02227   0.07227   0.00000  Uiso   1.00
C104   C     0.53924   0.06751   0.11203   0.00000  Uiso   1.00
C105   C     0.43234   0.06981   0.17421   0.00000  Uiso   1.00
C106   C     0.69543   0.47251   0.06081   0.00000  Uiso   1.00
C107   C     0.70265   0.45975   0.97697   0.00000  Uiso   1.00
C108   C     0.69786   0.60499   0.92791   0.00000  Uiso   1.00
C109   C     0.70598   0.56500   0.85330   0.00000  Uiso   1.00
C110   C     0.76354   0.39106   0.09188   0.00000  Uiso   1.00
C111   C     0.80993   0.47853   0.13945   0.00000  Uiso   1.00
C112   C     0.86931   0.38071   0.16158   0.00000  Uiso   1.00
C113   C     0.63584   0.34111   0.08258   0.00000  Uiso   1.00
C114   C     0.57488   0.38657   0.12233   0.00000  Uiso   1.00
C115   C     0.52675   0.24668   0.13666   0.00000  Uiso   1.00
H116   H     0.72809   0.00402   0.99642   0.00000  Uiso   1.00
H117   H     0.73290   0.10228   0.85884   0.00000  Uiso   1.00
H118   H     0.84496   0.97584   0.07035   0.00000  Uiso   1.00
H119   H     0.60994   0.88389   0.05323   0.00000  Uiso   1.00
H120   H     0.73276   0.29010   0.71714   0.00000  Uiso   1.00
H121   H     0.96903   0.02346   0.16314   0.00000  Uiso   1.00
H122   H     0.47344   0.82957   0.12706   0.00000  Uiso   1.00
H123   H     0.68573   0.61175   0.07995   0.00000  Uiso   1.00
H124   H     0.68821   0.74337   0.94695   0.00000  Uiso   1.00
H125   H     0.80027   0.61692   0.15846   0.00000  Uiso   1.00
H126   H     0.56525   0.52498   0.14135   0.00000  Uiso   1.00
H127   H     0.69649   0.81044   0.78866   0.00000  Uiso   1.00
H128   H     0.93275   0.54379   0.23466   0.00000  Uiso   1.00
H129   H     0.43717   0.34991   0.19858   0.00000  Uiso   1.00
O130   O     0.71705   0.62589   0.66390   0.00000  Uiso   1.00
O131   O     0.02701   0.27606   0.24905   0.00000  Uiso   1.00
O132   O     0.37681   0.02169   0.20171   0.00000  Uiso   1.00
N133   N     0.72387   0.39449   0.75223   0.00000  Uiso   1.00
N134   N     0.94477   0.14521   0.16920   0.00000  Uiso   1.00
N135   N     0.48145   0.96393   0.13548   0.00000  Uiso   1.00
N136   N     0.70435   0.67448   0.79071   0.00000  Uiso   1.00
N137   N     0.92525   0.42520   0.20768   0.00000  Uiso   1.00
N138   N     0.46193   0.24392   0.17397   0.00000  Uiso   1.00
C139   C     0.28162   0.64325   0.48445   0.00000  Uiso   1.00
C140   C     0.28488   0.78091   0.54762   0.00000  Uiso   1.00
C141   C     0.27675   0.74070   0.62216   0.00000  Uiso   1.00
C142   C     0.28153   0.88583   0.67132   0.00000  Uiso   1.00
C143   C     0.28467   0.07239   0.77314   0.00000  Uiso   1.00
C144   C     0.22399   0.71222   0.43270   0.00000  Uiso   1.00
C145   C     0.16467   0.61424   0.41063   0.00000  Uiso   1.00
C146   C     0.11820   0.70155   0.36304   0.00000  Uiso   1.00
C147   C     0.02684   0.78141   0.28642   0.00000  Uiso   1.00
C148   C     0.35169   0.66227   0.44201   0.00000  Uiso   1.00
C149   C     0.39973   0.52227   0.42773   0.00000  Uiso   1.00
C150   C     0.46076   0.56751   0.38797   0.00000  Uiso   1.00
C151   C     0.56766   0.56981   0.32579   0.00000  Uiso   1.00
C152   C     0.30457   0.97251   0.43919   0.00000  Uiso   1.00
C153   C     0.29735   0.95975   0.52303   0.00000  Uiso   1.00
C154   C     0.30214   0.10499   0.57209   0.00000  Uiso   1.00
C155   C     0.29402   0.06500   0.64670   0.00000  Uiso   1.00
C156   C     0.23646   0.89106   0.40812   0.00000  Uiso   1.00
C157   C     0.19007   0.97853   0.36055   0.00000  Uiso   1.00
C158   C     0.13069   0.88071   0.33842   0.00000  Uiso   1.00
C159   C     0.36416   0.84111   0.41742   0.00000  Uiso   1.00
C160   C     0.42512   0.88657   0.37767   0.00000  Uiso   1.00
C161   C     0.47325   0.74668   0.36334   0.00000  Uiso   1.00
H162   H     0.27191   0.50402   0.50358   0.00000  Uiso   1.00
H163   H     0.26710   0.60228   0.64116   0.00000  Uiso   1.00
H164   H     0.15504   0.47584   0.42965   0.00000  Uiso   1.00
H165   H     0.39006   0.38389   0.44677   0.00000  Uiso   1.00
H166   H     0.26724   0.79010   0.78286   0.00000  Uiso   1.00
H167   H     0.03097   0.52346   0.33686   0.00000  Uiso   1.00
H168   H     0.52656   0.32957   0.37294   0.00000  Uiso   1.00
H169   H     0.31427   0.11175   0.42005   0.00000  Uiso   1.00
H170   H     0.31179   0.24337   0.55305   0.00000  Uiso   1.00
H171   H     0.19973   0.11692   0.34154   0.00000  Uiso   1.00
H172   H     0.43475   0.02498   0.35865   0.00000  Uiso   1.00
H173   H     0.30351   0.31044   0.71134   0.00000  Uiso   1.00
H174   H     0.06725   0.04379   0.26534   0.00000  Uiso   1.00
H175   H     0.56283   0.84991   0.30142   0.00000  Uiso   1.00
O176   O     0.28295   0.12589   0.83610   0.00000  Uiso   1.00
O177   O     0.97299   0.77606   0.25095   0.00000  Uiso   1.00
O178   O     0.62319   0.52169   0.29829   0.00000  Uiso   1.00
N179   N     0.27613   0.89449   0.74777   0.00000  Uiso   1.00
N180   N     0.05523   0.64521   0.33080   0.00000  Uiso   1.00
N181   N     0.51855   0.46393   0.36452   0.00000  Uiso   1.00
N182   N     0.29565   0.17448   0.70929   0.00000  Uiso   1.00
N183   N     0.07475   0.92520   0.29232   0.00000  Uiso   1.00
N184   N     0.53807   0.74392   0.32603   0.00000  Uiso   1.00
