data_job_05075
_audit_creation_date              2018-12-19
_audit_creation_method            'Materials Studio'
_symmetry_space_group_name_H-M    'P1'
_symmetry_Int_Tables_number       1
_symmetry_cell_setting            triclinic
loop_
_symmetry_equiv_pos_as_xyz
  x,y,z
_cell_length_a                    10.1701
_cell_length_b                    26.6615
_cell_length_c                    24.1956
_cell_angle_alpha                 90.0000
_cell_angle_beta                  90.0000
_cell_angle_gamma                 90.0000
loop_
_atom_site_label
_atom_site_type_symbol
_atom_site_fract_x
_atom_site_fract_y
_atom_site_fract_z
_atom_site_U_iso_or_equiv
_atom_site_adp_type
_atom_site_occupancy
C1     C     0.72308   0.64055   0.26767   0.00000  Uiso   1.00
C2     C     0.73561   0.68359   0.30885   0.00000  Uiso   1.00
C3     C     0.80610   0.68233   0.35794   0.00000  Uiso   1.00
C4     C     0.80538   0.72558   0.38989   0.00000  Uiso   1.00
C5     C     0.83524   0.78587   0.45636   0.00000  Uiso   1.00
C6     C     0.57607   0.63115   0.26086   0.00000  Uiso   1.00
C7     C     0.51243   0.58579   0.26961   0.00000  Uiso   1.00
C8     C     0.37741   0.58489   0.26116   0.00000  Uiso   1.00
C9     C     0.15960   0.56375   0.25310   0.00000  Uiso   1.00
C10    C     0.77078   0.66109   0.21238   0.00000  Uiso   1.00
C11    C     0.87084   0.64090   0.18034   0.00000  Uiso   1.00
C12    C     0.89974   0.66521   0.13107   0.00000  Uiso   1.00
C13    C     0.98425   0.69056   0.04772   0.00000  Uiso   1.00
C14    C     0.59646   0.71961   0.23713   0.00000  Uiso   1.00
C15    C     0.66683   0.72653   0.29225   0.00000  Uiso   1.00
C16    C     0.66601   0.76980   0.32414   0.00000  Uiso   1.00
C17    C     0.73649   0.76860   0.37327   0.00000  Uiso   1.00
C18    C     0.50729   0.67409   0.24427   0.00000  Uiso   1.00
C19    C     0.37234   0.67326   0.23581   0.00000  Uiso   1.00
C20    C     0.30851   0.62791   0.24454   0.00000  Uiso   1.00
C21    C     0.70201   0.70403   0.19578   0.00000  Uiso   1.00
C22    C     0.73075   0.72838   0.14655   0.00000  Uiso   1.00
C23    C     0.83084   0.70823   0.11444   0.00000  Uiso   1.00
H24    H     0.77661   0.60712   0.28059   0.00000  Uiso   1.00
H25    H     0.85930   0.64909   0.37076   0.00000  Uiso   1.00
H26    H     0.56568   0.55256   0.28244   0.00000  Uiso   1.00
H27    H     0.92403   0.60767   0.19319   0.00000  Uiso   1.00
H28    H     0.92060   0.71455   0.46343   0.00000  Uiso   1.00
H29    H     0.30149   0.51102   0.27718   0.00000  Uiso   1.00
H30    H     0.05716   0.62722   0.08898   0.00000  Uiso   1.00
H31    H     0.54291   0.75304   0.22421   0.00000  Uiso   1.00
H32    H     0.61278   0.80303   0.31129   0.00000  Uiso   1.00
H33    H     0.31915   0.70650   0.22297   0.00000  Uiso   1.00
H34    H     0.67751   0.76161   0.13372   0.00000  Uiso   1.00
H35    H     0.72051   0.83949   0.41516   0.00000  Uiso   1.00
H36    H     0.10140   0.63596   0.22891   0.00000  Uiso   1.00
H37    H     0.85706   0.75216   0.04071   0.00000  Uiso   1.00
O38    O     0.87070   0.80726   0.49761   0.00000  Uiso   1.00
O39    O     0.05846   0.54023   0.25324   0.00000  Uiso   1.00
O40    O     0.04987   0.69269   0.00634   0.00000  Uiso   1.00
N41    N     0.86395   0.73710   0.44012   0.00000  Uiso   1.00
N42    N     0.28511   0.54681   0.26599   0.00000  Uiso   1.00
N43    N     0.99157   0.65544   0.09003   0.00000  Uiso   1.00
N44    N     0.75628   0.80433   0.41414   0.00000  Uiso   1.00
N45    N     0.17744   0.61404   0.24002   0.00000  Uiso   1.00
N46    N     0.88390   0.72267   0.06406   0.00000  Uiso   1.00
C47    C     0.32742   0.35758   0.23885   0.00000  Uiso   1.00
C48    C     0.33838   0.31465   0.19746   0.00000  Uiso   1.00
C49    C     0.40944   0.31566   0.14851   0.00000  Uiso   1.00
C50    C     0.40706   0.27257   0.11631   0.00000  Uiso   1.00
C51    C     0.43482   0.21239   0.04955   0.00000  Uiso   1.00
C52    C     0.18079   0.36794   0.24544   0.00000  Uiso   1.00
C53    C     0.11937   0.41377   0.23684   0.00000  Uiso   1.00
C54    C     0.98433   0.41554   0.24504   0.00000  Uiso   1.00
C55    C     0.76745   0.43811   0.25283   0.00000  Uiso   1.00
C56    C     0.37357   0.33646   0.29412   0.00000  Uiso   1.00
C57    C     0.47420   0.35582   0.32645   0.00000  Uiso   1.00
C58    C     0.50145   0.33109   0.37564   0.00000  Uiso   1.00
C59    C     0.58388   0.30479   0.45900   0.00000  Uiso   1.00
C60    C     0.19682   0.27925   0.26872   0.00000  Uiso   1.00
C61    C     0.26744   0.27210   0.21368   0.00000  Uiso   1.00
C62    C     0.26495   0.22900   0.18155   0.00000  Uiso   1.00
C63    C     0.33600   0.22995   0.13256   0.00000  Uiso   1.00
C64    C     0.10986   0.32540   0.26166   0.00000  Uiso   1.00
C65    C     0.97488   0.32710   0.26988   0.00000  Uiso   1.00
C66    C     0.91326   0.37291   0.26129   0.00000  Uiso   1.00
C67    C     0.30263   0.29391   0.31034   0.00000  Uiso   1.00
C68    C     0.32972   0.26915   0.35949   0.00000  Uiso   1.00
C69    C     0.43038   0.28847   0.39189   0.00000  Uiso   1.00
H70    H     0.38264   0.39070   0.22623   0.00000  Uiso   1.00
H71    H     0.46432   0.34860   0.13597   0.00000  Uiso   1.00
H72    H     0.17429   0.44669   0.22430   0.00000  Uiso   1.00
H73    H     0.52908   0.38875   0.31389   0.00000  Uiso   1.00
H74    H     0.52355   0.28316   0.04304   0.00000  Uiso   1.00
H75    H     0.91202   0.48999   0.22931   0.00000  Uiso   1.00
H76    H     0.66016   0.36781   0.41823   0.00000  Uiso   1.00
H77    H     0.14159   0.24612   0.28135   0.00000  Uiso   1.00
H78    H     0.21005   0.19608   0.19411   0.00000  Uiso   1.00
H79    H     0.92002   0.29417   0.28244   0.00000  Uiso   1.00
H80    H     0.27480   0.23623   0.37203   0.00000  Uiso   1.00
H81    H     0.31717   0.15937   0.09023   0.00000  Uiso   1.00
H82    H     0.70564   0.36620   0.27650   0.00000  Uiso   1.00
H83    H     0.45378   0.24403   0.46542   0.00000  Uiso   1.00
O84    O     0.46971   0.19096   0.00825   0.00000  Uiso   1.00
O85    O     0.66742   0.46232   0.25263   0.00000  Uiso   1.00
O86    O     0.64895   0.30203   0.50049   0.00000  Uiso   1.00
N87    N     0.46561   0.26089   0.06612   0.00000  Uiso   1.00
N88    N     0.89386   0.45426   0.24026   0.00000  Uiso   1.00
N89    N     0.59328   0.34005   0.41690   0.00000  Uiso   1.00
N90    N     0.35456   0.19428   0.09152   0.00000  Uiso   1.00
N91    N     0.78281   0.38765   0.26566   0.00000  Uiso   1.00
N92    N     0.48223   0.27344   0.44229   0.00000  Uiso   1.00
C93    C     0.27692   0.35945   0.76767   0.00000  Uiso   1.00
C94    C     0.26439   0.31641   0.80885   0.00000  Uiso   1.00
C95    C     0.19390   0.31767   0.85794   0.00000  Uiso   1.00
C96    C     0.19462   0.27442   0.88989   0.00000  Uiso   1.00
C97    C     0.16476   0.21413   0.95636   0.00000  Uiso   1.00
C98    C     0.42393   0.36885   0.76086   0.00000  Uiso   1.00
C99    C     0.48757   0.41421   0.76961   0.00000  Uiso   1.00
C100   C     0.62259   0.41511   0.76116   0.00000  Uiso   1.00
C101   C     0.84040   0.43625   0.75310   0.00000  Uiso   1.00
C102   C     0.22922   0.33891   0.71238   0.00000  Uiso   1.00
C103   C     0.12916   0.35910   0.68034   0.00000  Uiso   1.00
C104   C     0.10026   0.33479   0.63107   0.00000  Uiso   1.00
C105   C     0.01575   0.30944   0.54772   0.00000  Uiso   1.00
C106   C     0.40354   0.28039   0.73713   0.00000  Uiso   1.00
C107   C     0.33317   0.27347   0.79225   0.00000  Uiso   1.00
C108   C     0.33399   0.23020   0.82414   0.00000  Uiso   1.00
C109   C     0.26351   0.23140   0.87327   0.00000  Uiso   1.00
C110   C     0.49271   0.32591   0.74427   0.00000  Uiso   1.00
C111   C     0.62766   0.32674   0.73581   0.00000  Uiso   1.00
C112   C     0.69149   0.37209   0.74454   0.00000  Uiso   1.00
C113   C     0.29799   0.29597   0.69578   0.00000  Uiso   1.00
C114   C     0.26925   0.27162   0.64655   0.00000  Uiso   1.00
C115   C     0.16916   0.29177   0.61444   0.00000  Uiso   1.00
H116   H     0.22339   0.39288   0.78059   0.00000  Uiso   1.00
H117   H     0.14070   0.35091   0.87076   0.00000  Uiso   1.00
H118   H     0.43432   0.44744   0.78244   0.00000  Uiso   1.00
H119   H     0.07597   0.39233   0.69319   0.00000  Uiso   1.00
H120   H     0.07940   0.28545   0.96343   0.00000  Uiso   1.00
H121   H     0.69851   0.48898   0.77718   0.00000  Uiso   1.00
H122   H     0.94284   0.37278   0.58898   0.00000  Uiso   1.00
H123   H     0.45709   0.24696   0.72421   0.00000  Uiso   1.00
H124   H     0.38722   0.19697   0.81129   0.00000  Uiso   1.00
H125   H     0.68085   0.29350   0.72297   0.00000  Uiso   1.00
H126   H     0.32249   0.23839   0.63372   0.00000  Uiso   1.00
H127   H     0.27949   0.16051   0.91516   0.00000  Uiso   1.00
H128   H     0.89860   0.36404   0.72891   0.00000  Uiso   1.00
H129   H     0.14294   0.24784   0.54071   0.00000  Uiso   1.00
O130   O     0.12930   0.19274   0.99761   0.00000  Uiso   1.00
O131   O     0.94154   0.45977   0.75324   0.00000  Uiso   1.00
O132   O     0.95013   0.30731   0.50634   0.00000  Uiso   1.00
N133   N     0.13605   0.26290   0.94012   0.00000  Uiso   1.00
N134   N     0.71489   0.45319   0.76599   0.00000  Uiso   1.00
N135   N     0.00843   0.34456   0.59003   0.00000  Uiso   1.00
N136   N     0.24372   0.19567   0.91414   0.00000  Uiso   1.00
N137   N     0.82256   0.38596   0.74002   0.00000  Uiso   1.00
N138   N     0.11610   0.27733   0.56406   0.00000  Uiso   1.00
C139   C     0.67258   0.64242   0.73885   0.00000  Uiso   1.00
C140   C     0.66162   0.68535   0.69746   0.00000  Uiso   1.00
C141   C     0.59056   0.68434   0.64851   0.00000  Uiso   1.00
C142   C     0.59294   0.72743   0.61631   0.00000  Uiso   1.00
C143   C     0.56518   0.78761   0.54955   0.00000  Uiso   1.00
C144   C     0.81921   0.63206   0.74544   0.00000  Uiso   1.00
C145   C     0.88063   0.58623   0.73684   0.00000  Uiso   1.00
C146   C     0.01567   0.58446   0.74504   0.00000  Uiso   1.00
C147   C     0.23255   0.56189   0.75283   0.00000  Uiso   1.00
C148   C     0.62643   0.66354   0.79412   0.00000  Uiso   1.00
C149   C     0.52580   0.64418   0.82645   0.00000  Uiso   1.00
C150   C     0.49855   0.66891   0.87564   0.00000  Uiso   1.00
C151   C     0.41612   0.69521   0.95900   0.00000  Uiso   1.00
C152   C     0.80318   0.72075   0.76872   0.00000  Uiso   1.00
C153   C     0.73256   0.72790   0.71368   0.00000  Uiso   1.00
C154   C     0.73505   0.77100   0.68155   0.00000  Uiso   1.00
C155   C     0.66400   0.77005   0.63256   0.00000  Uiso   1.00
C156   C     0.89014   0.67460   0.76166   0.00000  Uiso   1.00
C157   C     0.02512   0.67290   0.76988   0.00000  Uiso   1.00
C158   C     0.08674   0.62709   0.76129   0.00000  Uiso   1.00
C159   C     0.69737   0.70609   0.81034   0.00000  Uiso   1.00
C160   C     0.67028   0.73085   0.85949   0.00000  Uiso   1.00
C161   C     0.56962   0.71153   0.89189   0.00000  Uiso   1.00
H162   H     0.61736   0.60930   0.72623   0.00000  Uiso   1.00
H163   H     0.53568   0.65140   0.63597   0.00000  Uiso   1.00
H164   H     0.82571   0.55331   0.72430   0.00000  Uiso   1.00
H165   H     0.47092   0.61125   0.81389   0.00000  Uiso   1.00
H166   H     0.47645   0.71684   0.54304   0.00000  Uiso   1.00
H167   H     0.08798   0.51001   0.72931   0.00000  Uiso   1.00
H168   H     0.33984   0.63219   0.91823   0.00000  Uiso   1.00
H169   H     0.85841   0.75388   0.78135   0.00000  Uiso   1.00
H170   H     0.78995   0.80392   0.69411   0.00000  Uiso   1.00
H171   H     0.07998   0.70583   0.78244   0.00000  Uiso   1.00
H172   H     0.72520   0.76377   0.87203   0.00000  Uiso   1.00
H173   H     0.68283   0.84063   0.59023   0.00000  Uiso   1.00
H174   H     0.29436   0.63380   0.77650   0.00000  Uiso   1.00
H175   H     0.54622   0.75597   0.96542   0.00000  Uiso   1.00
O176   O     0.53029   0.80904   0.50825   0.00000  Uiso   1.00
O177   O     0.33258   0.53768   0.75263   0.00000  Uiso   1.00
O178   O     0.35105   0.69797   0.00049   0.00000  Uiso   1.00
N179   N     0.53439   0.73911   0.56612   0.00000  Uiso   1.00
N180   N     0.10614   0.54574   0.74026   0.00000  Uiso   1.00
N181   N     0.40672   0.65995   0.91690   0.00000  Uiso   1.00
N182   N     0.64544   0.80572   0.59152   0.00000  Uiso   1.00
N183   N     0.21719   0.61235   0.76566   0.00000  Uiso   1.00
N184   N     0.51777   0.72656   0.94229   0.00000  Uiso   1.00
C185   C     0.22308   0.85945   0.26767   0.00000  Uiso   1.00
C186   C     0.23561   0.81641   0.30885   0.00000  Uiso   1.00
C187   C     0.30610   0.81767   0.35794   0.00000  Uiso   1.00
C188   C     0.30538   0.77442   0.38989   0.00000  Uiso   1.00
C189   C     0.33524   0.71413   0.45636   0.00000  Uiso   1.00
C190   C     0.07607   0.86885   0.26086   0.00000  Uiso   1.00
C191   C     0.01243   0.91421   0.26961   0.00000  Uiso   1.00
C192   C     0.87741   0.91511   0.26116   0.00000  Uiso   1.00
C193   C     0.65960   0.93625   0.25310   0.00000  Uiso   1.00
C194   C     0.27078   0.83891   0.21238   0.00000  Uiso   1.00
C195   C     0.37084   0.85910   0.18034   0.00000  Uiso   1.00
C196   C     0.39974   0.83479   0.13107   0.00000  Uiso   1.00
C197   C     0.48425   0.80944   0.04772   0.00000  Uiso   1.00
C198   C     0.09646   0.78039   0.23713   0.00000  Uiso   1.00
C199   C     0.16683   0.77347   0.29225   0.00000  Uiso   1.00
C200   C     0.16601   0.73020   0.32414   0.00000  Uiso   1.00
C201   C     0.23649   0.73140   0.37327   0.00000  Uiso   1.00
C202   C     0.00729   0.82591   0.24427   0.00000  Uiso   1.00
C203   C     0.87234   0.82674   0.23581   0.00000  Uiso   1.00
C204   C     0.80851   0.87209   0.24454   0.00000  Uiso   1.00
C205   C     0.20201   0.79597   0.19578   0.00000  Uiso   1.00
C206   C     0.23075   0.77162   0.14655   0.00000  Uiso   1.00
C207   C     0.33084   0.79177   0.11444   0.00000  Uiso   1.00
H208   H     0.27661   0.89288   0.28059   0.00000  Uiso   1.00
H209   H     0.35930   0.85091   0.37076   0.00000  Uiso   1.00
H210   H     0.06568   0.94744   0.28244   0.00000  Uiso   1.00
H211   H     0.42403   0.89233   0.19319   0.00000  Uiso   1.00
H212   H     0.42060   0.78545   0.46343   0.00000  Uiso   1.00
H213   H     0.80149   0.98898   0.27718   0.00000  Uiso   1.00
H214   H     0.55716   0.87278   0.08898   0.00000  Uiso   1.00
H215   H     0.04291   0.74696   0.22421   0.00000  Uiso   1.00
H216   H     0.11278   0.69697   0.31129   0.00000  Uiso   1.00
H217   H     0.81915   0.79350   0.22297   0.00000  Uiso   1.00
H218   H     0.17751   0.73839   0.13372   0.00000  Uiso   1.00
H219   H     0.22051   0.66051   0.41516   0.00000  Uiso   1.00
H220   H     0.60140   0.86404   0.22891   0.00000  Uiso   1.00
H221   H     0.35706   0.74784   0.04071   0.00000  Uiso   1.00
O222   O     0.37070   0.69274   0.49761   0.00000  Uiso   1.00
O223   O     0.55846   0.95977   0.25324   0.00000  Uiso   1.00
O224   O     0.54987   0.80731   0.00634   0.00000  Uiso   1.00
N225   N     0.36395   0.76290   0.44012   0.00000  Uiso   1.00
N226   N     0.78511   0.95319   0.26599   0.00000  Uiso   1.00
N227   N     0.49157   0.84456   0.09003   0.00000  Uiso   1.00
N228   N     0.25628   0.69567   0.41414   0.00000  Uiso   1.00
N229   N     0.67744   0.88596   0.24002   0.00000  Uiso   1.00
N230   N     0.38390   0.77733   0.06406   0.00000  Uiso   1.00
C231   C     0.82742   0.14242   0.23885   0.00000  Uiso   1.00
C232   C     0.83838   0.18535   0.19746   0.00000  Uiso   1.00
C233   C     0.90944   0.18434   0.14851   0.00000  Uiso   1.00
C234   C     0.90706   0.22743   0.11631   0.00000  Uiso   1.00
C235   C     0.93482   0.28761   0.04955   0.00000  Uiso   1.00
C236   C     0.68079   0.13206   0.24544   0.00000  Uiso   1.00
C237   C     0.61937   0.08623   0.23684   0.00000  Uiso   1.00
C238   C     0.48433   0.08446   0.24504   0.00000  Uiso   1.00
C239   C     0.26745   0.06189   0.25283   0.00000  Uiso   1.00
C240   C     0.87357   0.16354   0.29412   0.00000  Uiso   1.00
C241   C     0.97420   0.14418   0.32645   0.00000  Uiso   1.00
C242   C     0.00145   0.16891   0.37564   0.00000  Uiso   1.00
C243   C     0.08388   0.19521   0.45900   0.00000  Uiso   1.00
C244   C     0.69682   0.22075   0.26872   0.00000  Uiso   1.00
C245   C     0.76744   0.22790   0.21368   0.00000  Uiso   1.00
C246   C     0.76495   0.27100   0.18155   0.00000  Uiso   1.00
C247   C     0.83600   0.27005   0.13256   0.00000  Uiso   1.00
C248   C     0.60986   0.17460   0.26166   0.00000  Uiso   1.00
C249   C     0.47488   0.17290   0.26988   0.00000  Uiso   1.00
C250   C     0.41326   0.12709   0.26129   0.00000  Uiso   1.00
C251   C     0.80263   0.20609   0.31034   0.00000  Uiso   1.00
C252   C     0.82972   0.23085   0.35949   0.00000  Uiso   1.00
C253   C     0.93038   0.21153   0.39189   0.00000  Uiso   1.00
H254   H     0.88264   0.10930   0.22623   0.00000  Uiso   1.00
H255   H     0.96432   0.15140   0.13597   0.00000  Uiso   1.00
H256   H     0.67429   0.05331   0.22430   0.00000  Uiso   1.00
H257   H     0.02908   0.11125   0.31389   0.00000  Uiso   1.00
H258   H     0.02355   0.21684   0.04304   0.00000  Uiso   1.00
H259   H     0.41202   0.01001   0.22931   0.00000  Uiso   1.00
H260   H     0.16016   0.13219   0.41823   0.00000  Uiso   1.00
H261   H     0.64159   0.25388   0.28135   0.00000  Uiso   1.00
H262   H     0.71005   0.30392   0.19411   0.00000  Uiso   1.00
H263   H     0.42002   0.20583   0.28244   0.00000  Uiso   1.00
H264   H     0.77480   0.26377   0.37203   0.00000  Uiso   1.00
H265   H     0.81717   0.34063   0.09023   0.00000  Uiso   1.00
H266   H     0.20564   0.13380   0.27650   0.00000  Uiso   1.00
H267   H     0.95378   0.25597   0.46542   0.00000  Uiso   1.00
O268   O     0.96971   0.30904   0.00825   0.00000  Uiso   1.00
O269   O     0.16742   0.03768   0.25263   0.00000  Uiso   1.00
O270   O     0.14895   0.19797   0.50049   0.00000  Uiso   1.00
N271   N     0.96561   0.23911   0.06612   0.00000  Uiso   1.00
N272   N     0.39386   0.04574   0.24026   0.00000  Uiso   1.00
N273   N     0.09328   0.15995   0.41690   0.00000  Uiso   1.00
N274   N     0.85456   0.30572   0.09152   0.00000  Uiso   1.00
N275   N     0.28281   0.11235   0.26566   0.00000  Uiso   1.00
N276   N     0.98223   0.22656   0.44229   0.00000  Uiso   1.00
C277   C     0.77692   0.14055   0.76767   0.00000  Uiso   1.00
C278   C     0.76439   0.18359   0.80885   0.00000  Uiso   1.00
C279   C     0.69390   0.18233   0.85794   0.00000  Uiso   1.00
C280   C     0.69462   0.22558   0.88989   0.00000  Uiso   1.00
C281   C     0.66476   0.28587   0.95636   0.00000  Uiso   1.00
C282   C     0.92393   0.13115   0.76086   0.00000  Uiso   1.00
C283   C     0.98757   0.08579   0.76961   0.00000  Uiso   1.00
C284   C     0.12259   0.08489   0.76116   0.00000  Uiso   1.00
C285   C     0.34040   0.06375   0.75310   0.00000  Uiso   1.00
C286   C     0.72922   0.16109   0.71238   0.00000  Uiso   1.00
C287   C     0.62916   0.14090   0.68034   0.00000  Uiso   1.00
C288   C     0.60026   0.16521   0.63107   0.00000  Uiso   1.00
C289   C     0.51575   0.19056   0.54772   0.00000  Uiso   1.00
C290   C     0.90354   0.21961   0.73713   0.00000  Uiso   1.00
C291   C     0.83317   0.22653   0.79225   0.00000  Uiso   1.00
C292   C     0.83399   0.26980   0.82414   0.00000  Uiso   1.00
C293   C     0.76351   0.26860   0.87327   0.00000  Uiso   1.00
C294   C     0.99271   0.17409   0.74427   0.00000  Uiso   1.00
C295   C     0.12766   0.17326   0.73581   0.00000  Uiso   1.00
C296   C     0.19149   0.12791   0.74454   0.00000  Uiso   1.00
C297   C     0.79799   0.20403   0.69578   0.00000  Uiso   1.00
C298   C     0.76925   0.22838   0.64655   0.00000  Uiso   1.00
C299   C     0.66916   0.20823   0.61444   0.00000  Uiso   1.00
H300   H     0.72339   0.10712   0.78059   0.00000  Uiso   1.00
H301   H     0.64070   0.14909   0.87076   0.00000  Uiso   1.00
H302   H     0.93432   0.05256   0.78244   0.00000  Uiso   1.00
H303   H     0.57597   0.10767   0.69319   0.00000  Uiso   1.00
H304   H     0.57940   0.21455   0.96343   0.00000  Uiso   1.00
H305   H     0.19851   0.01102   0.77718   0.00000  Uiso   1.00
H306   H     0.44284   0.12722   0.58898   0.00000  Uiso   1.00
H307   H     0.95709   0.25304   0.72421   0.00000  Uiso   1.00
H308   H     0.88722   0.30303   0.81129   0.00000  Uiso   1.00
H309   H     0.18085   0.20650   0.72297   0.00000  Uiso   1.00
H310   H     0.82249   0.26161   0.63372   0.00000  Uiso   1.00
H311   H     0.77949   0.33949   0.91516   0.00000  Uiso   1.00
H312   H     0.39860   0.13596   0.72891   0.00000  Uiso   1.00
H313   H     0.64294   0.25216   0.54071   0.00000  Uiso   1.00
O314   O     0.62930   0.30726   0.99761   0.00000  Uiso   1.00
O315   O     0.44154   0.04023   0.75324   0.00000  Uiso   1.00
O316   O     0.45013   0.19269   0.50634   0.00000  Uiso   1.00
N317   N     0.63605   0.23710   0.94012   0.00000  Uiso   1.00
N318   N     0.21489   0.04681   0.76599   0.00000  Uiso   1.00
N319   N     0.50843   0.15544   0.59003   0.00000  Uiso   1.00
N320   N     0.74372   0.30433   0.91414   0.00000  Uiso   1.00
N321   N     0.32256   0.11404   0.74002   0.00000  Uiso   1.00
N322   N     0.61610   0.22267   0.56406   0.00000  Uiso   1.00
C323   C     0.17258   0.85758   0.73885   0.00000  Uiso   1.00
C324   C     0.16162   0.81465   0.69746   0.00000  Uiso   1.00
C325   C     0.09056   0.81566   0.64851   0.00000  Uiso   1.00
C326   C     0.09294   0.77257   0.61631   0.00000  Uiso   1.00
C327   C     0.06518   0.71239   0.54955   0.00000  Uiso   1.00
C328   C     0.31921   0.86794   0.74544   0.00000  Uiso   1.00
C329   C     0.38063   0.91377   0.73684   0.00000  Uiso   1.00
C330   C     0.51567   0.91554   0.74504   0.00000  Uiso   1.00
C331   C     0.73255   0.93811   0.75283   0.00000  Uiso   1.00
C332   C     0.12643   0.83646   0.79412   0.00000  Uiso   1.00
C333   C     0.02580   0.85582   0.82645   0.00000  Uiso   1.00
C334   C     0.99855   0.83109   0.87564   0.00000  Uiso   1.00
C335   C     0.91612   0.80479   0.95900   0.00000  Uiso   1.00
C336   C     0.30318   0.77925   0.76872   0.00000  Uiso   1.00
C337   C     0.23256   0.77210   0.71368   0.00000  Uiso   1.00
C338   C     0.23505   0.72900   0.68155   0.00000  Uiso   1.00
C339   C     0.16400   0.72995   0.63256   0.00000  Uiso   1.00
C340   C     0.39014   0.82540   0.76166   0.00000  Uiso   1.00
C341   C     0.52512   0.82710   0.76988   0.00000  Uiso   1.00
C342   C     0.58674   0.87291   0.76129   0.00000  Uiso   1.00
C343   C     0.19737   0.79391   0.81034   0.00000  Uiso   1.00
C344   C     0.17028   0.76915   0.85949   0.00000  Uiso   1.00
C345   C     0.06962   0.78847   0.89189   0.00000  Uiso   1.00
H346   H     0.11736   0.89070   0.72623   0.00000  Uiso   1.00
H347   H     0.03568   0.84860   0.63597   0.00000  Uiso   1.00
H348   H     0.32571   0.94669   0.72430   0.00000  Uiso   1.00
H349   H     0.97092   0.88875   0.81389   0.00000  Uiso   1.00
H350   H     0.97645   0.78316   0.54304   0.00000  Uiso   1.00
H351   H     0.58798   0.98999   0.72931   0.00000  Uiso   1.00
H352   H     0.83984   0.86781   0.91823   0.00000  Uiso   1.00
H353   H     0.35841   0.74612   0.78135   0.00000  Uiso   1.00
H354   H     0.28995   0.69608   0.69411   0.00000  Uiso   1.00
H355   H     0.57998   0.79417   0.78244   0.00000  Uiso   1.00
H356   H     0.22520   0.73623   0.87203   0.00000  Uiso   1.00
H357   H     0.18283   0.65937   0.59023   0.00000  Uiso   1.00
H358   H     0.79436   0.86620   0.77650   0.00000  Uiso   1.00
H359   H     0.04622   0.74403   0.96542   0.00000  Uiso   1.00
O360   O     0.03029   0.69096   0.50825   0.00000  Uiso   1.00
O361   O     0.83258   0.96232   0.75263   0.00000  Uiso   1.00
O362   O     0.85105   0.80203   0.00049   0.00000  Uiso   1.00
N363   N     0.03439   0.76089   0.56612   0.00000  Uiso   1.00
N364   N     0.60614   0.95426   0.74026   0.00000  Uiso   1.00
N365   N     0.90672   0.84005   0.91690   0.00000  Uiso   1.00
N366   N     0.14544   0.69428   0.59152   0.00000  Uiso   1.00
N367   N     0.71719   0.88765   0.76566   0.00000  Uiso   1.00
N368   N     0.01777   0.77344   0.94229   0.00000  Uiso   1.00
