data_job_06428
_audit_creation_date              2018-12-19
_audit_creation_method            'Materials Studio'
_symmetry_space_group_name_H-M    'P1'
_symmetry_Int_Tables_number       1
_symmetry_cell_setting            triclinic
loop_
_symmetry_equiv_pos_as_xyz
  x,y,z
_cell_length_a                    13.0586
_cell_length_b                    18.0360
_cell_length_c                    18.5147
_cell_angle_alpha                 114.7110
_cell_angle_beta                  75.1074
_cell_angle_gamma                 79.3040
loop_
_atom_site_label
_atom_site_type_symbol
_atom_site_fract_x
_atom_site_fract_y
_atom_site_fract_z
_atom_site_U_iso_or_equiv
_atom_site_adp_type
_atom_site_occupancy
C1     C     0.50422   0.72329   0.16847   0.00000  Uiso   1.00
C2     C     0.61447   0.74066   0.14420   0.00000  Uiso   1.00
C3     C     0.63557   0.79200   0.10734   0.00000  Uiso   1.00
C4     C     0.74181   0.79973   0.08998   0.00000  Uiso   1.00
C5     C     0.90053   0.83307   0.04940   0.00000  Uiso   1.00
C6     C     0.53384   0.62514   0.12139   0.00000  Uiso   1.00
C7     C     0.48713   0.57936   0.06536   0.00000  Uiso   1.00
C8     C     0.52549   0.48984   0.02881   0.00000  Uiso   1.00
C9     C     0.55896   0.34385   0.95287   0.00000  Uiso   1.00
C10    C     0.46794   0.75090   0.26360   0.00000  Uiso   1.00
C11    C     0.36582   0.81083   0.32714   0.00000  Uiso   1.00
C12    C     0.34869   0.82717   0.41032   0.00000  Uiso   1.00
C13    C     0.27985   0.87643   0.55518   0.00000  Uiso   1.00
C14    C     0.65536   0.64571   0.20322   0.00000  Uiso   1.00
C15    C     0.69656   0.69852   0.16308   0.00000  Uiso   1.00
C16    C     0.80280   0.70617   0.14578   0.00000  Uiso   1.00
C17    C     0.82406   0.75752   0.10889   0.00000  Uiso   1.00
C18    C     0.61593   0.58301   0.14027   0.00000  Uiso   1.00
C19    C     0.65436   0.49353   0.10380   0.00000  Uiso   1.00
C20    C     0.60773   0.44763   0.04772   0.00000  Uiso   1.00
C21    C     0.55004   0.70876   0.28248   0.00000  Uiso   1.00
C22    C     0.53306   0.72501   0.36558   0.00000  Uiso   1.00
C23    C     0.43093   0.78496   0.42923   0.00000  Uiso   1.00
H24    H     0.44031   0.75609   0.15377   0.00000  Uiso   1.00
H25    H     0.57202   0.82459   0.09273   0.00000  Uiso   1.00
H26    H     0.42360   0.61199   0.05077   0.00000  Uiso   1.00
H27    H     0.30232   0.84342   0.31251   0.00000  Uiso   1.00
H28    H     0.75427   0.88193   0.03335   0.00000  Uiso   1.00
H29    H     0.44128   0.43364   0.94490   0.00000  Uiso   1.00
H30    H     0.18553   0.92168   0.49682   0.00000  Uiso   1.00
H31    H     0.71928   0.61291   0.21791   0.00000  Uiso   1.00
H32    H     0.86631   0.67356   0.16039   0.00000  Uiso   1.00
H33    H     0.71788   0.46095   0.11843   0.00000  Uiso   1.00
H34    H     0.59660   0.69239   0.38016   0.00000  Uiso   1.00
H35    H     0.99313   0.75935   0.08827   0.00000  Uiso   1.00
H36    H     0.68013   0.31105   0.99981   0.00000  Uiso   1.00
H37    H     0.42439   0.79909   0.55174   0.00000  Uiso   1.00
O38    O     0.96540   0.86310   0.02179   0.00000  Uiso   1.00
O39    O     0.55475   0.27496   0.90575   0.00000  Uiso   1.00
O40    O     0.21921   0.91525   0.62986   0.00000  Uiso   1.00
N41    N     0.79030   0.84477   0.05419   0.00000  Uiso   1.00
N42    N     0.49769   0.42565   0.97148   0.00000  Uiso   1.00
N43    N     0.25857   0.88190   0.48748   0.00000  Uiso   1.00
N44    N     0.91883   0.77881   0.08373   0.00000  Uiso   1.00
N45    N     0.62621   0.35968   0.00102   0.00000  Uiso   1.00
N46    N     0.38709   0.81594   0.51703   0.00000  Uiso   1.00
C47    C     0.66868   0.82808   0.55468   0.00000  Uiso   1.00
C48    C     0.75405   0.85527   0.59369   0.00000  Uiso   1.00
C49    C     0.73670   0.89229   0.68020   0.00000  Uiso   1.00
C50    C     0.82527   0.91254   0.70297   0.00000  Uiso   1.00
C51    C     0.94226   0.95726   0.77290   0.00000  Uiso   1.00
C52    C     0.65534   0.87605   0.50482   0.00000  Uiso   1.00
C53    C     0.55499   0.93053   0.51662   0.00000  Uiso   1.00
C54    C     0.56047   0.96826   0.46457   0.00000  Uiso   1.00
C55    C     0.52419   0.04519   0.39650   0.00000  Uiso   1.00
C56    C     0.72560   0.73247   0.48782   0.00000  Uiso   1.00
C57    C     0.68430   0.66622   0.48530   0.00000  Uiso   1.00
C58    C     0.74892   0.58306   0.41893   0.00000  Uiso   1.00
C59    C     0.82173   0.43706   0.32446   0.00000  Uiso   1.00
C60    C     0.85684   0.79821   0.44127   0.00000  Uiso   1.00
C61    C     0.85625   0.83904   0.53208   0.00000  Uiso   1.00
C62    C     0.94487   0.85924   0.55472   0.00000  Uiso   1.00
C63    C     0.92766   0.89628   0.64125   0.00000  Uiso   1.00
C64    C     0.75754   0.85982   0.44322   0.00000  Uiso   1.00
C65    C     0.76316   0.89748   0.39114   0.00000  Uiso   1.00
C66    C     0.66285   0.95200   0.40285   0.00000  Uiso   1.00
C67    C     0.82780   0.71624   0.42622   0.00000  Uiso   1.00
C68    C     0.89248   0.63317   0.35983   0.00000  Uiso   1.00
C69    C     0.85130   0.56681   0.35721   0.00000  Uiso   1.00
H70    H     0.58911   0.84072   0.60264   0.00000  Uiso   1.00
H71    H     0.65759   0.90484   0.72785   0.00000  Uiso   1.00
H72    H     0.47591   0.94306   0.56429   0.00000  Uiso   1.00
H73    H     0.60521   0.67880   0.53298   0.00000  Uiso   1.00
H74    H     0.77857   0.96881   0.83951   0.00000  Uiso   1.00
H75    H     0.39548   0.04939   0.49461   0.00000  Uiso   1.00
H76    H     0.66813   0.49213   0.42859   0.00000  Uiso   1.00
H77    H     0.93641   0.78557   0.39331   0.00000  Uiso   1.00
H78    H     0.02395   0.84667   0.50704   0.00000  Uiso   1.00
H79    H     0.84227   0.88490   0.34347   0.00000  Uiso   1.00
H80    H     0.97157   0.62064   0.31217   0.00000  Uiso   1.00
H81    H     0.07592   0.92160   0.66029   0.00000  Uiso   1.00
H82    H     0.69283   0.00218   0.31538   0.00000  Uiso   1.00
H83    H     0.96548   0.44492   0.24937   0.00000  Uiso   1.00
O84    O     0.97855   0.98642   0.82850   0.00000  Uiso   1.00
O85    O     0.47595   0.09212   0.37598   0.00000  Uiso   1.00
O86    O     0.83366   0.36101   0.28938   0.00000  Uiso   1.00
N87    N     0.83654   0.94930   0.78172   0.00000  Uiso   1.00
N88    N     0.47838   0.02464   0.45927   0.00000  Uiso   1.00
N89    N     0.73327   0.50366   0.39754   0.00000  Uiso   1.00
N90    N     0.99654   0.92389   0.68529   0.00000  Uiso   1.00
N91    N     0.63838   0.99924   0.36283   0.00000  Uiso   1.00
N92    N     0.89327   0.47825   0.30110   0.00000  Uiso   1.00
C93    C     0.22244   0.44329   0.27624   0.00000  Uiso   1.00
C94    C     0.34522   0.40691   0.26244   0.00000  Uiso   1.00
C95    C     0.41213   0.32036   0.21300   0.00000  Uiso   1.00
C96    C     0.52230   0.30022   0.20848   0.00000  Uiso   1.00
C97    C     0.70660   0.23396   0.18047   0.00000  Uiso   1.00
C98    C     0.15797   0.49224   0.37303   0.00000  Uiso   1.00
C99    C     0.06744   0.47744   0.41658   0.00000  Uiso   1.00
C100   C     0.01998   0.52914   0.50516   0.00000  Uiso   1.00
C101   C     0.91352   0.59539   0.64886   0.00000  Uiso   1.00
C102   C     0.21666   0.51169   0.24801   0.00000  Uiso   1.00
C103   C     0.17544   0.51326   0.18646   0.00000  Uiso   1.00
C104   C     0.17736   0.58134   0.16979   0.00000  Uiso   1.00
C105   C     0.16202   0.67779   0.11937   0.00000  Uiso   1.00
C106   C     0.29911   0.56142   0.35613   0.00000  Uiso   1.00
C107   C     0.38686   0.47107   0.30583   0.00000  Uiso   1.00
C108   C     0.49696   0.45106   0.30138   0.00000  Uiso   1.00
C109   C     0.56403   0.36449   0.25194   0.00000  Uiso   1.00
C110   C     0.19961   0.55640   0.41642   0.00000  Uiso   1.00
C111   C     0.15227   0.60813   0.50496   0.00000  Uiso   1.00
C112   C     0.06170   0.59341   0.54863   0.00000  Uiso   1.00
C113   C     0.25831   0.57585   0.29140   0.00000  Uiso   1.00
C114   C     0.26028   0.64395   0.27483   0.00000  Uiso   1.00
C115   C     0.21908   0.64562   0.21326   0.00000  Uiso   1.00
H116   H     0.19001   0.39334   0.24247   0.00000  Uiso   1.00
H117   H     0.37987   0.27073   0.17944   0.00000  Uiso   1.00
H118   H     0.03522   0.42779   0.38299   0.00000  Uiso   1.00
H119   H     0.14322   0.46359   0.15289   0.00000  Uiso   1.00
H120   H     0.60872   0.16308   0.12871   0.00000  Uiso   1.00
H121   H     0.88199   0.49427   0.55791   0.00000  Uiso   1.00
H122   H     0.10971   0.56977   0.07271   0.00000  Uiso   1.00
H123   H     0.33153   0.61138   0.38991   0.00000  Uiso   1.00
H124   H     0.52917   0.50072   0.33496   0.00000  Uiso   1.00
H125   H     0.18451   0.65778   0.53851   0.00000  Uiso   1.00
H126   H     0.29251   0.69359   0.30842   0.00000  Uiso   1.00
H127   H     0.72989   0.34975   0.25495   0.00000  Uiso   1.00
H128   H     0.00315   0.68094   0.68414   0.00000  Uiso   1.00
H129   H     0.23089   0.75644   0.19895   0.00000  Uiso   1.00
O130   O     0.79675   0.17968   0.15305   0.00000  Uiso   1.00
O131   O     0.84330   0.61420   0.71613   0.00000  Uiso   1.00
O132   O     0.14207   0.71326   0.07956   0.00000  Uiso   1.00
N133   N     0.61012   0.22220   0.16595   0.00000  Uiso   1.00
N134   N     0.93068   0.53183   0.56722   0.00000  Uiso   1.00
N135   N     0.14356   0.60243   0.11362   0.00000  Uiso   1.00
N136   N     0.67532   0.32264   0.23387   0.00000  Uiso   1.00
N137   N     0.99589   0.63228   0.63514   0.00000  Uiso   1.00
N138   N     0.20876   0.70288   0.18154   0.00000  Uiso   1.00
C139   C     0.17317   0.55440   0.83045   0.00000  Uiso   1.00
C140   C     0.25912   0.59614   0.85516   0.00000  Uiso   1.00
C141   C     0.24379   0.68401   0.89172   0.00000  Uiso   1.00
C142   C     0.33256   0.70926   0.90958   0.00000  Uiso   1.00
C143   C     0.45072   0.78328   0.95074   0.00000  Uiso   1.00
C144   C     0.15589   0.50328   0.87790   0.00000  Uiso   1.00
C145   C     0.05375   0.51308   0.93358   0.00000  Uiso   1.00
C146   C     0.05562   0.46015   0.97058   0.00000  Uiso   1.00
C147   C     0.01349   0.38997   0.04700   0.00000  Uiso   1.00
C148   C     0.23123   0.48741   0.73547   0.00000  Uiso   1.00
C149   C     0.19243   0.48385   0.67138   0.00000  Uiso   1.00
C150   C     0.25772   0.41754   0.58846   0.00000  Uiso   1.00
C151   C     0.33256   0.32272   0.44373   0.00000  Uiso   1.00
C152   C     0.35808   0.44296   0.79714   0.00000  Uiso   1.00
C153   C     0.35956   0.53561   0.83707   0.00000  Uiso   1.00
C154   C     0.44838   0.56072   0.85487   0.00000  Uiso   1.00
C155   C     0.43318   0.64862   0.89146   0.00000  Uiso   1.00
C156   C     0.25632   0.44276   0.85982   0.00000  Uiso   1.00
C157   C     0.25834   0.38980   0.89673   0.00000  Uiso   1.00
C158   C     0.15624   0.39952   0.95246   0.00000  Uiso   1.00
C159   C     0.33166   0.42688   0.71738   0.00000  Uiso   1.00
C160   C     0.39702   0.36056   0.63454   0.00000  Uiso   1.00
C161   C     0.35833   0.35691   0.57034   0.00000  Uiso   1.00
H162   H     0.09498   0.60152   0.84454   0.00000  Uiso   1.00
H163   H     0.16605   0.73084   0.90572   0.00000  Uiso   1.00
H164   H     0.97604   0.55992   0.94756   0.00000  Uiso   1.00
H165   H     0.11470   0.53070   0.68541   0.00000  Uiso   1.00
H166   H     0.28912   0.84752   0.96560   0.00000  Uiso   1.00
H167   H     0.88848   0.48712   0.05381   0.00000  Uiso   1.00
H168   H     0.18086   0.42549   0.50100   0.00000  Uiso   1.00
H169   H     0.43628   0.39584   0.78306   0.00000  Uiso   1.00
H170   H     0.52609   0.51387   0.84087   0.00000  Uiso   1.00
H171   H     0.33608   0.34296   0.88272   0.00000  Uiso   1.00
H172   H     0.47473   0.31374   0.62056   0.00000  Uiso   1.00
H173   H     0.58134   0.67142   0.91297   0.00000  Uiso   1.00
H174   H     0.18069   0.31102   0.00118   0.00000  Uiso   1.00
H175   H     0.47308   0.24940   0.44837   0.00000  Uiso   1.00
O176   O     0.48814   0.84083   0.97845   0.00000  Uiso   1.00
O177   O     0.96251   0.36799   0.09416   0.00000  Uiso   1.00
O178   O     0.34611   0.28715   0.36889   0.00000  Uiso   1.00
N179   N     0.34558   0.78987   0.94527   0.00000  Uiso   1.00
N180   N     0.97101   0.45293   0.02775   0.00000  Uiso   1.00
N181   N     0.24434   0.39530   0.51092   0.00000  Uiso   1.00
N182   N     0.50282   0.69512   0.91695   0.00000  Uiso   1.00
N183   N     0.12825   0.35818   0.99942   0.00000  Uiso   1.00
N184   N     0.40158   0.30055   0.48260   0.00000  Uiso   1.00
C185   C     0.72254   0.27387   0.44537   0.00000  Uiso   1.00
C186   C     0.84632   0.26254   0.40695   0.00000  Uiso   1.00
C187   C     0.91472   0.21356   0.32062   0.00000  Uiso   1.00
C188   C     0.02561   0.21143   0.29841   0.00000  Uiso   1.00
C189   C     0.21157   0.18699   0.22933   0.00000  Uiso   1.00
C190   C     0.65999   0.37118   0.49466   0.00000  Uiso   1.00
C191   C     0.57174   0.41353   0.48208   0.00000  Uiso   1.00
C192   C     0.52577   0.50284   0.53372   0.00000  Uiso   1.00
C193   C     0.42241   0.64705   0.60085   0.00000  Uiso   1.00
C194   C     0.71288   0.24501   0.51266   0.00000  Uiso   1.00
C195   C     0.66907   0.18129   0.51523   0.00000  Uiso   1.00
C196   C     0.66761   0.16440   0.58203   0.00000  Uiso   1.00
C197   C     0.64637   0.11270   0.67711   0.00000  Uiso   1.00
C198   C     0.79782   0.35719   0.55944   0.00000  Uiso   1.00
C199   C     0.88720   0.30780   0.46892   0.00000  Uiso   1.00
C200   C     0.99802   0.30574   0.44683   0.00000  Uiso   1.00
C201   C     0.06658   0.25676   0.36048   0.00000  Uiso   1.00
C202   C     0.70088   0.41643   0.55662   0.00000  Uiso   1.00
C203   C     0.65503   0.50570   0.60829   0.00000  Uiso   1.00
C204   C     0.56674   0.54818   0.59579   0.00000  Uiso   1.00
C205   C     0.75378   0.29026   0.57462   0.00000  Uiso   1.00
C206   C     0.75237   0.27346   0.64144   0.00000  Uiso   1.00
C207   C     0.70857   0.20973   0.64410   0.00000  Uiso   1.00
H208   H     0.69069   0.23865   0.39713   0.00000  Uiso   1.00
H209   H     0.88304   0.17856   0.27269   0.00000  Uiso   1.00
H210   H     0.54010   0.37849   0.43413   0.00000  Uiso   1.00
H211   H     0.63743   0.14629   0.46727   0.00000  Uiso   1.00
H212   H     0.11432   0.13192   0.16204   0.00000  Uiso   1.00
H213   H     0.39119   0.55348   0.50247   0.00000  Uiso   1.00
H214   H     0.59641   0.06384   0.57235   0.00000  Uiso   1.00
H215   H     0.82966   0.39242   0.60769   0.00000  Uiso   1.00
H216   H     0.02964   0.34076   0.49480   0.00000  Uiso   1.00
H217   H     0.68670   0.54070   0.65624   0.00000  Uiso   1.00
H218   H     0.78402   0.30849   0.68937   0.00000  Uiso   1.00
H219   H     0.23330   0.26357   0.34231   0.00000  Uiso   1.00
H220   H     0.51016   0.68514   0.68275   0.00000  Uiso   1.00
H221   H     0.71540   0.19549   0.75262   0.00000  Uiso   1.00
O222   O     0.30285   0.16101   0.17411   0.00000  Uiso   1.00
O223   O     0.35411   0.71409   0.62075   0.00000  Uiso   1.00
O224   O     0.62337   0.07168   0.71243   0.00000  Uiso   1.00
N225   N     0.11488   0.16998   0.21996   0.00000  Uiso   1.00
N226   N     0.43881   0.56412   0.53824   0.00000  Uiso   1.00
N227   N     0.63065   0.10636   0.60358   0.00000  Uiso   1.00
N228   N     0.17891   0.24082   0.31696   0.00000  Uiso   1.00
N229   N     0.50283   0.63496   0.63524   0.00000  Uiso   1.00
N230   N     0.69468   0.17720   0.70058   0.00000  Uiso   1.00
C231   C     0.99963   0.16639   0.72357   0.00000  Uiso   1.00
C232   C     0.10830   0.14416   0.73821   0.00000  Uiso   1.00
C233   C     0.12589   0.10708   0.78819   0.00000  Uiso   1.00
C234   C     0.23121   0.09179   0.79343   0.00000  Uiso   1.00
C235   C     0.38710   0.05402   0.82270   0.00000  Uiso   1.00
C236   C     0.03127   0.11897   0.62668   0.00000  Uiso   1.00
C237   C     0.98407   0.06072   0.58289   0.00000  Uiso   1.00
C238   C     0.02454   0.02423   0.49425   0.00000  Uiso   1.00
C239   C     0.06076   0.94741   0.35038   0.00000  Uiso   1.00
C240   C     0.96609   0.26263   0.75130   0.00000  Uiso   1.00
C241   C     0.86407   0.32516   0.81228   0.00000  Uiso   1.00
C242   C     0.84965   0.40963   0.82855   0.00000  Uiso   1.00
C243   C     0.78468   0.55586   0.87817   0.00000  Uiso   1.00
C244   C     0.15541   0.20519   0.64402   0.00000  Uiso   1.00
C245   C     0.19291   0.16523   0.69500   0.00000  Uiso   1.00
C246   C     0.29824   0.15000   0.70017   0.00000  Uiso   1.00
C247   C     0.31598   0.11291   0.75015   0.00000  Uiso   1.00
C248   C     0.11588   0.14004   0.58347   0.00000  Uiso   1.00
C249   C     0.15642   0.10364   0.49488   0.00000  Uiso   1.00
C250   C     0.10930   0.04535   0.45096   0.00000  Uiso   1.00
C251   C     0.05070   0.28370   0.70810   0.00000  Uiso   1.00
C252   C     0.03643   0.36809   0.72427   0.00000  Uiso   1.00
C253   C     0.93442   0.43074   0.78526   0.00000  Uiso   1.00
H254   H     0.93376   0.14998   0.75721   0.00000  Uiso   1.00
H255   H     0.06039   0.09077   0.82161   0.00000  Uiso   1.00
H256   H     0.91859   0.04443   0.61635   0.00000  Uiso   1.00
H257   H     0.79862   0.30883   0.84571   0.00000  Uiso   1.00
H258   H     0.23811   0.03438   0.87393   0.00000  Uiso   1.00
H259   H     0.93908   0.93669   0.44113   0.00000  Uiso   1.00
H260   H     0.68610   0.49424   0.92477   0.00000  Uiso   1.00
H261   H     0.22129   0.22160   0.61038   0.00000  Uiso   1.00
H262   H     0.36370   0.16632   0.66673   0.00000  Uiso   1.00
H263   H     0.22189   0.11997   0.46146   0.00000  Uiso   1.00
H264   H     0.10192   0.38438   0.69082   0.00000  Uiso   1.00
H265   H     0.48429   0.09570   0.74822   0.00000  Uiso   1.00
H266   H     0.18525   0.99801   0.31541   0.00000  Uiso   1.00
H267   H     0.93228   0.55556   0.79906   0.00000  Uiso   1.00
O268   O     0.44971   0.02736   0.85077   0.00000  Uiso   1.00
O269   O     0.05737   0.89920   0.28295   0.00000  Uiso   1.00
O270   O     0.72547   0.63069   0.91748   0.00000  Uiso   1.00
N271   N     0.27650   0.05642   0.83662   0.00000  Uiso   1.00
N272   N     0.99693   0.96507   0.43198   0.00000  Uiso   1.00
N273   N     0.76040   0.48633   0.88413   0.00000  Uiso   1.00
N274   N     0.40897   0.08941   0.76898   0.00000  Uiso   1.00
N275   N     0.12940   0.99806   0.36433   0.00000  Uiso   1.00
N276   N     0.89287   0.51932   0.81649   0.00000  Uiso   1.00
