data_job_03534
_audit_creation_date              2018-12-19
_audit_creation_method            'Materials Studio'
_symmetry_space_group_name_H-M    'P1'
_symmetry_Int_Tables_number       1
_symmetry_cell_setting            triclinic
loop_
_symmetry_equiv_pos_as_xyz
  x,y,z
_cell_length_a                    16.3088
_cell_length_b                    9.9701
_cell_length_c                    24.7161
_cell_angle_alpha                 90.0000
_cell_angle_beta                  133.3889
_cell_angle_gamma                 90.0000
loop_
_atom_site_label
_atom_site_type_symbol
_atom_site_fract_x
_atom_site_fract_y
_atom_site_fract_z
_atom_site_U_iso_or_equiv
_atom_site_adp_type
_atom_site_occupancy
C1     C     0.70889   0.33808   0.99474   0.00000  Uiso   1.00
C2     C     0.80200   0.44184   0.02911   0.00000  Uiso   1.00
C3     C     0.88969   0.46708   0.10464   0.00000  Uiso   1.00
C4     C     0.96630   0.56607   0.12483   0.00000  Uiso   1.00
C5     C     0.11249   0.71641   0.18634   0.00000  Uiso   1.00
C6     C     0.59787   0.41480   0.94056   0.00000  Uiso   1.00
C7     C     0.51392   0.41729   0.94165   0.00000  Uiso   1.00
C8     C     0.41869   0.49351   0.88729   0.00000  Uiso   1.00
C9     C     0.24793   0.60179   0.81130   0.00000  Uiso   1.00
C10    C     0.71318   0.24732   0.94706   0.00000  Uiso   1.00
C11    C     0.72615   0.10899   0.95360   0.00000  Uiso   1.00
C12    C     0.72797   0.04419   0.90470   0.00000  Uiso   1.00
C13    C     0.73623   0.89244   0.83880   0.00000  Uiso   1.00
C14    C     0.68902   0.46898   0.89627   0.00000  Uiso   1.00
C15    C     0.79121   0.51294   0.97562   0.00000  Uiso   1.00
C16    C     0.86771   0.61192   0.99571   0.00000  Uiso   1.00
C17    C     0.95550   0.63730   0.07126   0.00000  Uiso   1.00
C18    C     0.58708   0.48590   0.88708   0.00000  Uiso   1.00
C19    C     0.49194   0.56212   0.83271   0.00000  Uiso   1.00
C20    C     0.40788   0.56474   0.83372   0.00000  Uiso   1.00
C21    C     0.70239   0.31842   0.89358   0.00000  Uiso   1.00
C22    C     0.70418   0.25383   0.84466   0.00000  Uiso   1.00
C23    C     0.71716   0.11543   0.85112   0.00000  Uiso   1.00
H24    H     0.71729   0.28272   0.03637   0.00000  Uiso   1.00
H25    H     0.89801   0.41204   0.14601   0.00000  Uiso   1.00
H26    H     0.52230   0.36225   0.98304   0.00000  Uiso   1.00
H27    H     0.73450   0.05400   0.99499   0.00000  Uiso   1.00
H28    H     0.09359   0.58681   0.24399   0.00000  Uiso   1.00
H29    H     0.30137   0.48177   0.90033   0.00000  Uiso   1.00
H30    H     0.74882   0.83177   0.92553   0.00000  Uiso   1.00
H31    H     0.68062   0.52434   0.85463   0.00000  Uiso   1.00
H32    H     0.85934   0.66692   0.95431   0.00000  Uiso   1.00
H33    H     0.48362   0.61713   0.79133   0.00000  Uiso   1.00
H34    H     0.69582   0.30888   0.80328   0.00000  Uiso   1.00
H35    H     0.06220   0.79368   0.08839   0.00000  Uiso   1.00
H36    H     0.26997   0.68864   0.74473   0.00000  Uiso   1.00
H37    H     0.71744   0.03864   0.76993   0.00000  Uiso   1.00
O38    O     0.19610   0.77971   0.23503   0.00000  Uiso   1.00
O39    O     0.15672   0.64188   0.78416   0.00000  Uiso   1.00
O40    O     0.74379   0.78910   0.81723   0.00000  Uiso   1.00
N41    N     0.06169   0.61591   0.19369   0.00000  Uiso   1.00
N42    N     0.32101   0.51773   0.87240   0.00000  Uiso   1.00
N43    N     0.73932   0.91002   0.89594   0.00000  Uiso   1.00
N44    N     0.04480   0.72723   0.10996   0.00000  Uiso   1.00
N45    N     0.30412   0.62904   0.78867   0.00000  Uiso   1.00
N46    N     0.72243   0.02134   0.81222   0.00000  Uiso   1.00
C47    C     0.29111   0.33808   0.50526   0.00000  Uiso   1.00
C48    C     0.19800   0.44184   0.47089   0.00000  Uiso   1.00
C49    C     0.11031   0.46708   0.39536   0.00000  Uiso   1.00
C50    C     0.03370   0.56607   0.37517   0.00000  Uiso   1.00
C51    C     0.88751   0.71641   0.31366   0.00000  Uiso   1.00
C52    C     0.40213   0.41480   0.55944   0.00000  Uiso   1.00
C53    C     0.48608   0.41729   0.55835   0.00000  Uiso   1.00
C54    C     0.58131   0.49351   0.61271   0.00000  Uiso   1.00
C55    C     0.75207   0.60179   0.68870   0.00000  Uiso   1.00
C56    C     0.28682   0.24732   0.55294   0.00000  Uiso   1.00
C57    C     0.27385   0.10899   0.54640   0.00000  Uiso   1.00
C58    C     0.27203   0.04419   0.59530   0.00000  Uiso   1.00
C59    C     0.26377   0.89244   0.66120   0.00000  Uiso   1.00
C60    C     0.31098   0.46898   0.60373   0.00000  Uiso   1.00
C61    C     0.20879   0.51294   0.52438   0.00000  Uiso   1.00
C62    C     0.13229   0.61192   0.50429   0.00000  Uiso   1.00
C63    C     0.04450   0.63730   0.42874   0.00000  Uiso   1.00
C64    C     0.41292   0.48590   0.61292   0.00000  Uiso   1.00
C65    C     0.50806   0.56212   0.66729   0.00000  Uiso   1.00
C66    C     0.59212   0.56474   0.66628   0.00000  Uiso   1.00
C67    C     0.29761   0.31842   0.60642   0.00000  Uiso   1.00
C68    C     0.29582   0.25383   0.65534   0.00000  Uiso   1.00
C69    C     0.28284   0.11543   0.64888   0.00000  Uiso   1.00
H70    H     0.28271   0.28272   0.46363   0.00000  Uiso   1.00
H71    H     0.10199   0.41204   0.35399   0.00000  Uiso   1.00
H72    H     0.47770   0.36225   0.51696   0.00000  Uiso   1.00
H73    H     0.26550   0.05400   0.50501   0.00000  Uiso   1.00
H74    H     0.90641   0.58681   0.25601   0.00000  Uiso   1.00
H75    H     0.69863   0.48177   0.59967   0.00000  Uiso   1.00
H76    H     0.25118   0.83177   0.57447   0.00000  Uiso   1.00
H77    H     0.31938   0.52434   0.64537   0.00000  Uiso   1.00
H78    H     0.14066   0.66692   0.54569   0.00000  Uiso   1.00
H79    H     0.51638   0.61713   0.70867   0.00000  Uiso   1.00
H80    H     0.30418   0.30888   0.69672   0.00000  Uiso   1.00
H81    H     0.93780   0.79368   0.41161   0.00000  Uiso   1.00
H82    H     0.73003   0.68864   0.75527   0.00000  Uiso   1.00
H83    H     0.28256   0.03864   0.73007   0.00000  Uiso   1.00
O84    O     0.80390   0.77971   0.26497   0.00000  Uiso   1.00
O85    O     0.84328   0.64188   0.71584   0.00000  Uiso   1.00
O86    O     0.25621   0.78910   0.68277   0.00000  Uiso   1.00
N87    N     0.93831   0.61591   0.30631   0.00000  Uiso   1.00
N88    N     0.67899   0.51773   0.62760   0.00000  Uiso   1.00
N89    N     0.26068   0.91002   0.60406   0.00000  Uiso   1.00
N90    N     0.95520   0.72723   0.39004   0.00000  Uiso   1.00
N91    N     0.69588   0.62904   0.71133   0.00000  Uiso   1.00
N92    N     0.27757   0.02134   0.68778   0.00000  Uiso   1.00
C93    C     0.29111   0.66192   0.00526   0.00000  Uiso   1.00
C94    C     0.19800   0.55816   0.97089   0.00000  Uiso   1.00
C95    C     0.11031   0.53292   0.89536   0.00000  Uiso   1.00
C96    C     0.03370   0.43393   0.87517   0.00000  Uiso   1.00
C97    C     0.88751   0.28359   0.81366   0.00000  Uiso   1.00
C98    C     0.40213   0.58520   0.05944   0.00000  Uiso   1.00
C99    C     0.48608   0.58271   0.05835   0.00000  Uiso   1.00
C100   C     0.58131   0.50649   0.11271   0.00000  Uiso   1.00
C101   C     0.75207   0.39821   0.18870   0.00000  Uiso   1.00
C102   C     0.28682   0.75268   0.05294   0.00000  Uiso   1.00
C103   C     0.27385   0.89101   0.04640   0.00000  Uiso   1.00
C104   C     0.27203   0.95581   0.09530   0.00000  Uiso   1.00
C105   C     0.26377   0.10756   0.16120   0.00000  Uiso   1.00
C106   C     0.31098   0.53102   0.10373   0.00000  Uiso   1.00
C107   C     0.20879   0.48706   0.02438   0.00000  Uiso   1.00
C108   C     0.13229   0.38808   0.00429   0.00000  Uiso   1.00
C109   C     0.04450   0.36270   0.92874   0.00000  Uiso   1.00
C110   C     0.41292   0.51410   0.11292   0.00000  Uiso   1.00
C111   C     0.50806   0.43788   0.16729   0.00000  Uiso   1.00
C112   C     0.59212   0.43526   0.16628   0.00000  Uiso   1.00
C113   C     0.29761   0.68158   0.10642   0.00000  Uiso   1.00
C114   C     0.29582   0.74617   0.15534   0.00000  Uiso   1.00
C115   C     0.28284   0.88457   0.14888   0.00000  Uiso   1.00
H116   H     0.28271   0.71728   0.96363   0.00000  Uiso   1.00
H117   H     0.10199   0.58796   0.85399   0.00000  Uiso   1.00
H118   H     0.47770   0.63775   0.01696   0.00000  Uiso   1.00
H119   H     0.26550   0.94600   0.00501   0.00000  Uiso   1.00
H120   H     0.90641   0.41319   0.75601   0.00000  Uiso   1.00
H121   H     0.69863   0.51823   0.09967   0.00000  Uiso   1.00
H122   H     0.25118   0.16823   0.07447   0.00000  Uiso   1.00
H123   H     0.31938   0.47566   0.14537   0.00000  Uiso   1.00
H124   H     0.14066   0.33308   0.04569   0.00000  Uiso   1.00
H125   H     0.51638   0.38287   0.20867   0.00000  Uiso   1.00
H126   H     0.30418   0.69112   0.19672   0.00000  Uiso   1.00
H127   H     0.93780   0.20632   0.91161   0.00000  Uiso   1.00
H128   H     0.73003   0.31136   0.25527   0.00000  Uiso   1.00
H129   H     0.28256   0.96136   0.23007   0.00000  Uiso   1.00
O130   O     0.80390   0.22029   0.76497   0.00000  Uiso   1.00
O131   O     0.84328   0.35812   0.21584   0.00000  Uiso   1.00
O132   O     0.25621   0.21090   0.18277   0.00000  Uiso   1.00
N133   N     0.93831   0.38409   0.80631   0.00000  Uiso   1.00
N134   N     0.67899   0.48227   0.12760   0.00000  Uiso   1.00
N135   N     0.26068   0.08998   0.10406   0.00000  Uiso   1.00
N136   N     0.95520   0.27277   0.89004   0.00000  Uiso   1.00
N137   N     0.69588   0.37096   0.21133   0.00000  Uiso   1.00
N138   N     0.27757   0.97866   0.18778   0.00000  Uiso   1.00
C139   C     0.70889   0.66192   0.49474   0.00000  Uiso   1.00
C140   C     0.80200   0.55816   0.52911   0.00000  Uiso   1.00
C141   C     0.88969   0.53292   0.60464   0.00000  Uiso   1.00
C142   C     0.96630   0.43393   0.62483   0.00000  Uiso   1.00
C143   C     0.11249   0.28359   0.68634   0.00000  Uiso   1.00
C144   C     0.59787   0.58520   0.44056   0.00000  Uiso   1.00
C145   C     0.51392   0.58271   0.44165   0.00000  Uiso   1.00
C146   C     0.41869   0.50649   0.38729   0.00000  Uiso   1.00
C147   C     0.24793   0.39821   0.31130   0.00000  Uiso   1.00
C148   C     0.71318   0.75268   0.44706   0.00000  Uiso   1.00
C149   C     0.72615   0.89101   0.45360   0.00000  Uiso   1.00
C150   C     0.72797   0.95581   0.40470   0.00000  Uiso   1.00
C151   C     0.73623   0.10756   0.33880   0.00000  Uiso   1.00
C152   C     0.68902   0.53102   0.39627   0.00000  Uiso   1.00
C153   C     0.79121   0.48706   0.47562   0.00000  Uiso   1.00
C154   C     0.86771   0.38808   0.49571   0.00000  Uiso   1.00
C155   C     0.95550   0.36270   0.57126   0.00000  Uiso   1.00
C156   C     0.58708   0.51410   0.38708   0.00000  Uiso   1.00
C157   C     0.49194   0.43788   0.33271   0.00000  Uiso   1.00
C158   C     0.40788   0.43526   0.33372   0.00000  Uiso   1.00
C159   C     0.70239   0.68158   0.39358   0.00000  Uiso   1.00
C160   C     0.70418   0.74617   0.34466   0.00000  Uiso   1.00
C161   C     0.71716   0.88457   0.35112   0.00000  Uiso   1.00
H162   H     0.71729   0.71728   0.53637   0.00000  Uiso   1.00
H163   H     0.89801   0.58796   0.64601   0.00000  Uiso   1.00
H164   H     0.52230   0.63775   0.48304   0.00000  Uiso   1.00
H165   H     0.73450   0.94600   0.49499   0.00000  Uiso   1.00
H166   H     0.09359   0.41319   0.74399   0.00000  Uiso   1.00
H167   H     0.30137   0.51823   0.40033   0.00000  Uiso   1.00
H168   H     0.74882   0.16823   0.42553   0.00000  Uiso   1.00
H169   H     0.68062   0.47566   0.35463   0.00000  Uiso   1.00
H170   H     0.85934   0.33308   0.45431   0.00000  Uiso   1.00
H171   H     0.48362   0.38287   0.29133   0.00000  Uiso   1.00
H172   H     0.69582   0.69112   0.30328   0.00000  Uiso   1.00
H173   H     0.06220   0.20632   0.58839   0.00000  Uiso   1.00
H174   H     0.26997   0.31136   0.24473   0.00000  Uiso   1.00
H175   H     0.71744   0.96136   0.26993   0.00000  Uiso   1.00
O176   O     0.19610   0.22029   0.73503   0.00000  Uiso   1.00
O177   O     0.15672   0.35812   0.28416   0.00000  Uiso   1.00
O178   O     0.74379   0.21090   0.31723   0.00000  Uiso   1.00
N179   N     0.06169   0.38409   0.69369   0.00000  Uiso   1.00
N180   N     0.32101   0.48227   0.37240   0.00000  Uiso   1.00
N181   N     0.73932   0.08998   0.39594   0.00000  Uiso   1.00
N182   N     0.04480   0.27277   0.60996   0.00000  Uiso   1.00
N183   N     0.30412   0.37096   0.28867   0.00000  Uiso   1.00
N184   N     0.72243   0.97866   0.31222   0.00000  Uiso   1.00
