data_job_00197
_audit_creation_date              2018-12-19
_audit_creation_method            'Materials Studio'
_symmetry_space_group_name_H-M    'P1'
_symmetry_Int_Tables_number       1
_symmetry_cell_setting            triclinic
loop_
_symmetry_equiv_pos_as_xyz
  x,y,z
_cell_length_a                    21.2266
_cell_length_b                    15.2539
_cell_length_c                    7.3914
_cell_angle_alpha                 90.0000
_cell_angle_beta                  90.0000
_cell_angle_gamma                 90.0000
loop_
_atom_site_label
_atom_site_type_symbol
_atom_site_fract_x
_atom_site_fract_y
_atom_site_fract_z
_atom_site_U_iso_or_equiv
_atom_site_adp_type
_atom_site_occupancy
C1     C     0.22053   0.61454   0.92444   0.00000  Uiso   1.00
C2     C     0.18597   0.53586   0.84476   0.00000  Uiso   1.00
C3     C     0.15692   0.46970   0.94299   0.00000  Uiso   1.00
C4     C     0.12784   0.40345   0.84494   0.00000  Uiso   1.00
C5     C     0.07420   0.28126   0.75005   0.00000  Uiso   1.00
C6     C     0.28677   0.61223   0.84473   0.00000  Uiso   1.00
C7     C     0.34248   0.61029   0.94295   0.00000  Uiso   1.00
C8     C     0.39825   0.60835   0.84487   0.00000  Uiso   1.00
C9     C     0.50111   0.60479   0.74993   0.00000  Uiso   1.00
C10    C     0.18885   0.69553   0.84477   0.00000  Uiso   1.00
C11    C     0.16223   0.76364   0.94302   0.00000  Uiso   1.00
C12    C     0.13557   0.83184   0.84497   0.00000  Uiso   1.00
C13    C     0.08639   0.95761   0.75009   0.00000  Uiso   1.00
C14    C     0.22052   0.61455   0.57561   0.00000  Uiso   1.00
C15    C     0.18597   0.53587   0.65529   0.00000  Uiso   1.00
C16    C     0.15691   0.46971   0.55706   0.00000  Uiso   1.00
C17    C     0.12783   0.40346   0.65513   0.00000  Uiso   1.00
C18    C     0.28677   0.61224   0.65527   0.00000  Uiso   1.00
C19    C     0.34247   0.61030   0.55702   0.00000  Uiso   1.00
C20    C     0.39824   0.60835   0.65506   0.00000  Uiso   1.00
C21    C     0.18884   0.69553   0.65530   0.00000  Uiso   1.00
C22    C     0.16222   0.76365   0.55708   0.00000  Uiso   1.00
C23    C     0.13556   0.83185   0.65516   0.00000  Uiso   1.00
H24    H     0.22054   0.61454   0.07194   0.00000  Uiso   1.00
H25    H     0.15694   0.46971   0.08962   0.00000  Uiso   1.00
H26    H     0.34247   0.61030   0.08957   0.00000  Uiso   1.00
H27    H     0.16225   0.76362   0.08964   0.00000  Uiso   1.00
H28    H     0.08646   0.30913   0.02566   0.00000  Uiso   1.00
H29    H     0.47764   0.60559   0.02556   0.00000  Uiso   1.00
H30    H     0.09761   0.92890   0.02570   0.00000  Uiso   1.00
H31    H     0.22052   0.61455   0.42810   0.00000  Uiso   1.00
H32    H     0.15692   0.46973   0.41044   0.00000  Uiso   1.00
H33    H     0.34244   0.61031   0.41040   0.00000  Uiso   1.00
H34    H     0.16222   0.76363   0.41047   0.00000  Uiso   1.00
H35    H     0.08643   0.30914   0.47442   0.00000  Uiso   1.00
H36    H     0.47763   0.60560   0.47432   0.00000  Uiso   1.00
H37    H     0.09759   0.92891   0.47446   0.00000  Uiso   1.00
O38    O     0.04463   0.21385   0.75004   0.00000  Uiso   1.00
O39    O     0.55785   0.60281   0.74991   0.00000  Uiso   1.00
O40    O     0.05925   0.02698   0.75010   0.00000  Uiso   1.00
N41    N     0.09517   0.32902   0.89835   0.00000  Uiso   1.00
N42    N     0.46091   0.60618   0.89826   0.00000  Uiso   1.00
N43    N     0.10562   0.90846   0.89839   0.00000  Uiso   1.00
N44    N     0.09516   0.32903   0.60173   0.00000  Uiso   1.00
N45    N     0.46089   0.60618   0.60164   0.00000  Uiso   1.00
N46    N     0.10561   0.90846   0.60177   0.00000  Uiso   1.00
C47    C     0.77947   0.38546   0.92444   0.00000  Uiso   1.00
C48    C     0.81403   0.46414   0.84476   0.00000  Uiso   1.00
C49    C     0.84308   0.53030   0.94299   0.00000  Uiso   1.00
C50    C     0.87216   0.59655   0.84494   0.00000  Uiso   1.00
C51    C     0.92580   0.71874   0.75005   0.00000  Uiso   1.00
C52    C     0.71323   0.38777   0.84473   0.00000  Uiso   1.00
C53    C     0.65752   0.38971   0.94295   0.00000  Uiso   1.00
C54    C     0.60175   0.39165   0.84487   0.00000  Uiso   1.00
C55    C     0.49889   0.39521   0.74993   0.00000  Uiso   1.00
C56    C     0.81115   0.30447   0.84477   0.00000  Uiso   1.00
C57    C     0.83777   0.23636   0.94302   0.00000  Uiso   1.00
C58    C     0.86443   0.16816   0.84497   0.00000  Uiso   1.00
C59    C     0.91361   0.04239   0.75009   0.00000  Uiso   1.00
C60    C     0.77948   0.38545   0.57561   0.00000  Uiso   1.00
C61    C     0.81403   0.46413   0.65529   0.00000  Uiso   1.00
C62    C     0.84309   0.53029   0.55706   0.00000  Uiso   1.00
C63    C     0.87217   0.59654   0.65513   0.00000  Uiso   1.00
C64    C     0.71323   0.38776   0.65527   0.00000  Uiso   1.00
C65    C     0.65753   0.38970   0.55702   0.00000  Uiso   1.00
C66    C     0.60176   0.39165   0.65506   0.00000  Uiso   1.00
C67    C     0.81116   0.30447   0.65530   0.00000  Uiso   1.00
C68    C     0.83778   0.23635   0.55708   0.00000  Uiso   1.00
C69    C     0.86444   0.16815   0.65516   0.00000  Uiso   1.00
H70    H     0.77946   0.38546   0.07194   0.00000  Uiso   1.00
H71    H     0.84306   0.53029   0.08962   0.00000  Uiso   1.00
H72    H     0.65753   0.38970   0.08957   0.00000  Uiso   1.00
H73    H     0.83775   0.23638   0.08964   0.00000  Uiso   1.00
H74    H     0.91354   0.69087   0.02566   0.00000  Uiso   1.00
H75    H     0.52236   0.39441   0.02556   0.00000  Uiso   1.00
H76    H     0.90239   0.07110   0.02570   0.00000  Uiso   1.00
H77    H     0.77948   0.38545   0.42810   0.00000  Uiso   1.00
H78    H     0.84308   0.53027   0.41044   0.00000  Uiso   1.00
H79    H     0.65756   0.38969   0.41040   0.00000  Uiso   1.00
H80    H     0.83778   0.23637   0.41047   0.00000  Uiso   1.00
H81    H     0.91357   0.69086   0.47442   0.00000  Uiso   1.00
H82    H     0.52237   0.39440   0.47432   0.00000  Uiso   1.00
H83    H     0.90241   0.07109   0.47446   0.00000  Uiso   1.00
O84    O     0.95537   0.78615   0.75004   0.00000  Uiso   1.00
O85    O     0.44215   0.39719   0.74991   0.00000  Uiso   1.00
O86    O     0.94075   0.97302   0.75010   0.00000  Uiso   1.00
N87    N     0.90483   0.67098   0.89835   0.00000  Uiso   1.00
N88    N     0.53909   0.39382   0.89826   0.00000  Uiso   1.00
N89    N     0.89438   0.09154   0.89839   0.00000  Uiso   1.00
N90    N     0.90484   0.67097   0.60173   0.00000  Uiso   1.00
N91    N     0.53911   0.39382   0.60164   0.00000  Uiso   1.00
N92    N     0.89439   0.09154   0.60177   0.00000  Uiso   1.00
C93    C     0.27947   0.11454   0.07556   0.00000  Uiso   1.00
C94    C     0.31403   0.03586   0.15524   0.00000  Uiso   1.00
C95    C     0.34308   0.96970   0.05701   0.00000  Uiso   1.00
C96    C     0.37216   0.90345   0.15506   0.00000  Uiso   1.00
C97    C     0.42580   0.78126   0.24995   0.00000  Uiso   1.00
C98    C     0.21323   0.11223   0.15527   0.00000  Uiso   1.00
C99    C     0.15752   0.11029   0.05705   0.00000  Uiso   1.00
C100   C     0.10175   0.10835   0.15513   0.00000  Uiso   1.00
C101   C     0.99889   0.10479   0.25007   0.00000  Uiso   1.00
C102   C     0.31115   0.19553   0.15523   0.00000  Uiso   1.00
C103   C     0.33777   0.26364   0.05698   0.00000  Uiso   1.00
C104   C     0.36443   0.33184   0.15503   0.00000  Uiso   1.00
C105   C     0.41361   0.45761   0.24991   0.00000  Uiso   1.00
C106   C     0.27948   0.11455   0.42439   0.00000  Uiso   1.00
C107   C     0.31403   0.03587   0.34471   0.00000  Uiso   1.00
C108   C     0.34309   0.96971   0.44294   0.00000  Uiso   1.00
C109   C     0.37217   0.90346   0.34487   0.00000  Uiso   1.00
C110   C     0.21323   0.11224   0.34473   0.00000  Uiso   1.00
C111   C     0.15753   0.11030   0.44298   0.00000  Uiso   1.00
C112   C     0.10176   0.10835   0.34494   0.00000  Uiso   1.00
C113   C     0.31116   0.19553   0.34470   0.00000  Uiso   1.00
C114   C     0.33778   0.26365   0.44292   0.00000  Uiso   1.00
C115   C     0.36444   0.33185   0.34484   0.00000  Uiso   1.00
H116   H     0.27946   0.11454   0.92806   0.00000  Uiso   1.00
H117   H     0.34306   0.96971   0.91038   0.00000  Uiso   1.00
H118   H     0.15753   0.11030   0.91043   0.00000  Uiso   1.00
H119   H     0.33775   0.26362   0.91036   0.00000  Uiso   1.00
H120   H     0.41354   0.80913   0.97434   0.00000  Uiso   1.00
H121   H     0.02236   0.10559   0.97444   0.00000  Uiso   1.00
H122   H     0.40239   0.42890   0.97430   0.00000  Uiso   1.00
H123   H     0.27948   0.11455   0.57190   0.00000  Uiso   1.00
H124   H     0.34308   0.96973   0.58956   0.00000  Uiso   1.00
H125   H     0.15756   0.11031   0.58960   0.00000  Uiso   1.00
H126   H     0.33778   0.26363   0.58953   0.00000  Uiso   1.00
H127   H     0.41357   0.80914   0.52558   0.00000  Uiso   1.00
H128   H     0.02237   0.10560   0.52568   0.00000  Uiso   1.00
H129   H     0.40241   0.42891   0.52554   0.00000  Uiso   1.00
O130   O     0.45537   0.71385   0.24996   0.00000  Uiso   1.00
O131   O     0.94215   0.10281   0.25009   0.00000  Uiso   1.00
O132   O     0.44075   0.52698   0.24990   0.00000  Uiso   1.00
N133   N     0.40483   0.82902   0.10165   0.00000  Uiso   1.00
N134   N     0.03909   0.10618   0.10174   0.00000  Uiso   1.00
N135   N     0.39438   0.40846   0.10161   0.00000  Uiso   1.00
N136   N     0.40484   0.82903   0.39827   0.00000  Uiso   1.00
N137   N     0.03911   0.10618   0.39836   0.00000  Uiso   1.00
N138   N     0.39439   0.40846   0.39823   0.00000  Uiso   1.00
C139   C     0.72053   0.88546   0.07556   0.00000  Uiso   1.00
C140   C     0.68597   0.96414   0.15524   0.00000  Uiso   1.00
C141   C     0.65692   0.03030   0.05701   0.00000  Uiso   1.00
C142   C     0.62784   0.09655   0.15506   0.00000  Uiso   1.00
C143   C     0.57420   0.21874   0.24995   0.00000  Uiso   1.00
C144   C     0.78677   0.88777   0.15527   0.00000  Uiso   1.00
C145   C     0.84248   0.88971   0.05705   0.00000  Uiso   1.00
C146   C     0.89825   0.89165   0.15513   0.00000  Uiso   1.00
C147   C     0.00111   0.89521   0.25007   0.00000  Uiso   1.00
C148   C     0.68885   0.80447   0.15523   0.00000  Uiso   1.00
C149   C     0.66223   0.73636   0.05698   0.00000  Uiso   1.00
C150   C     0.63557   0.66816   0.15503   0.00000  Uiso   1.00
C151   C     0.58639   0.54239   0.24991   0.00000  Uiso   1.00
C152   C     0.72052   0.88545   0.42439   0.00000  Uiso   1.00
C153   C     0.68597   0.96413   0.34471   0.00000  Uiso   1.00
C154   C     0.65691   0.03029   0.44294   0.00000  Uiso   1.00
C155   C     0.62783   0.09654   0.34487   0.00000  Uiso   1.00
C156   C     0.78677   0.88776   0.34473   0.00000  Uiso   1.00
C157   C     0.84247   0.88970   0.44298   0.00000  Uiso   1.00
C158   C     0.89824   0.89165   0.34494   0.00000  Uiso   1.00
C159   C     0.68884   0.80447   0.34470   0.00000  Uiso   1.00
C160   C     0.66222   0.73635   0.44292   0.00000  Uiso   1.00
C161   C     0.63556   0.66815   0.34484   0.00000  Uiso   1.00
H162   H     0.72054   0.88546   0.92806   0.00000  Uiso   1.00
H163   H     0.65694   0.03029   0.91038   0.00000  Uiso   1.00
H164   H     0.84247   0.88970   0.91043   0.00000  Uiso   1.00
H165   H     0.66225   0.73638   0.91036   0.00000  Uiso   1.00
H166   H     0.58646   0.19087   0.97434   0.00000  Uiso   1.00
H167   H     0.97764   0.89441   0.97444   0.00000  Uiso   1.00
H168   H     0.59761   0.57110   0.97430   0.00000  Uiso   1.00
H169   H     0.72052   0.88545   0.57190   0.00000  Uiso   1.00
H170   H     0.65692   0.03027   0.58956   0.00000  Uiso   1.00
H171   H     0.84244   0.88969   0.58960   0.00000  Uiso   1.00
H172   H     0.66222   0.73637   0.58953   0.00000  Uiso   1.00
H173   H     0.58643   0.19086   0.52558   0.00000  Uiso   1.00
H174   H     0.97763   0.89440   0.52568   0.00000  Uiso   1.00
H175   H     0.59759   0.57109   0.52554   0.00000  Uiso   1.00
O176   O     0.54463   0.28615   0.24996   0.00000  Uiso   1.00
O177   O     0.05785   0.89719   0.25009   0.00000  Uiso   1.00
O178   O     0.55925   0.47302   0.24990   0.00000  Uiso   1.00
N179   N     0.59517   0.17098   0.10165   0.00000  Uiso   1.00
N180   N     0.96091   0.89382   0.10174   0.00000  Uiso   1.00
N181   N     0.60562   0.59154   0.10161   0.00000  Uiso   1.00
N182   N     0.59516   0.17097   0.39827   0.00000  Uiso   1.00
N183   N     0.96089   0.89382   0.39836   0.00000  Uiso   1.00
N184   N     0.60561   0.59154   0.39823   0.00000  Uiso   1.00
