data_job_05133
_audit_creation_date              2018-12-19
_audit_creation_method            'Materials Studio'
_symmetry_space_group_name_H-M    'P1'
_symmetry_Int_Tables_number       1
_symmetry_cell_setting            triclinic
loop_
_symmetry_equiv_pos_as_xyz
  x,y,z
_cell_length_a                    12.3571
_cell_length_b                    12.3571
_cell_length_c                    29.5236
_cell_angle_alpha                 90.0000
_cell_angle_beta                  90.0000
_cell_angle_gamma                 90.0000
loop_
_atom_site_label
_atom_site_type_symbol
_atom_site_fract_x
_atom_site_fract_y
_atom_site_fract_z
_atom_site_U_iso_or_equiv
_atom_site_adp_type
_atom_site_occupancy
C1     C     0.85342   0.84638   0.76199   0.00000  Uiso   1.00
C2     C     0.93228   0.78014   0.73353   0.00000  Uiso   1.00
C3     C     0.02597   0.81898   0.71335   0.00000  Uiso   1.00
C4     C     0.08721   0.74549   0.68868   0.00000  Uiso   1.00
C5     C     0.21441   0.65914   0.64513   0.00000  Uiso   1.00
C6     C     0.74306   0.83364   0.73950   0.00000  Uiso   1.00
C7     C     0.67766   0.91746   0.72435   0.00000  Uiso   1.00
C8     C     0.57960   0.88901   0.70472   0.00000  Uiso   1.00
C9     C     0.41299   0.88572   0.67047   0.00000  Uiso   1.00
C10    C     0.84528   0.78860   0.80750   0.00000  Uiso   1.00
C11    C     0.86579   0.83456   0.84952   0.00000  Uiso   1.00
C12    C     0.85378   0.76820   0.88713   0.00000  Uiso   1.00
C13    C     0.84588   0.69498   0.95846   0.00000  Uiso   1.00
C14    C     0.79556   0.64681   0.75407   0.00000  Uiso   1.00
C15    C     0.90085   0.67174   0.72923   0.00000  Uiso   1.00
C16    C     0.96196   0.59818   0.70458   0.00000  Uiso   1.00
C17    C     0.05574   0.63690   0.68437   0.00000  Uiso   1.00
C18    C     0.71163   0.72524   0.73520   0.00000  Uiso   1.00
C19    C     0.61365   0.69666   0.71559   0.00000  Uiso   1.00
C20    C     0.54812   0.78041   0.70041   0.00000  Uiso   1.00
C21    C     0.81385   0.68020   0.80320   0.00000  Uiso   1.00
C22    C     0.80179   0.61376   0.84075   0.00000  Uiso   1.00
C23    C     0.82229   0.65960   0.88282   0.00000  Uiso   1.00
H24    H     0.87788   0.93077   0.76533   0.00000  Uiso   1.00
H25    H     0.05026   0.90288   0.71668   0.00000  Uiso   1.00
H26    H     0.70199   0.00134   0.72769   0.00000  Uiso   1.00
H27    H     0.89011   0.91845   0.85283   0.00000  Uiso   1.00
H28    H     0.22750   0.82415   0.66083   0.00000  Uiso   1.00
H29    H     0.49314   0.03177   0.68405   0.00000  Uiso   1.00
H30    H     0.88982   0.85698   0.94795   0.00000  Uiso   1.00
H31    H     0.77109   0.56241   0.75072   0.00000  Uiso   1.00
H32    H     0.93762   0.51430   0.70126   0.00000  Uiso   1.00
H33    H     0.58935   0.61276   0.71226   0.00000  Uiso   1.00
H34    H     0.77747   0.52988   0.83741   0.00000  Uiso   1.00
H35    H     0.13607   0.50877   0.64831   0.00000  Uiso   1.00
H36    H     0.40171   0.71639   0.67153   0.00000  Uiso   1.00
H37    H     0.79839   0.54160   0.93543   0.00000  Uiso   1.00
O38    O     0.29324   0.64146   0.62229   0.00000  Uiso   1.00
O39    O     0.32978   0.91385   0.65276   0.00000  Uiso   1.00
O40    O     0.85022   0.68454   0.99899   0.00000  Uiso   1.00
N41    N     0.18314   0.75652   0.66468   0.00000  Uiso   1.00
N42    N     0.49656   0.95063   0.68638   0.00000  Uiso   1.00
N43    N     0.86740   0.78723   0.93310   0.00000  Uiso   1.00
N44    N     0.13394   0.58682   0.65794   0.00000  Uiso   1.00
N45    N     0.44737   0.78093   0.67965   0.00000  Uiso   1.00
N46    N     0.81820   0.61753   0.92637   0.00000  Uiso   1.00
C47    C     0.14658   0.15362   0.26199   0.00000  Uiso   1.00
C48    C     0.06772   0.21986   0.23353   0.00000  Uiso   1.00
C49    C     0.97403   0.18102   0.21335   0.00000  Uiso   1.00
C50    C     0.91279   0.25451   0.18868   0.00000  Uiso   1.00
C51    C     0.78559   0.34086   0.14513   0.00000  Uiso   1.00
C52    C     0.25694   0.16636   0.23950   0.00000  Uiso   1.00
C53    C     0.32234   0.08254   0.22435   0.00000  Uiso   1.00
C54    C     0.42040   0.11099   0.20472   0.00000  Uiso   1.00
C55    C     0.58701   0.11428   0.17047   0.00000  Uiso   1.00
C56    C     0.15472   0.21140   0.30750   0.00000  Uiso   1.00
C57    C     0.13421   0.16544   0.34952   0.00000  Uiso   1.00
C58    C     0.14622   0.23180   0.38713   0.00000  Uiso   1.00
C59    C     0.15412   0.30502   0.45846   0.00000  Uiso   1.00
C60    C     0.20444   0.35319   0.25407   0.00000  Uiso   1.00
C61    C     0.09915   0.32826   0.22923   0.00000  Uiso   1.00
C62    C     0.03804   0.40182   0.20458   0.00000  Uiso   1.00
C63    C     0.94426   0.36310   0.18437   0.00000  Uiso   1.00
C64    C     0.28837   0.27476   0.23520   0.00000  Uiso   1.00
C65    C     0.38635   0.30334   0.21559   0.00000  Uiso   1.00
C66    C     0.45188   0.21959   0.20041   0.00000  Uiso   1.00
C67    C     0.18615   0.31980   0.30320   0.00000  Uiso   1.00
C68    C     0.19821   0.38624   0.34075   0.00000  Uiso   1.00
C69    C     0.17771   0.34040   0.38282   0.00000  Uiso   1.00
H70    H     0.12212   0.06923   0.26533   0.00000  Uiso   1.00
H71    H     0.94974   0.09712   0.21668   0.00000  Uiso   1.00
H72    H     0.29801   0.99866   0.22769   0.00000  Uiso   1.00
H73    H     0.10989   0.08155   0.35283   0.00000  Uiso   1.00
H74    H     0.77250   0.17585   0.16083   0.00000  Uiso   1.00
H75    H     0.50686   0.96823   0.18405   0.00000  Uiso   1.00
H76    H     0.11018   0.14302   0.44795   0.00000  Uiso   1.00
H77    H     0.22891   0.43759   0.25072   0.00000  Uiso   1.00
H78    H     0.06238   0.48570   0.20126   0.00000  Uiso   1.00
H79    H     0.41065   0.38724   0.21226   0.00000  Uiso   1.00
H80    H     0.22253   0.47012   0.33741   0.00000  Uiso   1.00
H81    H     0.86393   0.49123   0.14831   0.00000  Uiso   1.00
H82    H     0.59829   0.28361   0.17153   0.00000  Uiso   1.00
H83    H     0.20161   0.45840   0.43543   0.00000  Uiso   1.00
O84    O     0.70676   0.35854   0.12229   0.00000  Uiso   1.00
O85    O     0.67022   0.08615   0.15276   0.00000  Uiso   1.00
O86    O     0.14978   0.31546   0.49899   0.00000  Uiso   1.00
N87    N     0.81686   0.24348   0.16468   0.00000  Uiso   1.00
N88    N     0.50344   0.04937   0.18638   0.00000  Uiso   1.00
N89    N     0.13260   0.21277   0.43310   0.00000  Uiso   1.00
N90    N     0.86606   0.41318   0.15794   0.00000  Uiso   1.00
N91    N     0.55263   0.21907   0.17965   0.00000  Uiso   1.00
N92    N     0.18180   0.38247   0.42637   0.00000  Uiso   1.00
C93    C     0.65362   0.35342   0.51199   0.00000  Uiso   1.00
C94    C     0.71986   0.43228   0.48353   0.00000  Uiso   1.00
C95    C     0.68102   0.52597   0.46335   0.00000  Uiso   1.00
C96    C     0.75451   0.58721   0.43868   0.00000  Uiso   1.00
C97    C     0.84086   0.71441   0.39513   0.00000  Uiso   1.00
C98    C     0.66636   0.24306   0.48950   0.00000  Uiso   1.00
C99    C     0.58254   0.17766   0.47435   0.00000  Uiso   1.00
C100   C     0.61099   0.07960   0.45472   0.00000  Uiso   1.00
C101   C     0.61428   0.91299   0.42047   0.00000  Uiso   1.00
C102   C     0.71140   0.34528   0.55750   0.00000  Uiso   1.00
C103   C     0.66544   0.36579   0.59952   0.00000  Uiso   1.00
C104   C     0.73180   0.35378   0.63713   0.00000  Uiso   1.00
C105   C     0.80502   0.34588   0.70846   0.00000  Uiso   1.00
C106   C     0.85319   0.29556   0.50407   0.00000  Uiso   1.00
C107   C     0.82826   0.40085   0.47923   0.00000  Uiso   1.00
C108   C     0.90182   0.46196   0.45458   0.00000  Uiso   1.00
C109   C     0.86310   0.55574   0.43437   0.00000  Uiso   1.00
C110   C     0.77476   0.21163   0.48520   0.00000  Uiso   1.00
C111   C     0.80334   0.11365   0.46559   0.00000  Uiso   1.00
C112   C     0.71959   0.04812   0.45041   0.00000  Uiso   1.00
C113   C     0.81980   0.31385   0.55320   0.00000  Uiso   1.00
C114   C     0.88624   0.30179   0.59075   0.00000  Uiso   1.00
C115   C     0.84040   0.32229   0.63282   0.00000  Uiso   1.00
H116   H     0.56923   0.37788   0.51533   0.00000  Uiso   1.00
H117   H     0.59712   0.55026   0.46668   0.00000  Uiso   1.00
H118   H     0.49866   0.20199   0.47769   0.00000  Uiso   1.00
H119   H     0.58155   0.39011   0.60283   0.00000  Uiso   1.00
H120   H     0.67585   0.72750   0.41083   0.00000  Uiso   1.00
H121   H     0.46823   0.99314   0.43405   0.00000  Uiso   1.00
H122   H     0.64302   0.38982   0.69795   0.00000  Uiso   1.00
H123   H     0.93759   0.27109   0.50072   0.00000  Uiso   1.00
H124   H     0.98570   0.43762   0.45126   0.00000  Uiso   1.00
H125   H     0.88724   0.08935   0.46226   0.00000  Uiso   1.00
H126   H     0.97012   0.27747   0.58741   0.00000  Uiso   1.00
H127   H     0.99123   0.63607   0.39831   0.00000  Uiso   1.00
H128   H     0.78361   0.90171   0.42153   0.00000  Uiso   1.00
H129   H     0.95840   0.29839   0.68543   0.00000  Uiso   1.00
O130   O     0.85854   0.79324   0.37229   0.00000  Uiso   1.00
O131   O     0.58615   0.82978   0.40276   0.00000  Uiso   1.00
O132   O     0.81546   0.35022   0.74899   0.00000  Uiso   1.00
N133   N     0.74348   0.68314   0.41468   0.00000  Uiso   1.00
N134   N     0.54937   0.99656   0.43638   0.00000  Uiso   1.00
N135   N     0.71277   0.36740   0.68310   0.00000  Uiso   1.00
N136   N     0.91318   0.63394   0.40794   0.00000  Uiso   1.00
N137   N     0.71907   0.94737   0.42965   0.00000  Uiso   1.00
N138   N     0.88247   0.31820   0.67637   0.00000  Uiso   1.00
C139   C     0.34638   0.64658   0.01199   0.00000  Uiso   1.00
C140   C     0.28014   0.56772   0.98353   0.00000  Uiso   1.00
C141   C     0.31898   0.47403   0.96335   0.00000  Uiso   1.00
C142   C     0.24549   0.41279   0.93868   0.00000  Uiso   1.00
C143   C     0.15914   0.28559   0.89513   0.00000  Uiso   1.00
C144   C     0.33364   0.75694   0.98950   0.00000  Uiso   1.00
C145   C     0.41746   0.82234   0.97435   0.00000  Uiso   1.00
C146   C     0.38901   0.92040   0.95472   0.00000  Uiso   1.00
C147   C     0.38572   0.08701   0.92047   0.00000  Uiso   1.00
C148   C     0.28860   0.65472   0.05750   0.00000  Uiso   1.00
C149   C     0.33456   0.63421   0.09952   0.00000  Uiso   1.00
C150   C     0.26820   0.64622   0.13713   0.00000  Uiso   1.00
C151   C     0.19498   0.65412   0.20846   0.00000  Uiso   1.00
C152   C     0.14681   0.70444   0.00407   0.00000  Uiso   1.00
C153   C     0.17174   0.59915   0.97923   0.00000  Uiso   1.00
C154   C     0.09818   0.53804   0.95458   0.00000  Uiso   1.00
C155   C     0.13690   0.44426   0.93437   0.00000  Uiso   1.00
C156   C     0.22524   0.78837   0.98520   0.00000  Uiso   1.00
C157   C     0.19666   0.88635   0.96559   0.00000  Uiso   1.00
C158   C     0.28041   0.95188   0.95041   0.00000  Uiso   1.00
C159   C     0.18020   0.68615   0.05320   0.00000  Uiso   1.00
C160   C     0.11376   0.69821   0.09075   0.00000  Uiso   1.00
C161   C     0.15960   0.67771   0.13282   0.00000  Uiso   1.00
H162   H     0.43077   0.62212   0.01533   0.00000  Uiso   1.00
H163   H     0.40288   0.44974   0.96668   0.00000  Uiso   1.00
H164   H     0.50134   0.79801   0.97769   0.00000  Uiso   1.00
H165   H     0.41845   0.60989   0.10283   0.00000  Uiso   1.00
H166   H     0.32415   0.27250   0.91083   0.00000  Uiso   1.00
H167   H     0.53177   0.00686   0.93405   0.00000  Uiso   1.00
H168   H     0.35698   0.61018   0.19795   0.00000  Uiso   1.00
H169   H     0.06241   0.72891   0.00072   0.00000  Uiso   1.00
H170   H     0.01430   0.56238   0.95126   0.00000  Uiso   1.00
H171   H     0.11276   0.91065   0.96226   0.00000  Uiso   1.00
H172   H     0.02988   0.72253   0.08741   0.00000  Uiso   1.00
H173   H     0.00877   0.36393   0.89831   0.00000  Uiso   1.00
H174   H     0.21639   0.09829   0.92153   0.00000  Uiso   1.00
H175   H     0.04160   0.70161   0.18543   0.00000  Uiso   1.00
O176   O     0.14146   0.20676   0.87229   0.00000  Uiso   1.00
O177   O     0.41385   0.17022   0.90276   0.00000  Uiso   1.00
O178   O     0.18454   0.64978   0.24899   0.00000  Uiso   1.00
N179   N     0.25652   0.31686   0.91468   0.00000  Uiso   1.00
N180   N     0.45063   0.00344   0.93638   0.00000  Uiso   1.00
N181   N     0.28723   0.63260   0.18310   0.00000  Uiso   1.00
N182   N     0.08682   0.36606   0.90794   0.00000  Uiso   1.00
N183   N     0.28093   0.05263   0.92965   0.00000  Uiso   1.00
N184   N     0.11753   0.68180   0.17637   0.00000  Uiso   1.00
C185   C     0.64658   0.34638   0.98801   0.00000  Uiso   1.00
C186   C     0.56772   0.28014   0.01647   0.00000  Uiso   1.00
C187   C     0.47403   0.31898   0.03665   0.00000  Uiso   1.00
C188   C     0.41279   0.24549   0.06132   0.00000  Uiso   1.00
C189   C     0.28559   0.15914   0.10487   0.00000  Uiso   1.00
C190   C     0.75694   0.33364   0.01050   0.00000  Uiso   1.00
C191   C     0.82234   0.41746   0.02565   0.00000  Uiso   1.00
C192   C     0.92040   0.38901   0.04528   0.00000  Uiso   1.00
C193   C     0.08701   0.38572   0.07953   0.00000  Uiso   1.00
C194   C     0.65472   0.28860   0.94250   0.00000  Uiso   1.00
C195   C     0.63421   0.33456   0.90048   0.00000  Uiso   1.00
C196   C     0.64622   0.26820   0.86287   0.00000  Uiso   1.00
C197   C     0.65412   0.19498   0.79154   0.00000  Uiso   1.00
C198   C     0.70444   0.14681   0.99593   0.00000  Uiso   1.00
C199   C     0.59915   0.17174   0.02077   0.00000  Uiso   1.00
C200   C     0.53804   0.09818   0.04542   0.00000  Uiso   1.00
C201   C     0.44426   0.13690   0.06563   0.00000  Uiso   1.00
C202   C     0.78837   0.22524   0.01480   0.00000  Uiso   1.00
C203   C     0.88635   0.19666   0.03441   0.00000  Uiso   1.00
C204   C     0.95188   0.28041   0.04959   0.00000  Uiso   1.00
C205   C     0.68615   0.18020   0.94680   0.00000  Uiso   1.00
C206   C     0.69821   0.11376   0.90925   0.00000  Uiso   1.00
C207   C     0.67771   0.15960   0.86718   0.00000  Uiso   1.00
H208   H     0.62212   0.43077   0.98467   0.00000  Uiso   1.00
H209   H     0.44974   0.40288   0.03332   0.00000  Uiso   1.00
H210   H     0.79801   0.50134   0.02231   0.00000  Uiso   1.00
H211   H     0.60989   0.41845   0.89717   0.00000  Uiso   1.00
H212   H     0.27250   0.32415   0.08917   0.00000  Uiso   1.00
H213   H     0.00686   0.53177   0.06595   0.00000  Uiso   1.00
H214   H     0.61018   0.35698   0.80205   0.00000  Uiso   1.00
H215   H     0.72891   0.06241   0.99928   0.00000  Uiso   1.00
H216   H     0.56238   0.01430   0.04874   0.00000  Uiso   1.00
H217   H     0.91065   0.11276   0.03774   0.00000  Uiso   1.00
H218   H     0.72253   0.02988   0.91259   0.00000  Uiso   1.00
H219   H     0.36393   0.00877   0.10169   0.00000  Uiso   1.00
H220   H     0.09829   0.21639   0.07847   0.00000  Uiso   1.00
H221   H     0.70161   0.04160   0.81457   0.00000  Uiso   1.00
O222   O     0.20676   0.14146   0.12771   0.00000  Uiso   1.00
O223   O     0.17022   0.41385   0.09724   0.00000  Uiso   1.00
O224   O     0.64978   0.18454   0.75101   0.00000  Uiso   1.00
N225   N     0.31686   0.25652   0.08532   0.00000  Uiso   1.00
N226   N     0.00344   0.45063   0.06362   0.00000  Uiso   1.00
N227   N     0.63260   0.28723   0.81690   0.00000  Uiso   1.00
N228   N     0.36606   0.08682   0.09206   0.00000  Uiso   1.00
N229   N     0.05263   0.28093   0.07035   0.00000  Uiso   1.00
N230   N     0.68180   0.11753   0.82363   0.00000  Uiso   1.00
C231   C     0.35342   0.65362   0.48801   0.00000  Uiso   1.00
C232   C     0.43228   0.71986   0.51647   0.00000  Uiso   1.00
C233   C     0.52597   0.68102   0.53665   0.00000  Uiso   1.00
C234   C     0.58721   0.75451   0.56132   0.00000  Uiso   1.00
C235   C     0.71441   0.84086   0.60487   0.00000  Uiso   1.00
C236   C     0.24306   0.66636   0.51050   0.00000  Uiso   1.00
C237   C     0.17766   0.58254   0.52565   0.00000  Uiso   1.00
C238   C     0.07960   0.61099   0.54528   0.00000  Uiso   1.00
C239   C     0.91299   0.61428   0.57953   0.00000  Uiso   1.00
C240   C     0.34528   0.71140   0.44250   0.00000  Uiso   1.00
C241   C     0.36579   0.66544   0.40048   0.00000  Uiso   1.00
C242   C     0.35378   0.73180   0.36287   0.00000  Uiso   1.00
C243   C     0.34588   0.80502   0.29154   0.00000  Uiso   1.00
C244   C     0.29556   0.85319   0.49593   0.00000  Uiso   1.00
C245   C     0.40085   0.82826   0.52077   0.00000  Uiso   1.00
C246   C     0.46196   0.90182   0.54542   0.00000  Uiso   1.00
C247   C     0.55574   0.86310   0.56563   0.00000  Uiso   1.00
C248   C     0.21163   0.77476   0.51480   0.00000  Uiso   1.00
C249   C     0.11365   0.80334   0.53441   0.00000  Uiso   1.00
C250   C     0.04812   0.71959   0.54959   0.00000  Uiso   1.00
C251   C     0.31385   0.81980   0.44680   0.00000  Uiso   1.00
C252   C     0.30179   0.88624   0.40925   0.00000  Uiso   1.00
C253   C     0.32229   0.84040   0.36718   0.00000  Uiso   1.00
H254   H     0.37788   0.56923   0.48467   0.00000  Uiso   1.00
H255   H     0.55026   0.59712   0.53332   0.00000  Uiso   1.00
H256   H     0.20199   0.49866   0.52231   0.00000  Uiso   1.00
H257   H     0.39011   0.58155   0.39717   0.00000  Uiso   1.00
H258   H     0.72750   0.67585   0.58917   0.00000  Uiso   1.00
H259   H     0.99314   0.46823   0.56595   0.00000  Uiso   1.00
H260   H     0.38982   0.64302   0.30205   0.00000  Uiso   1.00
H261   H     0.27109   0.93759   0.49928   0.00000  Uiso   1.00
H262   H     0.43762   0.98570   0.54874   0.00000  Uiso   1.00
H263   H     0.08935   0.88724   0.53774   0.00000  Uiso   1.00
H264   H     0.27747   0.97012   0.41259   0.00000  Uiso   1.00
H265   H     0.63607   0.99123   0.60169   0.00000  Uiso   1.00
H266   H     0.90171   0.78361   0.57847   0.00000  Uiso   1.00
H267   H     0.29839   0.95840   0.31457   0.00000  Uiso   1.00
O268   O     0.79324   0.85854   0.62771   0.00000  Uiso   1.00
O269   O     0.82978   0.58615   0.59724   0.00000  Uiso   1.00
O270   O     0.35022   0.81546   0.25101   0.00000  Uiso   1.00
N271   N     0.68314   0.74348   0.58532   0.00000  Uiso   1.00
N272   N     0.99656   0.54937   0.56362   0.00000  Uiso   1.00
N273   N     0.36740   0.71277   0.31690   0.00000  Uiso   1.00
N274   N     0.63394   0.91318   0.59206   0.00000  Uiso   1.00
N275   N     0.94737   0.71907   0.57035   0.00000  Uiso   1.00
N276   N     0.31820   0.88247   0.32363   0.00000  Uiso   1.00
C277   C     0.84638   0.85342   0.23801   0.00000  Uiso   1.00
C278   C     0.78014   0.93228   0.26647   0.00000  Uiso   1.00
C279   C     0.81898   0.02597   0.28665   0.00000  Uiso   1.00
C280   C     0.74549   0.08721   0.31132   0.00000  Uiso   1.00
C281   C     0.65914   0.21441   0.35487   0.00000  Uiso   1.00
C282   C     0.83364   0.74306   0.26050   0.00000  Uiso   1.00
C283   C     0.91746   0.67766   0.27565   0.00000  Uiso   1.00
C284   C     0.88901   0.57960   0.29528   0.00000  Uiso   1.00
C285   C     0.88572   0.41299   0.32953   0.00000  Uiso   1.00
C286   C     0.78860   0.84528   0.19250   0.00000  Uiso   1.00
C287   C     0.83456   0.86579   0.15048   0.00000  Uiso   1.00
C288   C     0.76820   0.85378   0.11287   0.00000  Uiso   1.00
C289   C     0.69498   0.84588   0.04154   0.00000  Uiso   1.00
C290   C     0.64681   0.79556   0.24593   0.00000  Uiso   1.00
C291   C     0.67174   0.90085   0.27077   0.00000  Uiso   1.00
C292   C     0.59818   0.96196   0.29542   0.00000  Uiso   1.00
C293   C     0.63690   0.05574   0.31563   0.00000  Uiso   1.00
C294   C     0.72524   0.71163   0.26480   0.00000  Uiso   1.00
C295   C     0.69666   0.61365   0.28441   0.00000  Uiso   1.00
C296   C     0.78041   0.54812   0.29959   0.00000  Uiso   1.00
C297   C     0.68020   0.81385   0.19680   0.00000  Uiso   1.00
C298   C     0.61376   0.80179   0.15925   0.00000  Uiso   1.00
C299   C     0.65960   0.82229   0.11718   0.00000  Uiso   1.00
H300   H     0.93077   0.87788   0.23467   0.00000  Uiso   1.00
H301   H     0.90288   0.05026   0.28332   0.00000  Uiso   1.00
H302   H     0.00134   0.70199   0.27231   0.00000  Uiso   1.00
H303   H     0.91845   0.89011   0.14717   0.00000  Uiso   1.00
H304   H     0.82415   0.22750   0.33917   0.00000  Uiso   1.00
H305   H     0.03177   0.49314   0.31595   0.00000  Uiso   1.00
H306   H     0.85698   0.88982   0.05205   0.00000  Uiso   1.00
H307   H     0.56241   0.77109   0.24928   0.00000  Uiso   1.00
H308   H     0.51430   0.93762   0.29874   0.00000  Uiso   1.00
H309   H     0.61276   0.58935   0.28774   0.00000  Uiso   1.00
H310   H     0.52988   0.77747   0.16259   0.00000  Uiso   1.00
H311   H     0.50877   0.13607   0.35169   0.00000  Uiso   1.00
H312   H     0.71639   0.40171   0.32847   0.00000  Uiso   1.00
H313   H     0.54160   0.79839   0.06457   0.00000  Uiso   1.00
O314   O     0.64146   0.29324   0.37771   0.00000  Uiso   1.00
O315   O     0.91385   0.32978   0.34724   0.00000  Uiso   1.00
O316   O     0.68454   0.85022   0.00101   0.00000  Uiso   1.00
N317   N     0.75652   0.18314   0.33532   0.00000  Uiso   1.00
N318   N     0.95063   0.49656   0.31362   0.00000  Uiso   1.00
N319   N     0.78723   0.86740   0.06690   0.00000  Uiso   1.00
N320   N     0.58682   0.13394   0.34206   0.00000  Uiso   1.00
N321   N     0.78093   0.44737   0.32035   0.00000  Uiso   1.00
N322   N     0.61753   0.81820   0.07363   0.00000  Uiso   1.00
C323   C     0.15362   0.14658   0.73801   0.00000  Uiso   1.00
C324   C     0.21986   0.06772   0.76647   0.00000  Uiso   1.00
C325   C     0.18102   0.97403   0.78665   0.00000  Uiso   1.00
C326   C     0.25451   0.91279   0.81132   0.00000  Uiso   1.00
C327   C     0.34086   0.78559   0.85487   0.00000  Uiso   1.00
C328   C     0.16636   0.25694   0.76050   0.00000  Uiso   1.00
C329   C     0.08254   0.32234   0.77565   0.00000  Uiso   1.00
C330   C     0.11099   0.42040   0.79528   0.00000  Uiso   1.00
C331   C     0.11428   0.58701   0.82953   0.00000  Uiso   1.00
C332   C     0.21140   0.15472   0.69250   0.00000  Uiso   1.00
C333   C     0.16544   0.13421   0.65048   0.00000  Uiso   1.00
C334   C     0.23180   0.14622   0.61287   0.00000  Uiso   1.00
C335   C     0.30502   0.15412   0.54154   0.00000  Uiso   1.00
C336   C     0.35319   0.20444   0.74593   0.00000  Uiso   1.00
C337   C     0.32826   0.09915   0.77077   0.00000  Uiso   1.00
C338   C     0.40182   0.03804   0.79542   0.00000  Uiso   1.00
C339   C     0.36310   0.94426   0.81563   0.00000  Uiso   1.00
C340   C     0.27476   0.28837   0.76480   0.00000  Uiso   1.00
C341   C     0.30334   0.38635   0.78441   0.00000  Uiso   1.00
C342   C     0.21959   0.45188   0.79959   0.00000  Uiso   1.00
C343   C     0.31980   0.18615   0.69680   0.00000  Uiso   1.00
C344   C     0.38624   0.19821   0.65925   0.00000  Uiso   1.00
C345   C     0.34040   0.17771   0.61718   0.00000  Uiso   1.00
H346   H     0.06923   0.12212   0.73467   0.00000  Uiso   1.00
H347   H     0.09712   0.94974   0.78332   0.00000  Uiso   1.00
H348   H     0.99866   0.29801   0.77231   0.00000  Uiso   1.00
H349   H     0.08155   0.10989   0.64717   0.00000  Uiso   1.00
H350   H     0.17585   0.77250   0.83917   0.00000  Uiso   1.00
H351   H     0.96823   0.50686   0.81595   0.00000  Uiso   1.00
H352   H     0.14302   0.11018   0.55205   0.00000  Uiso   1.00
H353   H     0.43759   0.22891   0.74928   0.00000  Uiso   1.00
H354   H     0.48570   0.06238   0.79874   0.00000  Uiso   1.00
H355   H     0.38724   0.41065   0.78774   0.00000  Uiso   1.00
H356   H     0.47012   0.22253   0.66259   0.00000  Uiso   1.00
H357   H     0.49123   0.86393   0.85169   0.00000  Uiso   1.00
H358   H     0.28361   0.59829   0.82847   0.00000  Uiso   1.00
H359   H     0.45840   0.20161   0.56457   0.00000  Uiso   1.00
O360   O     0.35854   0.70676   0.87771   0.00000  Uiso   1.00
O361   O     0.08615   0.67022   0.84724   0.00000  Uiso   1.00
O362   O     0.31546   0.14978   0.50101   0.00000  Uiso   1.00
N363   N     0.24348   0.81686   0.83532   0.00000  Uiso   1.00
N364   N     0.04937   0.50344   0.81362   0.00000  Uiso   1.00
N365   N     0.21277   0.13260   0.56690   0.00000  Uiso   1.00
N366   N     0.41318   0.86606   0.84206   0.00000  Uiso   1.00
N367   N     0.21907   0.55263   0.82035   0.00000  Uiso   1.00
N368   N     0.38247   0.18180   0.57363   0.00000  Uiso   1.00
