data_job_04527
_audit_creation_date              2018-12-19
_audit_creation_method            'Materials Studio'
_symmetry_space_group_name_H-M    'P1'
_symmetry_Int_Tables_number       1
_symmetry_cell_setting            triclinic
loop_
_symmetry_equiv_pos_as_xyz
  x,y,z
_cell_length_a                    12.5266
_cell_length_b                    14.1514
_cell_length_c                    29.3166
_cell_angle_alpha                 90.0000
_cell_angle_beta                  125.2873
_cell_angle_gamma                 90.0000
loop_
_atom_site_label
_atom_site_type_symbol
_atom_site_fract_x
_atom_site_fract_y
_atom_site_fract_z
_atom_site_U_iso_or_equiv
_atom_site_adp_type
_atom_site_occupancy
C1     C     0.22064   0.20648   0.05907   0.00000  Uiso   1.00
C2     C     0.35836   0.16735   0.09953   0.00000  Uiso   1.00
C3     C     0.43494   0.12643   0.08471   0.00000  Uiso   1.00
C4     C     0.55822   0.09498   0.12792   0.00000  Uiso   1.00
C5     C     0.76520   0.03279   0.18222   0.00000  Uiso   1.00
C6     C     0.13459   0.15464   0.07216   0.00000  Uiso   1.00
C7     C     0.02300   0.10303   0.03432   0.00000  Uiso   1.00
C8     C     0.95790   0.06089   0.05450   0.00000  Uiso   1.00
C9     C     0.81741   0.97902   0.06630   0.00000  Uiso   1.00
C10    C     0.22570   0.30903   0.07618   0.00000  Uiso   1.00
C11    C     0.19070   0.38725   0.04172   0.00000  Uiso   1.00
C12    C     0.20229   0.47510   0.06528   0.00000  Uiso   1.00
C13    C     0.20327   0.63295   0.08333   0.00000  Uiso   1.00
C14    C     0.30342   0.22341   0.16217   0.00000  Uiso   1.00
C15    C     0.40332   0.17655   0.15553   0.00000  Uiso   1.00
C16    C     0.52653   0.14516   0.19878   0.00000  Uiso   1.00
C17    C     0.60327   0.10420   0.18402   0.00000  Uiso   1.00
C18    C     0.17954   0.16383   0.12816   0.00000  Uiso   1.00
C19    C     0.11459   0.12176   0.14839   0.00000  Uiso   1.00
C20    C     0.00295   0.07010   0.11060   0.00000  Uiso   1.00
C21    C     0.27067   0.31823   0.13218   0.00000  Uiso   1.00
C22    C     0.28230   0.40598   0.15580   0.00000  Uiso   1.00
C23    C     0.24733   0.48431   0.12138   0.00000  Uiso   1.00
H24    H     0.18563   0.19931   0.01547   0.00000  Uiso   1.00
H25    H     0.40010   0.11931   0.04136   0.00000  Uiso   1.00
H26    H     0.98822   0.09593   0.99099   0.00000  Uiso   1.00
H27    H     0.15591   0.38010   0.99839   0.00000  Uiso   1.00
H28    H     0.65769   0.03464   0.09476   0.00000  Uiso   1.00
H29    H     0.78920   0.98537   0.98854   0.00000  Uiso   1.00
H30    H     0.14279   0.58460   0.00415   0.00000  Uiso   1.00
H31    H     0.33843   0.23057   0.20577   0.00000  Uiso   1.00
H32    H     0.56129   0.15229   0.24211   0.00000  Uiso   1.00
H33    H     0.14941   0.12890   0.19173   0.00000  Uiso   1.00
H34    H     0.31709   0.41307   0.19913   0.00000  Uiso   1.00
H35    H     0.78852   0.06140   0.25770   0.00000  Uiso   1.00
H36    H     0.92002   0.01213   0.15147   0.00000  Uiso   1.00
H37    H     0.27361   0.61136   0.16708   0.00000  Uiso   1.00
O38    O     0.86694   0.99593   0.19670   0.00000  Uiso   1.00
O39    O     0.72750   0.93130   0.05733   0.00000  Uiso   1.00
O40    O     0.19140   0.71748   0.07781   0.00000  Uiso   1.00
N41    N     0.65791   0.05170   0.12812   0.00000  Uiso   1.00
N42    N     0.84593   0.00562   0.02881   0.00000  Uiso   1.00
N43    N     0.17647   0.56585   0.04340   0.00000  Uiso   1.00
N44    N     0.72831   0.06610   0.21580   0.00000  Uiso   1.00
N45    N     0.91633   0.02002   0.11649   0.00000  Uiso   1.00
N46    N     0.24687   0.58025   0.13107   0.00000  Uiso   1.00
C47    C     0.75933   0.81072   0.57823   0.00000  Uiso   1.00
C48    C     0.89773   0.77526   0.62148   0.00000  Uiso   1.00
C49    C     0.97590   0.72666   0.61000   0.00000  Uiso   1.00
C50    C     0.09957   0.70031   0.65538   0.00000  Uiso   1.00
C51    C     0.30778   0.64192   0.71418   0.00000  Uiso   1.00
C52    C     0.67366   0.76737   0.59416   0.00000  Uiso   1.00
C53    C     0.56342   0.71216   0.55971   0.00000  Uiso   1.00
C54    C     0.49845   0.67918   0.58209   0.00000  Uiso   1.00
C55    C     0.35872   0.60861   0.59847   0.00000  Uiso   1.00
C56    C     0.76185   0.91668   0.58827   0.00000  Uiso   1.00
C57    C     0.72574   0.98701   0.54887   0.00000  Uiso   1.00
C58    C     0.73499   0.07974   0.56629   0.00000  Uiso   1.00
C59    C     0.73221   0.24099   0.57353   0.00000  Uiso   1.00
C60    C     0.83995   0.85034   0.67924   0.00000  Uiso   1.00
C61    C     0.94151   0.79677   0.67634   0.00000  Uiso   1.00
C62    C     0.06510   0.77049   0.72175   0.00000  Uiso   1.00
C63    C     0.14344   0.72186   0.71034   0.00000  Uiso   1.00
C64    C     0.71744   0.78889   0.64902   0.00000  Uiso   1.00
C65    C     0.65261   0.75599   0.67146   0.00000  Uiso   1.00
C66    C     0.54231   0.70073   0.63705   0.00000  Uiso   1.00
C67    C     0.80564   0.93820   0.64314   0.00000  Uiso   1.00
C68    C     0.81494   0.03084   0.66062   0.00000  Uiso   1.00
C69    C     0.77886   0.10129   0.62125   0.00000  Uiso   1.00
H70    H     0.72524   0.79397   0.53552   0.00000  Uiso   1.00
H71    H     0.94197   0.71001   0.56754   0.00000  Uiso   1.00
H72    H     0.52955   0.69553   0.51725   0.00000  Uiso   1.00
H73    H     0.69186   0.97033   0.50642   0.00000  Uiso   1.00
H74    H     0.20156   0.62639   0.62723   0.00000  Uiso   1.00
H75    H     0.33192   0.59587   0.52120   0.00000  Uiso   1.00
H76    H     0.67416   0.17536   0.49834   0.00000  Uiso   1.00
H77    H     0.87404   0.86709   0.72195   0.00000  Uiso   1.00
H78    H     0.09896   0.78715   0.76420   0.00000  Uiso   1.00
H79    H     0.68652   0.77266   0.71392   0.00000  Uiso   1.00
H80    H     0.84883   0.04746   0.70308   0.00000  Uiso   1.00
H81    H     0.32897   0.68900   0.78685   0.00000  Uiso   1.00
H82    H     0.45932   0.65847   0.68081   0.00000  Uiso   1.00
H83    H     0.80157   0.23796   0.65796   0.00000  Uiso   1.00
O84    O     0.41052   0.60376   0.73146   0.00000  Uiso   1.00
O85    O     0.26956   0.56373   0.59235   0.00000  Uiso   1.00
O86    O     0.71859   0.32400   0.56237   0.00000  Uiso   1.00
N87    N     0.20069   0.65212   0.65899   0.00000  Uiso   1.00
N88    N     0.38764   0.62357   0.55987   0.00000  Uiso   1.00
N89    N     0.70757   0.16533   0.53850   0.00000  Uiso   1.00
N90    N     0.26925   0.68580   0.74488   0.00000  Uiso   1.00
N91    N     0.45619   0.65725   0.64576   0.00000  Uiso   1.00
N92    N     0.77613   0.19902   0.62439   0.00000  Uiso   1.00
C93    C     0.77936   0.70648   0.44093   0.00000  Uiso   1.00
C94    C     0.64164   0.66735   0.40047   0.00000  Uiso   1.00
C95    C     0.56506   0.62643   0.41529   0.00000  Uiso   1.00
C96    C     0.44178   0.59498   0.37208   0.00000  Uiso   1.00
C97    C     0.23480   0.53279   0.31778   0.00000  Uiso   1.00
C98    C     0.86541   0.65464   0.42784   0.00000  Uiso   1.00
C99    C     0.97700   0.60303   0.46568   0.00000  Uiso   1.00
C100   C     0.04210   0.56089   0.44550   0.00000  Uiso   1.00
C101   C     0.18259   0.47902   0.43370   0.00000  Uiso   1.00
C102   C     0.77430   0.80903   0.42382   0.00000  Uiso   1.00
C103   C     0.80930   0.88725   0.45828   0.00000  Uiso   1.00
C104   C     0.79771   0.97510   0.43472   0.00000  Uiso   1.00
C105   C     0.79673   0.13295   0.41667   0.00000  Uiso   1.00
C106   C     0.69658   0.72341   0.33783   0.00000  Uiso   1.00
C107   C     0.59668   0.67655   0.34447   0.00000  Uiso   1.00
C108   C     0.47347   0.64516   0.30122   0.00000  Uiso   1.00
C109   C     0.39673   0.60420   0.31598   0.00000  Uiso   1.00
C110   C     0.82046   0.66383   0.37184   0.00000  Uiso   1.00
C111   C     0.88541   0.62176   0.35161   0.00000  Uiso   1.00
C112   C     0.99705   0.57010   0.38940   0.00000  Uiso   1.00
C113   C     0.72933   0.81823   0.36782   0.00000  Uiso   1.00
C114   C     0.71770   0.90598   0.34420   0.00000  Uiso   1.00
C115   C     0.75267   0.98431   0.37862   0.00000  Uiso   1.00
H116   H     0.81437   0.69931   0.48453   0.00000  Uiso   1.00
H117   H     0.59990   0.61931   0.45864   0.00000  Uiso   1.00
H118   H     0.01178   0.59593   0.50901   0.00000  Uiso   1.00
H119   H     0.84409   0.88010   0.50161   0.00000  Uiso   1.00
H120   H     0.34231   0.53464   0.40524   0.00000  Uiso   1.00
H121   H     0.21080   0.48537   0.51146   0.00000  Uiso   1.00
H122   H     0.85721   0.08460   0.49585   0.00000  Uiso   1.00
H123   H     0.66157   0.73057   0.29423   0.00000  Uiso   1.00
H124   H     0.43871   0.65229   0.25789   0.00000  Uiso   1.00
H125   H     0.85059   0.62890   0.30827   0.00000  Uiso   1.00
H126   H     0.68291   0.91307   0.30087   0.00000  Uiso   1.00
H127   H     0.21148   0.56140   0.24230   0.00000  Uiso   1.00
H128   H     0.07998   0.51213   0.34853   0.00000  Uiso   1.00
H129   H     0.72639   0.11136   0.33292   0.00000  Uiso   1.00
O130   O     0.13306   0.49593   0.30330   0.00000  Uiso   1.00
O131   O     0.27250   0.43130   0.44267   0.00000  Uiso   1.00
O132   O     0.80860   0.21748   0.42219   0.00000  Uiso   1.00
N133   N     0.34209   0.55170   0.37188   0.00000  Uiso   1.00
N134   N     0.15407   0.50562   0.47119   0.00000  Uiso   1.00
N135   N     0.82353   0.06585   0.45660   0.00000  Uiso   1.00
N136   N     0.27169   0.56610   0.28420   0.00000  Uiso   1.00
N137   N     0.08367   0.52002   0.38351   0.00000  Uiso   1.00
N138   N     0.75313   0.08025   0.36893   0.00000  Uiso   1.00
C139   C     0.24067   0.31072   0.92177   0.00000  Uiso   1.00
C140   C     0.10227   0.27526   0.87852   0.00000  Uiso   1.00
C141   C     0.02410   0.22666   0.89000   0.00000  Uiso   1.00
C142   C     0.90043   0.20031   0.84462   0.00000  Uiso   1.00
C143   C     0.69222   0.14192   0.78582   0.00000  Uiso   1.00
C144   C     0.32634   0.26737   0.90584   0.00000  Uiso   1.00
C145   C     0.43658   0.21216   0.94029   0.00000  Uiso   1.00
C146   C     0.50155   0.17918   0.91791   0.00000  Uiso   1.00
C147   C     0.64128   0.10861   0.90153   0.00000  Uiso   1.00
C148   C     0.23815   0.41668   0.91173   0.00000  Uiso   1.00
C149   C     0.27426   0.48701   0.95113   0.00000  Uiso   1.00
C150   C     0.26501   0.57974   0.93371   0.00000  Uiso   1.00
C151   C     0.26779   0.74099   0.92647   0.00000  Uiso   1.00
C152   C     0.16005   0.35034   0.82076   0.00000  Uiso   1.00
C153   C     0.05849   0.29677   0.82366   0.00000  Uiso   1.00
C154   C     0.93490   0.27049   0.77825   0.00000  Uiso   1.00
C155   C     0.85656   0.22186   0.78966   0.00000  Uiso   1.00
C156   C     0.28256   0.28889   0.85098   0.00000  Uiso   1.00
C157   C     0.34739   0.25599   0.82854   0.00000  Uiso   1.00
C158   C     0.45769   0.20073   0.86295   0.00000  Uiso   1.00
C159   C     0.19436   0.43820   0.85686   0.00000  Uiso   1.00
C160   C     0.18506   0.53084   0.83938   0.00000  Uiso   1.00
C161   C     0.22114   0.60129   0.87875   0.00000  Uiso   1.00
H162   H     0.27476   0.29397   0.96448   0.00000  Uiso   1.00
H163   H     0.05803   0.21001   0.93246   0.00000  Uiso   1.00
H164   H     0.47045   0.19553   0.98275   0.00000  Uiso   1.00
H165   H     0.30814   0.47033   0.99358   0.00000  Uiso   1.00
H166   H     0.79844   0.12639   0.87277   0.00000  Uiso   1.00
H167   H     0.66808   0.09587   0.97880   0.00000  Uiso   1.00
H168   H     0.32584   0.67536   0.00166   0.00000  Uiso   1.00
H169   H     0.12596   0.36709   0.77805   0.00000  Uiso   1.00
H170   H     0.90104   0.28715   0.73580   0.00000  Uiso   1.00
H171   H     0.31348   0.27266   0.78608   0.00000  Uiso   1.00
H172   H     0.15117   0.54746   0.79692   0.00000  Uiso   1.00
H173   H     0.67103   0.18900   0.71315   0.00000  Uiso   1.00
H174   H     0.54068   0.15847   0.81919   0.00000  Uiso   1.00
H175   H     0.19843   0.73796   0.84204   0.00000  Uiso   1.00
O176   O     0.58948   0.10376   0.76854   0.00000  Uiso   1.00
O177   O     0.73044   0.06373   0.90765   0.00000  Uiso   1.00
O178   O     0.28141   0.82400   0.93763   0.00000  Uiso   1.00
N179   N     0.79931   0.15212   0.84101   0.00000  Uiso   1.00
N180   N     0.61236   0.12357   0.94013   0.00000  Uiso   1.00
N181   N     0.29243   0.66533   0.96150   0.00000  Uiso   1.00
N182   N     0.73075   0.18580   0.75512   0.00000  Uiso   1.00
N183   N     0.54381   0.15725   0.85424   0.00000  Uiso   1.00
N184   N     0.22387   0.69902   0.87561   0.00000  Uiso   1.00
C185   C     0.77936   0.79352   0.94093   0.00000  Uiso   1.00
C186   C     0.64164   0.83265   0.90047   0.00000  Uiso   1.00
C187   C     0.56506   0.87357   0.91529   0.00000  Uiso   1.00
C188   C     0.44178   0.90502   0.87208   0.00000  Uiso   1.00
C189   C     0.23480   0.96721   0.81778   0.00000  Uiso   1.00
C190   C     0.86541   0.84536   0.92784   0.00000  Uiso   1.00
C191   C     0.97700   0.89697   0.96568   0.00000  Uiso   1.00
C192   C     0.04210   0.93911   0.94550   0.00000  Uiso   1.00
C193   C     0.18259   0.02098   0.93370   0.00000  Uiso   1.00
C194   C     0.77430   0.69097   0.92382   0.00000  Uiso   1.00
C195   C     0.80930   0.61275   0.95828   0.00000  Uiso   1.00
C196   C     0.79771   0.52490   0.93472   0.00000  Uiso   1.00
C197   C     0.79673   0.36705   0.91667   0.00000  Uiso   1.00
C198   C     0.69658   0.77659   0.83783   0.00000  Uiso   1.00
C199   C     0.59668   0.82345   0.84447   0.00000  Uiso   1.00
C200   C     0.47347   0.85484   0.80122   0.00000  Uiso   1.00
C201   C     0.39673   0.89580   0.81598   0.00000  Uiso   1.00
C202   C     0.82046   0.83617   0.87184   0.00000  Uiso   1.00
C203   C     0.88541   0.87824   0.85161   0.00000  Uiso   1.00
C204   C     0.99705   0.92990   0.88940   0.00000  Uiso   1.00
C205   C     0.72933   0.68177   0.86782   0.00000  Uiso   1.00
C206   C     0.71770   0.59402   0.84420   0.00000  Uiso   1.00
C207   C     0.75267   0.51569   0.87862   0.00000  Uiso   1.00
H208   H     0.81437   0.80069   0.98453   0.00000  Uiso   1.00
H209   H     0.59990   0.88069   0.95864   0.00000  Uiso   1.00
H210   H     0.01178   0.90407   0.00901   0.00000  Uiso   1.00
H211   H     0.84409   0.61990   0.00161   0.00000  Uiso   1.00
H212   H     0.34231   0.96536   0.90524   0.00000  Uiso   1.00
H213   H     0.21080   0.01463   0.01146   0.00000  Uiso   1.00
H214   H     0.85721   0.41540   0.99585   0.00000  Uiso   1.00
H215   H     0.66157   0.76943   0.79423   0.00000  Uiso   1.00
H216   H     0.43871   0.84771   0.75789   0.00000  Uiso   1.00
H217   H     0.85059   0.87110   0.80827   0.00000  Uiso   1.00
H218   H     0.68291   0.58693   0.80087   0.00000  Uiso   1.00
H219   H     0.21148   0.93860   0.74230   0.00000  Uiso   1.00
H220   H     0.07998   0.98787   0.84853   0.00000  Uiso   1.00
H221   H     0.72639   0.38864   0.83292   0.00000  Uiso   1.00
O222   O     0.13306   0.00407   0.80330   0.00000  Uiso   1.00
O223   O     0.27250   0.06870   0.94267   0.00000  Uiso   1.00
O224   O     0.80860   0.28252   0.92219   0.00000  Uiso   1.00
N225   N     0.34209   0.94830   0.87188   0.00000  Uiso   1.00
N226   N     0.15407   0.99438   0.97119   0.00000  Uiso   1.00
N227   N     0.82353   0.43415   0.95660   0.00000  Uiso   1.00
N228   N     0.27169   0.93390   0.78420   0.00000  Uiso   1.00
N229   N     0.08367   0.97998   0.88351   0.00000  Uiso   1.00
N230   N     0.75313   0.41975   0.86893   0.00000  Uiso   1.00
C231   C     0.24067   0.18928   0.42177   0.00000  Uiso   1.00
C232   C     0.10227   0.22474   0.37852   0.00000  Uiso   1.00
C233   C     0.02410   0.27334   0.39000   0.00000  Uiso   1.00
C234   C     0.90043   0.29969   0.34462   0.00000  Uiso   1.00
C235   C     0.69222   0.35808   0.28582   0.00000  Uiso   1.00
C236   C     0.32634   0.23263   0.40584   0.00000  Uiso   1.00
C237   C     0.43658   0.28784   0.44029   0.00000  Uiso   1.00
C238   C     0.50155   0.32082   0.41791   0.00000  Uiso   1.00
C239   C     0.64128   0.39139   0.40153   0.00000  Uiso   1.00
C240   C     0.23815   0.08332   0.41173   0.00000  Uiso   1.00
C241   C     0.27426   0.01299   0.45113   0.00000  Uiso   1.00
C242   C     0.26501   0.92026   0.43371   0.00000  Uiso   1.00
C243   C     0.26779   0.75901   0.42647   0.00000  Uiso   1.00
C244   C     0.16005   0.14966   0.32076   0.00000  Uiso   1.00
C245   C     0.05849   0.20323   0.32366   0.00000  Uiso   1.00
C246   C     0.93490   0.22951   0.27825   0.00000  Uiso   1.00
C247   C     0.85656   0.27814   0.28966   0.00000  Uiso   1.00
C248   C     0.28256   0.21111   0.35098   0.00000  Uiso   1.00
C249   C     0.34739   0.24401   0.32854   0.00000  Uiso   1.00
C250   C     0.45769   0.29927   0.36295   0.00000  Uiso   1.00
C251   C     0.19436   0.06180   0.35686   0.00000  Uiso   1.00
C252   C     0.18506   0.96916   0.33938   0.00000  Uiso   1.00
C253   C     0.22114   0.89871   0.37875   0.00000  Uiso   1.00
H254   H     0.27476   0.20603   0.46448   0.00000  Uiso   1.00
H255   H     0.05803   0.28999   0.43246   0.00000  Uiso   1.00
H256   H     0.47045   0.30447   0.48275   0.00000  Uiso   1.00
H257   H     0.30814   0.02967   0.49358   0.00000  Uiso   1.00
H258   H     0.79844   0.37361   0.37277   0.00000  Uiso   1.00
H259   H     0.66808   0.40413   0.47880   0.00000  Uiso   1.00
H260   H     0.32584   0.82464   0.50166   0.00000  Uiso   1.00
H261   H     0.12596   0.13291   0.27805   0.00000  Uiso   1.00
H262   H     0.90104   0.21285   0.23580   0.00000  Uiso   1.00
H263   H     0.31348   0.22734   0.28608   0.00000  Uiso   1.00
H264   H     0.15117   0.95254   0.29692   0.00000  Uiso   1.00
H265   H     0.67103   0.31100   0.21315   0.00000  Uiso   1.00
H266   H     0.54068   0.34153   0.31919   0.00000  Uiso   1.00
H267   H     0.19843   0.76204   0.34204   0.00000  Uiso   1.00
O268   O     0.58948   0.39624   0.26854   0.00000  Uiso   1.00
O269   O     0.73044   0.43627   0.40765   0.00000  Uiso   1.00
O270   O     0.28141   0.67600   0.43763   0.00000  Uiso   1.00
N271   N     0.79931   0.34788   0.34101   0.00000  Uiso   1.00
N272   N     0.61236   0.37643   0.44013   0.00000  Uiso   1.00
N273   N     0.29243   0.83467   0.46150   0.00000  Uiso   1.00
N274   N     0.73075   0.31420   0.25512   0.00000  Uiso   1.00
N275   N     0.54381   0.34275   0.35424   0.00000  Uiso   1.00
N276   N     0.22387   0.80098   0.37561   0.00000  Uiso   1.00
C277   C     0.22064   0.29352   0.55907   0.00000  Uiso   1.00
C278   C     0.35836   0.33265   0.59953   0.00000  Uiso   1.00
C279   C     0.43494   0.37357   0.58471   0.00000  Uiso   1.00
C280   C     0.55822   0.40502   0.62792   0.00000  Uiso   1.00
C281   C     0.76520   0.46721   0.68222   0.00000  Uiso   1.00
C282   C     0.13459   0.34536   0.57216   0.00000  Uiso   1.00
C283   C     0.02300   0.39697   0.53432   0.00000  Uiso   1.00
C284   C     0.95790   0.43911   0.55450   0.00000  Uiso   1.00
C285   C     0.81741   0.52098   0.56630   0.00000  Uiso   1.00
C286   C     0.22570   0.19097   0.57618   0.00000  Uiso   1.00
C287   C     0.19070   0.11275   0.54172   0.00000  Uiso   1.00
C288   C     0.20229   0.02490   0.56528   0.00000  Uiso   1.00
C289   C     0.20327   0.86705   0.58333   0.00000  Uiso   1.00
C290   C     0.30342   0.27659   0.66217   0.00000  Uiso   1.00
C291   C     0.40332   0.32345   0.65553   0.00000  Uiso   1.00
C292   C     0.52653   0.35484   0.69878   0.00000  Uiso   1.00
C293   C     0.60327   0.39580   0.68402   0.00000  Uiso   1.00
C294   C     0.17954   0.33617   0.62816   0.00000  Uiso   1.00
C295   C     0.11459   0.37824   0.64839   0.00000  Uiso   1.00
C296   C     0.00295   0.42990   0.61060   0.00000  Uiso   1.00
C297   C     0.27067   0.18177   0.63218   0.00000  Uiso   1.00
C298   C     0.28230   0.09402   0.65580   0.00000  Uiso   1.00
C299   C     0.24733   0.01569   0.62138   0.00000  Uiso   1.00
H300   H     0.18563   0.30069   0.51547   0.00000  Uiso   1.00
H301   H     0.40010   0.38069   0.54136   0.00000  Uiso   1.00
H302   H     0.98822   0.40407   0.49099   0.00000  Uiso   1.00
H303   H     0.15591   0.11990   0.49839   0.00000  Uiso   1.00
H304   H     0.65769   0.46536   0.59476   0.00000  Uiso   1.00
H305   H     0.78920   0.51463   0.48854   0.00000  Uiso   1.00
H306   H     0.14279   0.91540   0.50415   0.00000  Uiso   1.00
H307   H     0.33843   0.26943   0.70577   0.00000  Uiso   1.00
H308   H     0.56129   0.34771   0.74211   0.00000  Uiso   1.00
H309   H     0.14941   0.37110   0.69173   0.00000  Uiso   1.00
H310   H     0.31709   0.08693   0.69913   0.00000  Uiso   1.00
H311   H     0.78852   0.43860   0.75770   0.00000  Uiso   1.00
H312   H     0.92002   0.48787   0.65147   0.00000  Uiso   1.00
H313   H     0.27361   0.88864   0.66708   0.00000  Uiso   1.00
O314   O     0.86694   0.50407   0.69670   0.00000  Uiso   1.00
O315   O     0.72750   0.56870   0.55733   0.00000  Uiso   1.00
O316   O     0.19140   0.78252   0.57781   0.00000  Uiso   1.00
N317   N     0.65791   0.44830   0.62812   0.00000  Uiso   1.00
N318   N     0.84593   0.49438   0.52881   0.00000  Uiso   1.00
N319   N     0.17647   0.93415   0.54340   0.00000  Uiso   1.00
N320   N     0.72831   0.43390   0.71580   0.00000  Uiso   1.00
N321   N     0.91633   0.47998   0.61649   0.00000  Uiso   1.00
N322   N     0.24687   0.91975   0.63107   0.00000  Uiso   1.00
C323   C     0.75933   0.68928   0.07823   0.00000  Uiso   1.00
C324   C     0.89773   0.72474   0.12148   0.00000  Uiso   1.00
C325   C     0.97590   0.77334   0.11000   0.00000  Uiso   1.00
C326   C     0.09957   0.79969   0.15538   0.00000  Uiso   1.00
C327   C     0.30778   0.85808   0.21418   0.00000  Uiso   1.00
C328   C     0.67366   0.73263   0.09416   0.00000  Uiso   1.00
C329   C     0.56342   0.78784   0.05971   0.00000  Uiso   1.00
C330   C     0.49845   0.82082   0.08209   0.00000  Uiso   1.00
C331   C     0.35872   0.89139   0.09847   0.00000  Uiso   1.00
C332   C     0.76185   0.58332   0.08827   0.00000  Uiso   1.00
C333   C     0.72574   0.51299   0.04887   0.00000  Uiso   1.00
C334   C     0.73499   0.42026   0.06629   0.00000  Uiso   1.00
C335   C     0.73221   0.25901   0.07353   0.00000  Uiso   1.00
C336   C     0.83995   0.64966   0.17924   0.00000  Uiso   1.00
C337   C     0.94151   0.70323   0.17634   0.00000  Uiso   1.00
C338   C     0.06510   0.72951   0.22175   0.00000  Uiso   1.00
C339   C     0.14344   0.77814   0.21034   0.00000  Uiso   1.00
C340   C     0.71744   0.71111   0.14902   0.00000  Uiso   1.00
C341   C     0.65261   0.74401   0.17146   0.00000  Uiso   1.00
C342   C     0.54231   0.79927   0.13705   0.00000  Uiso   1.00
C343   C     0.80564   0.56180   0.14314   0.00000  Uiso   1.00
C344   C     0.81494   0.46916   0.16062   0.00000  Uiso   1.00
C345   C     0.77886   0.39871   0.12125   0.00000  Uiso   1.00
H346   H     0.72524   0.70603   0.03552   0.00000  Uiso   1.00
H347   H     0.94197   0.78999   0.06754   0.00000  Uiso   1.00
H348   H     0.52955   0.80447   0.01725   0.00000  Uiso   1.00
H349   H     0.69186   0.52967   0.00642   0.00000  Uiso   1.00
H350   H     0.20156   0.87361   0.12723   0.00000  Uiso   1.00
H351   H     0.33192   0.90413   0.02120   0.00000  Uiso   1.00
H352   H     0.67416   0.32464   0.99834   0.00000  Uiso   1.00
H353   H     0.87404   0.63291   0.22195   0.00000  Uiso   1.00
H354   H     0.09896   0.71285   0.26420   0.00000  Uiso   1.00
H355   H     0.68652   0.72734   0.21392   0.00000  Uiso   1.00
H356   H     0.84883   0.45254   0.20308   0.00000  Uiso   1.00
H357   H     0.32897   0.81100   0.28685   0.00000  Uiso   1.00
H358   H     0.45932   0.84153   0.18081   0.00000  Uiso   1.00
H359   H     0.80157   0.26204   0.15796   0.00000  Uiso   1.00
O360   O     0.41052   0.89624   0.23146   0.00000  Uiso   1.00
O361   O     0.26956   0.93627   0.09235   0.00000  Uiso   1.00
O362   O     0.71859   0.17600   0.06237   0.00000  Uiso   1.00
N363   N     0.20069   0.84788   0.15899   0.00000  Uiso   1.00
N364   N     0.38764   0.87643   0.05987   0.00000  Uiso   1.00
N365   N     0.70757   0.33467   0.03850   0.00000  Uiso   1.00
N366   N     0.26925   0.81420   0.24488   0.00000  Uiso   1.00
N367   N     0.45619   0.84275   0.14576   0.00000  Uiso   1.00
N368   N     0.77613   0.30098   0.12439   0.00000  Uiso   1.00
