data_job_05117
_audit_creation_date              2018-12-19
_audit_creation_method            'Materials Studio'
_symmetry_space_group_name_H-M    'P1'
_symmetry_Int_Tables_number       1
_symmetry_cell_setting            triclinic
loop_
_symmetry_equiv_pos_as_xyz
  x,y,z
_cell_length_a                    10.9615
_cell_length_b                    25.3536
_cell_length_c                    12.4728
_cell_angle_alpha                 90.0000
_cell_angle_beta                  114.5940
_cell_angle_gamma                 90.0000
loop_
_atom_site_label
_atom_site_type_symbol
_atom_site_fract_x
_atom_site_fract_y
_atom_site_fract_z
_atom_site_U_iso_or_equiv
_atom_site_adp_type
_atom_site_occupancy
C1     C     0.70992   0.64564   0.70931   0.00000  Uiso   1.00
C2     C     0.61983   0.61790   0.59521   0.00000  Uiso   1.00
C3     C     0.66198   0.59459   0.51577   0.00000  Uiso   1.00
C4     C     0.56403   0.57124   0.41661   0.00000  Uiso   1.00
C5     C     0.44469   0.52819   0.24229   0.00000  Uiso   1.00
C6     C     0.65305   0.70112   0.70134   0.00000  Uiso   1.00
C7     C     0.72316   0.74777   0.71115   0.00000  Uiso   1.00
C8     C     0.65317   0.79448   0.70135   0.00000  Uiso   1.00
C9     C     0.58545   0.88063   0.69189   0.00000  Uiso   1.00
C10    C     0.68629   0.61791   0.80749   0.00000  Uiso   1.00
C11    C     0.78435   0.59461   0.90658   0.00000  Uiso   1.00
C12    C     0.74234   0.57127   0.98617   0.00000  Uiso   1.00
C13    C     0.72623   0.52822   0.14153   0.00000  Uiso   1.00
C14    C     0.46099   0.64565   0.67447   0.00000  Uiso   1.00
C15    C     0.48461   0.61791   0.57629   0.00000  Uiso   1.00
C16    C     0.38656   0.59459   0.47722   0.00000  Uiso   1.00
C17    C     0.42857   0.57124   0.39765   0.00000  Uiso   1.00
C18    C     0.51785   0.70113   0.68242   0.00000  Uiso   1.00
C19    C     0.44774   0.74778   0.67260   0.00000  Uiso   1.00
C20    C     0.51772   0.79449   0.68239   0.00000  Uiso   1.00
C21    C     0.55108   0.61791   0.78857   0.00000  Uiso   1.00
C22    C     0.50892   0.59461   0.86803   0.00000  Uiso   1.00
C23    C     0.60689   0.57127   0.96721   0.00000  Uiso   1.00
H24    H     0.81519   0.64565   0.72405   0.00000  Uiso   1.00
H25    H     0.76663   0.59460   0.53045   0.00000  Uiso   1.00
H26    H     0.82780   0.74776   0.72581   0.00000  Uiso   1.00
H27    H     0.88897   0.59462   0.92120   0.00000  Uiso   1.00
H28    H     0.65316   0.53802   0.30744   0.00000  Uiso   1.00
H29    H     0.78214   0.86097   0.71941   0.00000  Uiso   1.00
H30    H     0.91114   0.53804   0.13144   0.00000  Uiso   1.00
H31    H     0.35571   0.64565   0.65973   0.00000  Uiso   1.00
H32    H     0.28194   0.59459   0.46260   0.00000  Uiso   1.00
H33    H     0.34311   0.74776   0.65796   0.00000  Uiso   1.00
H34    H     0.40428   0.59462   0.85335   0.00000  Uiso   1.00
H35    H     0.25976   0.53802   0.25237   0.00000  Uiso   1.00
H36    H     0.38875   0.86097   0.66435   0.00000  Uiso   1.00
H37    H     0.51775   0.53804   0.07637   0.00000  Uiso   1.00
O38    O     0.41621   0.50445   0.15136   0.00000  Uiso   1.00
O39    O     0.58545   0.92815   0.69188   0.00000  Uiso   1.00
O40    O     0.75469   0.50447   0.23244   0.00000  Uiso   1.00
N41    N     0.57070   0.54501   0.32154   0.00000  Uiso   1.00
N42    N     0.69129   0.84696   0.70669   0.00000  Uiso   1.00
N43    N     0.81190   0.54506   0.09192   0.00000  Uiso   1.00
N44    N     0.35902   0.54501   0.29191   0.00000  Uiso   1.00
N45    N     0.47961   0.84696   0.67706   0.00000  Uiso   1.00
N46    N     0.60022   0.54505   0.06229   0.00000  Uiso   1.00
C47    C     0.20992   0.14564   0.70931   0.00000  Uiso   1.00
C48    C     0.11983   0.11790   0.59521   0.00000  Uiso   1.00
C49    C     0.16198   0.09459   0.51577   0.00000  Uiso   1.00
C50    C     0.06403   0.07124   0.41661   0.00000  Uiso   1.00
C51    C     0.94469   0.02819   0.24229   0.00000  Uiso   1.00
C52    C     0.15305   0.20112   0.70134   0.00000  Uiso   1.00
C53    C     0.22316   0.24777   0.71115   0.00000  Uiso   1.00
C54    C     0.15317   0.29448   0.70135   0.00000  Uiso   1.00
C55    C     0.08545   0.38063   0.69189   0.00000  Uiso   1.00
C56    C     0.18629   0.11791   0.80749   0.00000  Uiso   1.00
C57    C     0.28435   0.09461   0.90658   0.00000  Uiso   1.00
C58    C     0.24234   0.07127   0.98617   0.00000  Uiso   1.00
C59    C     0.22623   0.02822   0.14153   0.00000  Uiso   1.00
C60    C     0.96099   0.14565   0.67447   0.00000  Uiso   1.00
C61    C     0.98461   0.11791   0.57629   0.00000  Uiso   1.00
C62    C     0.88656   0.09459   0.47722   0.00000  Uiso   1.00
C63    C     0.92857   0.07124   0.39765   0.00000  Uiso   1.00
C64    C     0.01785   0.20113   0.68242   0.00000  Uiso   1.00
C65    C     0.94774   0.24778   0.67260   0.00000  Uiso   1.00
C66    C     0.01772   0.29449   0.68239   0.00000  Uiso   1.00
C67    C     0.05108   0.11791   0.78857   0.00000  Uiso   1.00
C68    C     0.00892   0.09461   0.86803   0.00000  Uiso   1.00
C69    C     0.10689   0.07127   0.96721   0.00000  Uiso   1.00
H70    H     0.31519   0.14565   0.72405   0.00000  Uiso   1.00
H71    H     0.26663   0.09460   0.53045   0.00000  Uiso   1.00
H72    H     0.32780   0.24776   0.72581   0.00000  Uiso   1.00
H73    H     0.38897   0.09462   0.92120   0.00000  Uiso   1.00
H74    H     0.15316   0.03802   0.30744   0.00000  Uiso   1.00
H75    H     0.28214   0.36097   0.71941   0.00000  Uiso   1.00
H76    H     0.41114   0.03804   0.13144   0.00000  Uiso   1.00
H77    H     0.85571   0.14565   0.65973   0.00000  Uiso   1.00
H78    H     0.78194   0.09459   0.46260   0.00000  Uiso   1.00
H79    H     0.84311   0.24776   0.65796   0.00000  Uiso   1.00
H80    H     0.90428   0.09462   0.85335   0.00000  Uiso   1.00
H81    H     0.75976   0.03802   0.25237   0.00000  Uiso   1.00
H82    H     0.88875   0.36097   0.66435   0.00000  Uiso   1.00
H83    H     0.01775   0.03804   0.07637   0.00000  Uiso   1.00
O84    O     0.91621   0.00445   0.15136   0.00000  Uiso   1.00
O85    O     0.08545   0.42815   0.69188   0.00000  Uiso   1.00
O86    O     0.25469   0.00447   0.23244   0.00000  Uiso   1.00
N87    N     0.07070   0.04501   0.32154   0.00000  Uiso   1.00
N88    N     0.19129   0.34696   0.70669   0.00000  Uiso   1.00
N89    N     0.31190   0.04506   0.09192   0.00000  Uiso   1.00
N90    N     0.85902   0.04501   0.29191   0.00000  Uiso   1.00
N91    N     0.97961   0.34696   0.67706   0.00000  Uiso   1.00
N92    N     0.10022   0.04505   0.06229   0.00000  Uiso   1.00
C93    C     0.70992   0.35436   0.20931   0.00000  Uiso   1.00
C94    C     0.61983   0.38210   0.09521   0.00000  Uiso   1.00
C95    C     0.66198   0.40541   0.01577   0.00000  Uiso   1.00
C96    C     0.56403   0.42876   0.91661   0.00000  Uiso   1.00
C97    C     0.44469   0.47181   0.74229   0.00000  Uiso   1.00
C98    C     0.65305   0.29888   0.20134   0.00000  Uiso   1.00
C99    C     0.72316   0.25223   0.21115   0.00000  Uiso   1.00
C100   C     0.65317   0.20552   0.20135   0.00000  Uiso   1.00
C101   C     0.58545   0.11937   0.19189   0.00000  Uiso   1.00
C102   C     0.68629   0.38209   0.30749   0.00000  Uiso   1.00
C103   C     0.78435   0.40539   0.40658   0.00000  Uiso   1.00
C104   C     0.74234   0.42873   0.48617   0.00000  Uiso   1.00
C105   C     0.72623   0.47178   0.64153   0.00000  Uiso   1.00
C106   C     0.46099   0.35435   0.17447   0.00000  Uiso   1.00
C107   C     0.48461   0.38209   0.07629   0.00000  Uiso   1.00
C108   C     0.38656   0.40541   0.97722   0.00000  Uiso   1.00
C109   C     0.42857   0.42876   0.89765   0.00000  Uiso   1.00
C110   C     0.51785   0.29887   0.18242   0.00000  Uiso   1.00
C111   C     0.44774   0.25222   0.17260   0.00000  Uiso   1.00
C112   C     0.51772   0.20551   0.18239   0.00000  Uiso   1.00
C113   C     0.55108   0.38209   0.28857   0.00000  Uiso   1.00
C114   C     0.50892   0.40539   0.36803   0.00000  Uiso   1.00
C115   C     0.60689   0.42873   0.46721   0.00000  Uiso   1.00
H116   H     0.81519   0.35435   0.22405   0.00000  Uiso   1.00
H117   H     0.76663   0.40540   0.03045   0.00000  Uiso   1.00
H118   H     0.82780   0.25224   0.22581   0.00000  Uiso   1.00
H119   H     0.88897   0.40538   0.42120   0.00000  Uiso   1.00
H120   H     0.65316   0.46198   0.80744   0.00000  Uiso   1.00
H121   H     0.78214   0.13903   0.21941   0.00000  Uiso   1.00
H122   H     0.91114   0.46196   0.63144   0.00000  Uiso   1.00
H123   H     0.35571   0.35435   0.15973   0.00000  Uiso   1.00
H124   H     0.28194   0.40541   0.96260   0.00000  Uiso   1.00
H125   H     0.34311   0.25224   0.15796   0.00000  Uiso   1.00
H126   H     0.40428   0.40538   0.35335   0.00000  Uiso   1.00
H127   H     0.25976   0.46198   0.75237   0.00000  Uiso   1.00
H128   H     0.38875   0.13903   0.16435   0.00000  Uiso   1.00
H129   H     0.51775   0.46196   0.57637   0.00000  Uiso   1.00
O130   O     0.41621   0.49555   0.65136   0.00000  Uiso   1.00
O131   O     0.58545   0.07185   0.19188   0.00000  Uiso   1.00
O132   O     0.75469   0.49553   0.73244   0.00000  Uiso   1.00
N133   N     0.57070   0.45499   0.82154   0.00000  Uiso   1.00
N134   N     0.69129   0.15304   0.20669   0.00000  Uiso   1.00
N135   N     0.81190   0.45494   0.59192   0.00000  Uiso   1.00
N136   N     0.35902   0.45499   0.79191   0.00000  Uiso   1.00
N137   N     0.47961   0.15304   0.17706   0.00000  Uiso   1.00
N138   N     0.60022   0.45495   0.56229   0.00000  Uiso   1.00
C139   C     0.20992   0.85436   0.20931   0.00000  Uiso   1.00
C140   C     0.11983   0.88210   0.09521   0.00000  Uiso   1.00
C141   C     0.16198   0.90541   0.01577   0.00000  Uiso   1.00
C142   C     0.06403   0.92876   0.91661   0.00000  Uiso   1.00
C143   C     0.94469   0.97181   0.74229   0.00000  Uiso   1.00
C144   C     0.15305   0.79888   0.20134   0.00000  Uiso   1.00
C145   C     0.22316   0.75223   0.21115   0.00000  Uiso   1.00
C146   C     0.15317   0.70552   0.20135   0.00000  Uiso   1.00
C147   C     0.08545   0.61937   0.19189   0.00000  Uiso   1.00
C148   C     0.18629   0.88209   0.30749   0.00000  Uiso   1.00
C149   C     0.28435   0.90539   0.40658   0.00000  Uiso   1.00
C150   C     0.24234   0.92873   0.48617   0.00000  Uiso   1.00
C151   C     0.22623   0.97178   0.64153   0.00000  Uiso   1.00
C152   C     0.96099   0.85435   0.17447   0.00000  Uiso   1.00
C153   C     0.98461   0.88209   0.07629   0.00000  Uiso   1.00
C154   C     0.88656   0.90541   0.97722   0.00000  Uiso   1.00
C155   C     0.92857   0.92876   0.89765   0.00000  Uiso   1.00
C156   C     0.01785   0.79887   0.18242   0.00000  Uiso   1.00
C157   C     0.94774   0.75222   0.17260   0.00000  Uiso   1.00
C158   C     0.01772   0.70551   0.18239   0.00000  Uiso   1.00
C159   C     0.05108   0.88209   0.28857   0.00000  Uiso   1.00
C160   C     0.00892   0.90539   0.36803   0.00000  Uiso   1.00
C161   C     0.10689   0.92873   0.46721   0.00000  Uiso   1.00
H162   H     0.31519   0.85435   0.22405   0.00000  Uiso   1.00
H163   H     0.26663   0.90540   0.03045   0.00000  Uiso   1.00
H164   H     0.32780   0.75224   0.22581   0.00000  Uiso   1.00
H165   H     0.38897   0.90538   0.42120   0.00000  Uiso   1.00
H166   H     0.15316   0.96198   0.80744   0.00000  Uiso   1.00
H167   H     0.28214   0.63903   0.21941   0.00000  Uiso   1.00
H168   H     0.41114   0.96196   0.63144   0.00000  Uiso   1.00
H169   H     0.85571   0.85435   0.15973   0.00000  Uiso   1.00
H170   H     0.78194   0.90541   0.96260   0.00000  Uiso   1.00
H171   H     0.84311   0.75224   0.15796   0.00000  Uiso   1.00
H172   H     0.90428   0.90538   0.35335   0.00000  Uiso   1.00
H173   H     0.75976   0.96198   0.75237   0.00000  Uiso   1.00
H174   H     0.88875   0.63903   0.16435   0.00000  Uiso   1.00
H175   H     0.01775   0.96196   0.57637   0.00000  Uiso   1.00
O176   O     0.91621   0.99555   0.65136   0.00000  Uiso   1.00
O177   O     0.08545   0.57185   0.19188   0.00000  Uiso   1.00
O178   O     0.25469   0.99553   0.73244   0.00000  Uiso   1.00
N179   N     0.07070   0.95499   0.82154   0.00000  Uiso   1.00
N180   N     0.19129   0.65304   0.20669   0.00000  Uiso   1.00
N181   N     0.31190   0.95494   0.59192   0.00000  Uiso   1.00
N182   N     0.85902   0.95499   0.79191   0.00000  Uiso   1.00
N183   N     0.97961   0.65304   0.17706   0.00000  Uiso   1.00
N184   N     0.10022   0.95495   0.56229   0.00000  Uiso   1.00
