data_job_06694
_audit_creation_date              2018-12-19
_audit_creation_method            'Materials Studio'
_symmetry_space_group_name_H-M    'P1'
_symmetry_Int_Tables_number       1
_symmetry_cell_setting            triclinic
loop_
_symmetry_equiv_pos_as_xyz
  x,y,z
_cell_length_a                    20.1434
_cell_length_b                    20.4953
_cell_length_c                    21.1419
_cell_angle_alpha                 99.6638
_cell_angle_beta                  109.2837
_cell_angle_gamma                 99.0553
loop_
_atom_site_label
_atom_site_type_symbol
_atom_site_fract_x
_atom_site_fract_y
_atom_site_fract_z
_atom_site_U_iso_or_equiv
_atom_site_adp_type
_atom_site_occupancy
C1     C     0.87429   0.31715   0.46976   0.00000  Uiso   1.00
C2     C     0.89196   0.37443   0.43615   0.00000  Uiso   1.00
C3     C     0.92553   0.37149   0.38835   0.00000  Uiso   1.00
C4     C     0.93691   0.42929   0.36373   0.00000  Uiso   1.00
C5     C     0.96764   0.50933   0.30815   0.00000  Uiso   1.00
C6     C     0.91065   0.34643   0.54736   0.00000  Uiso   1.00
C7     C     0.95993   0.31993   0.59306   0.00000  Uiso   1.00
C8     C     0.98704   0.35417   0.66205   0.00000  Uiso   1.00
C9     C     0.04675   0.39070   0.77914   0.00000  Uiso   1.00
C10    C     0.79320   0.30453   0.45406   0.00000  Uiso   1.00
C11    C     0.74372   0.24281   0.42133   0.00000  Uiso   1.00
C12    C     0.67194   0.24176   0.41179   0.00000  Uiso   1.00
C13    C     0.54929   0.21325   0.38402   0.00000  Uiso   1.00
C14    C     0.83479   0.42504   0.51102   0.00000  Uiso   1.00
C15    C     0.87051   0.43303   0.45856   0.00000  Uiso   1.00
C16    C     0.88183   0.49085   0.43400   0.00000  Uiso   1.00
C17    C     0.91542   0.48800   0.38618   0.00000  Uiso   1.00
C18    C     0.88920   0.40502   0.56977   0.00000  Uiso   1.00
C19    C     0.91624   0.43930   0.63871   0.00000  Uiso   1.00
C20    C     0.96555   0.41287   0.68451   0.00000  Uiso   1.00
C21    C     0.77174   0.36313   0.47647   0.00000  Uiso   1.00
C22    C     0.70003   0.36218   0.46698   0.00000  Uiso   1.00
C23    C     0.65045   0.30047   0.43425   0.00000  Uiso   1.00
H24    H     0.89099   0.27153   0.45232   0.00000  Uiso   1.00
H25    H     0.94213   0.32613   0.37102   0.00000  Uiso   1.00
H26    H     0.97652   0.27458   0.57570   0.00000  Uiso   1.00
H27    H     0.76034   0.19747   0.40400   0.00000  Uiso   1.00
H28    H     0.98938   0.41252   0.29080   0.00000  Uiso   1.00
H29    H     0.06188   0.30381   0.72237   0.00000  Uiso   1.00
H30    H     0.60603   0.14121   0.36031   0.00000  Uiso   1.00
H31    H     0.81809   0.47066   0.52848   0.00000  Uiso   1.00
H32    H     0.86523   0.53619   0.45136   0.00000  Uiso   1.00
H33    H     0.89962   0.48464   0.65604   0.00000  Uiso   1.00
H34    H     0.68345   0.40754   0.48434   0.00000  Uiso   1.00
H35    H     0.92698   0.58302   0.35600   0.00000  Uiso   1.00
H36    H     0.99947   0.47431   0.78758   0.00000  Uiso   1.00
H37    H     0.54362   0.31171   0.42551   0.00000  Uiso   1.00
O38    O     0.99053   0.53729   0.27131   0.00000  Uiso   1.00
O39    O     0.08563   0.39466   0.83753   0.00000  Uiso   1.00
O40    O     0.48756   0.18134   0.36250   0.00000  Uiso   1.00
N41    N     0.96822   0.44365   0.31672   0.00000  Uiso   1.00
N42    N     0.03600   0.34202   0.72022   0.00000  Uiso   1.00
N43    N     0.60982   0.19000   0.38173   0.00000  Uiso   1.00
N44    N     0.93463   0.53539   0.35180   0.00000  Uiso   1.00
N45    N     0.00242   0.43376   0.75530   0.00000  Uiso   1.00
N46    N     0.57624   0.28174   0.41681   0.00000  Uiso   1.00
C47    C     0.37234   0.10180   0.67885   0.00000  Uiso   1.00
C48    C     0.42586   0.11513   0.75267   0.00000  Uiso   1.00
C49    C     0.48515   0.08655   0.77400   0.00000  Uiso   1.00
C50    C     0.52751   0.10522   0.84379   0.00000  Uiso   1.00
C51    C     0.61308   0.11895   0.95131   0.00000  Uiso   1.00
C52    C     0.29795   0.07662   0.68107   0.00000  Uiso   1.00
C53    C     0.24970   0.01567   0.64219   0.00000  Uiso   1.00
C54    C     0.18439   0.00192   0.65170   0.00000  Uiso   1.00
C55    C     0.07135   0.95588   0.64803   0.00000  Uiso   1.00
C56    C     0.37252   0.17119   0.66175   0.00000  Uiso   1.00
C57    C     0.38695   0.18976   0.60662   0.00000  Uiso   1.00
C58    C     0.38440   0.25564   0.59985   0.00000  Uiso   1.00
C59    C     0.38715   0.35645   0.56618   0.00000  Uiso   1.00
C60    C     0.34214   0.18576   0.76486   0.00000  Uiso   1.00
C61    C     0.40945   0.16073   0.79939   0.00000  Uiso   1.00
C62    C     0.45173   0.17945   0.86916   0.00000  Uiso   1.00
C63    C     0.51108   0.15091   0.89059   0.00000  Uiso   1.00
C64    C     0.28154   0.12222   0.72779   0.00000  Uiso   1.00
C65    C     0.21628   0.10856   0.73735   0.00000  Uiso   1.00
C66    C     0.16795   0.04760   0.69850   0.00000  Uiso   1.00
C67    C     0.35612   0.21680   0.70847   0.00000  Uiso   1.00
C68    C     0.35354   0.28266   0.70178   0.00000  Uiso   1.00
C69    C     0.36797   0.30133   0.64665   0.00000  Uiso   1.00
H70    H     0.38511   0.06630   0.64248   0.00000  Uiso   1.00
H71    H     0.49782   0.05126   0.73783   0.00000  Uiso   1.00
H72    H     0.26241   0.98039   0.60604   0.00000  Uiso   1.00
H73    H     0.39964   0.15446   0.57048   0.00000  Uiso   1.00
H74    H     0.61554   0.05468   0.86416   0.00000  Uiso   1.00
H75    H     0.11914   0.90526   0.58625   0.00000  Uiso   1.00
H76    H     0.40852   0.27232   0.51125   0.00000  Uiso   1.00
H77    H     0.32937   0.22127   0.80124   0.00000  Uiso   1.00
H78    H     0.43903   0.21474   0.90530   0.00000  Uiso   1.00
H79    H     0.20361   0.14386   0.77351   0.00000  Uiso   1.00
H80    H     0.34084   0.31793   0.73795   0.00000  Uiso   1.00
H81    H     0.56781   0.18736   0.00008   0.00000  Uiso   1.00
H82    H     0.07141   0.03794   0.72217   0.00000  Uiso   1.00
H83    H     0.36080   0.40500   0.64718   0.00000  Uiso   1.00
O84    O     0.66480   0.11391   0.99772   0.00000  Uiso   1.00
O85    O     0.01354   0.91788   0.63310   0.00000  Uiso   1.00
O86    O     0.39321   0.39946   0.53471   0.00000  Uiso   1.00
N87    N     0.58927   0.08681   0.88186   0.00000  Uiso   1.00
N88    N     0.12517   0.94711   0.62204   0.00000  Uiso   1.00
N89    N     0.39570   0.29027   0.55192   0.00000  Uiso   1.00
N90    N     0.56359   0.15821   0.95500   0.00000  Uiso   1.00
N91    N     0.09948   0.01850   0.69518   0.00000  Uiso   1.00
N92    N     0.37002   0.36167   0.62506   0.00000  Uiso   1.00
C93    C     0.99327   0.87388   0.96267   0.00000  Uiso   1.00
C94    C     0.95022   0.80217   0.92257   0.00000  Uiso   1.00
C95    C     0.97911   0.74795   0.90460   0.00000  Uiso   1.00
C96    C     0.93067   0.68645   0.86787   0.00000  Uiso   1.00
C97    C     0.87518   0.57617   0.80833   0.00000  Uiso   1.00
C98    C     0.96381   0.92118   0.91741   0.00000  Uiso   1.00
C99    C     0.00413   0.96703   0.89511   0.00000  Uiso   1.00
C100   C     0.96713   0.00572   0.85405   0.00000  Uiso   1.00
C101   C     0.93274   0.08025   0.78653   0.00000  Uiso   1.00
C102   C     0.97161   0.88951   0.02523   0.00000  Uiso   1.00
C103   C     0.01849   0.90874   0.09359   0.00000  Uiso   1.00
C104   C     0.98806   0.92078   0.14331   0.00000  Uiso   1.00
C105   C     0.96579   0.94612   0.24321   0.00000  Uiso   1.00
C106   C     0.85587   0.86108   0.92941   0.00000  Uiso   1.00
C107   C     0.87559   0.79522   0.90450   0.00000  Uiso   1.00
C108   C     0.82709   0.73379   0.86780   0.00000  Uiso   1.00
C109   C     0.85590   0.67948   0.84978   0.00000  Uiso   1.00
C110   C     0.88918   0.91424   0.89934   0.00000  Uiso   1.00
C111   C     0.85211   0.95287   0.85831   0.00000  Uiso   1.00
C112   C     0.89236   0.99876   0.83595   0.00000  Uiso   1.00
C113   C     0.89698   0.88256   0.00717   0.00000  Uiso   1.00
C114   C     0.86647   0.89457   0.05679   0.00000  Uiso   1.00
C115   C     0.91329   0.91381   0.12522   0.00000  Uiso   1.00
H116   H     0.05137   0.87929   0.97673   0.00000  Uiso   1.00
H117   H     0.03687   0.75335   0.91858   0.00000  Uiso   1.00
H118   H     0.06188   0.97240   0.90910   0.00000  Uiso   1.00
H119   H     0.07624   0.91411   0.10755   0.00000  Uiso   1.00
H120   H     0.98787   0.61066   0.84612   0.00000  Uiso   1.00
H121   H     0.04063   0.07256   0.82615   0.00000  Uiso   1.00
H122   H     0.07091   0.94965   0.24463   0.00000  Uiso   1.00
H123   H     0.79776   0.85567   0.91534   0.00000  Uiso   1.00
H124   H     0.76934   0.72843   0.85383   0.00000  Uiso   1.00
H125   H     0.79436   0.94748   0.84434   0.00000  Uiso   1.00
H126   H     0.80872   0.88919   0.04280   0.00000  Uiso   1.00
H127   H     0.77074   0.59043   0.79356   0.00000  Uiso   1.00
H128   H     0.82349   0.05234   0.77359   0.00000  Uiso   1.00
H129   H     0.85377   0.92942   0.19207   0.00000  Uiso   1.00
O130   O     0.86519   0.51727   0.78046   0.00000  Uiso   1.00
O131   O     0.93440   0.12328   0.75427   0.00000  Uiso   1.00
O132   O     0.97412   0.96202   0.30330   0.00000  Uiso   1.00
N133   N     0.94067   0.62336   0.84221   0.00000  Uiso   1.00
N134   N     0.98999   0.05520   0.82353   0.00000  Uiso   1.00
N135   N     0.01830   0.94030   0.21476   0.00000  Uiso   1.00
N136   N     0.82383   0.61247   0.81393   0.00000  Uiso   1.00
N137   N     0.87315   0.04432   0.79524   0.00000  Uiso   1.00
N138   N     0.90146   0.92942   0.18648   0.00000  Uiso   1.00
C139   C     0.16828   0.21932   0.42979   0.00000  Uiso   1.00
C140   C     0.16967   0.27337   0.48964   0.00000  Uiso   1.00
C141   C     0.18487   0.26705   0.55701   0.00000  Uiso   1.00
C142   C     0.18342   0.32227   0.60420   0.00000  Uiso   1.00
C143   C     0.18805   0.39718   0.70011   0.00000  Uiso   1.00
C144   C     0.22137   0.25286   0.40100   0.00000  Uiso   1.00
C145   C     0.28003   0.22927   0.39384   0.00000  Uiso   1.00
C146   C     0.32210   0.26722   0.36641   0.00000  Uiso   1.00
C147   C     0.40696   0.31025   0.32466   0.00000  Uiso   1.00
C148   C     0.09353   0.20664   0.37406   0.00000  Uiso   1.00
C149   C     0.04471   0.14419   0.34424   0.00000  Uiso   1.00
C150   C     0.97915   0.14322   0.29411   0.00000  Uiso   1.00
C151   C     0.86553   0.11449   0.21054   0.00000  Uiso   1.00
C152   C     0.13868   0.32863   0.39379   0.00000  Uiso   1.00
C153   C     0.15359   0.33275   0.47008   0.00000  Uiso   1.00
C154   C     0.15211   0.38799   0.51718   0.00000  Uiso   1.00
C155   C     0.16730   0.38175   0.58461   0.00000  Uiso   1.00
C156   C     0.20529   0.31223   0.38145   0.00000  Uiso   1.00
C157   C     0.24727   0.35021   0.35401   0.00000  Uiso   1.00
C158   C     0.30599   0.32670   0.34682   0.00000  Uiso   1.00
C159   C     0.07745   0.26601   0.35451   0.00000  Uiso   1.00
C160   C     0.01195   0.26514   0.30441   0.00000  Uiso   1.00
C161   C     0.96304   0.20270   0.27452   0.00000  Uiso   1.00
H162   H     0.18081   0.17309   0.44501   0.00000  Uiso   1.00
H163   H     0.19732   0.22109   0.57213   0.00000  Uiso   1.00
H164   H     0.29246   0.18332   0.40897   0.00000  Uiso   1.00
H165   H     0.05718   0.09826   0.35939   0.00000  Uiso   1.00
H166   H     0.20855   0.30050   0.70443   0.00000  Uiso   1.00
H167   H     0.40915   0.22085   0.36040   0.00000  Uiso   1.00
H168   H     0.91301   0.04147   0.25583   0.00000  Uiso   1.00
H169   H     0.12616   0.37486   0.37856   0.00000  Uiso   1.00
H170   H     0.13966   0.43393   0.50203   0.00000  Uiso   1.00
H171   H     0.23481   0.39616   0.33888   0.00000  Uiso   1.00
H172   H     0.99953   0.31109   0.28929   0.00000  Uiso   1.00
H173   H     0.16176   0.47325   0.64755   0.00000  Uiso   1.00
H174   H     0.36236   0.39359   0.30351   0.00000  Uiso   1.00
H175   H     0.86622   0.21421   0.19894   0.00000  Uiso   1.00
O176   O     0.19505   0.42210   0.75841   0.00000  Uiso   1.00
O177   O     0.45822   0.31759   0.30704   0.00000  Uiso   1.00
O178   O     0.80730   0.08225   0.16985   0.00000  Uiso   1.00
N179   N     0.19567   0.33305   0.67410   0.00000  Uiso   1.00
N180   N     0.38323   0.25858   0.35246   0.00000  Uiso   1.00
N181   N     0.91939   0.09087   0.25468   0.00000  Uiso   1.00
N182   N     0.17049   0.42600   0.64349   0.00000  Uiso   1.00
N183   N     0.35805   0.35153   0.32184   0.00000  Uiso   1.00
N184   N     0.89421   0.18382   0.22407   0.00000  Uiso   1.00
C185   C     0.66261   0.94533   0.74148   0.00000  Uiso   1.00
C186   C     0.70258   0.93121   0.69255   0.00000  Uiso   1.00
C187   C     0.74254   0.88200   0.69135   0.00000  Uiso   1.00
C188   C     0.77499   0.87710   0.64266   0.00000  Uiso   1.00
C189   C     0.83814   0.84863   0.57363   0.00000  Uiso   1.00
C190   C     0.58415   0.93845   0.69584   0.00000  Uiso   1.00
C191   C     0.52454   0.89534   0.69743   0.00000  Uiso   1.00
C192   C     0.45730   0.89655   0.65151   0.00000  Uiso   1.00
C193   C     0.33658   0.87937   0.58763   0.00000  Uiso   1.00
C194   C     0.69188   0.02033   0.77824   0.00000  Uiso   1.00
C195   C     0.72283   0.04607   0.84911   0.00000  Uiso   1.00
C196   C     0.74628   0.11621   0.87257   0.00000  Uiso   1.00
C197   C     0.79282   0.22615   0.93662   0.00000  Uiso   1.00
C198   C     0.64918   0.02412   0.65712   0.00000  Uiso   1.00
C199   C     0.69529   0.97400   0.64673   0.00000  Uiso   1.00
C200   C     0.72769   0.96918   0.59802   0.00000  Uiso   1.00
C201   C     0.76769   0.91997   0.59676   0.00000  Uiso   1.00
C202   C     0.57686   0.98124   0.65002   0.00000  Uiso   1.00
C203   C     0.50969   0.98252   0.60410   0.00000  Uiso   1.00
C204   C     0.44999   0.93942   0.60561   0.00000  Uiso   1.00
C205   C     0.68459   0.06313   0.73242   0.00000  Uiso   1.00
C206   C     0.70798   0.13324   0.75577   0.00000  Uiso   1.00
C207   C     0.73897   0.15908   0.82666   0.00000  Uiso   1.00
H208   H     0.66828   0.91201   0.77715   0.00000  Uiso   1.00
H209   H     0.74817   0.84889   0.72682   0.00000  Uiso   1.00
H210   H     0.53020   0.86223   0.73290   0.00000  Uiso   1.00
H211   H     0.72847   0.01293   0.88455   0.00000  Uiso   1.00
H212   H     0.83350   0.79776   0.65079   0.00000  Uiso   1.00
H213   H     0.37391   0.82592   0.66362   0.00000  Uiso   1.00
H214   H     0.79198   0.14370   0.98342   0.00000  Uiso   1.00
H215   H     0.64350   0.05744   0.62145   0.00000  Uiso   1.00
H216   H     0.72203   0.00230   0.56257   0.00000  Uiso   1.00
H217   H     0.50407   0.01565   0.56865   0.00000  Uiso   1.00
H218   H     0.70233   0.16634   0.72030   0.00000  Uiso   1.00
H219   H     0.81228   0.92227   0.51748   0.00000  Uiso   1.00
H220   H     0.35269   0.95043   0.53031   0.00000  Uiso   1.00
H221   H     0.77077   0.26821   0.85010   0.00000  Uiso   1.00
O222   O     0.87498   0.82110   0.54820   0.00000  Uiso   1.00
O223   O     0.27201   0.85806   0.56504   0.00000  Uiso   1.00
O224   O     0.82052   0.27497   0.98460   0.00000  Uiso   1.00
N225   N     0.81774   0.83464   0.62751   0.00000  Uiso   1.00
N226   N     0.38805   0.86096   0.63949   0.00000  Uiso   1.00
N227   N     0.77890   0.15806   0.93847   0.00000  Uiso   1.00
N228   N     0.80632   0.90164   0.55577   0.00000  Uiso   1.00
N229   N     0.37663   0.92796   0.56776   0.00000  Uiso   1.00
N230   N     0.76748   0.22506   0.86674   0.00000  Uiso   1.00
C231   C     0.40903   0.67400   0.01441   0.00000  Uiso   1.00
C232   C     0.36954   0.59956   0.98391   0.00000  Uiso   1.00
C233   C     0.39460   0.54962   0.95155   0.00000  Uiso   1.00
C234   C     0.35043   0.48457   0.92714   0.00000  Uiso   1.00
C235   C     0.29928   0.37118   0.87863   0.00000  Uiso   1.00
C236   C     0.41589   0.68888   0.08972   0.00000  Uiso   1.00
C237   C     0.47993   0.71406   0.14633   0.00000  Uiso   1.00
C238   C     0.47479   0.72422   0.21099   0.00000  Uiso   1.00
C239   C     0.49561   0.74956   0.32676   0.00000  Uiso   1.00
C240   C     0.35738   0.71525   0.97933   0.00000  Uiso   1.00
C241   C     0.37222   0.76261   0.94314   0.00000  Uiso   1.00
C242   C     0.31780   0.79497   0.91487   0.00000  Uiso   1.00
C243   C     0.24776   0.86125   0.85924   0.00000  Uiso   1.00
C244   C     0.28602   0.64728   0.02859   0.00000  Uiso   1.00
C245   C     0.30272   0.58505   0.99161   0.00000  Uiso   1.00
C246   C     0.25850   0.52006   0.96723   0.00000  Uiso   1.00
C247   C     0.28349   0.47003   0.93485   0.00000  Uiso   1.00
C248   C     0.34908   0.67437   0.09742   0.00000  Uiso   1.00
C249   C     0.34384   0.68450   0.16201   0.00000  Uiso   1.00
C250   C     0.40785   0.70968   0.21870   0.00000  Uiso   1.00
C251   C     0.29056   0.70074   0.98703   0.00000  Uiso   1.00
C252   C     0.23612   0.73304   0.95882   0.00000  Uiso   1.00
C253   C     0.25087   0.78044   0.92259   0.00000  Uiso   1.00
H254   H     0.46105   0.68530   0.00842   0.00000  Uiso   1.00
H255   H     0.44631   0.56087   0.94561   0.00000  Uiso   1.00
H256   H     0.53163   0.72529   0.14036   0.00000  Uiso   1.00
H257   H     0.42393   0.77382   0.93719   0.00000  Uiso   1.00
H258   H     0.40051   0.41651   0.87939   0.00000  Uiso   1.00
H259   H     0.58041   0.76323   0.29002   0.00000  Uiso   1.00
H260   H     0.35330   0.86557   0.86161   0.00000  Uiso   1.00
H261   H     0.23401   0.63599   0.03458   0.00000  Uiso   1.00
H262   H     0.20680   0.50884   0.97320   0.00000  Uiso   1.00
H263   H     0.29213   0.67327   0.16795   0.00000  Uiso   1.00
H264   H     0.18442   0.72180   0.96478   0.00000  Uiso   1.00
H265   H     0.20612   0.37428   0.90179   0.00000  Uiso   1.00
H266   H     0.38602   0.72101   0.31242   0.00000  Uiso   1.00
H267   H     0.15891   0.82334   0.88401   0.00000  Uiso   1.00
O268   O     0.28953   0.31265   0.84976   0.00000  Uiso   1.00
O269   O     0.52555   0.76754   0.38849   0.00000  Uiso   1.00
O270   O     0.22758   0.90180   0.82642   0.00000  Uiso   1.00
N271   N     0.35849   0.42402   0.89307   0.00000  Uiso   1.00
N272   N     0.52669   0.74817   0.27699   0.00000  Uiso   1.00
N273   N     0.31436   0.84387   0.87648   0.00000  Uiso   1.00
N274   N     0.25389   0.40130   0.90512   0.00000  Uiso   1.00
N275   N     0.42209   0.72545   0.28904   0.00000  Uiso   1.00
N276   N     0.20976   0.82115   0.88853   0.00000  Uiso   1.00
C277   C     0.03182   0.84838   0.39171   0.00000  Uiso   1.00
C278   C     0.04002   0.80637   0.44576   0.00000  Uiso   1.00
C279   C     0.00729   0.80988   0.49422   0.00000  Uiso   1.00
C280   C     0.02162   0.76722   0.53916   0.00000  Uiso   1.00
C281   C     0.02742   0.70873   0.62360   0.00000  Uiso   1.00
C282   C     0.00460   0.79738   0.32218   0.00000  Uiso   1.00
C283   C     0.94210   0.79335   0.26673   0.00000  Uiso   1.00
C284   C     0.92661   0.74312   0.20763   0.00000  Uiso   1.00
C285   C     0.87745   0.67072   0.10019   0.00000  Uiso   1.00
C286   C     0.10815   0.88519   0.40280   0.00000  Uiso   1.00
C287   C     0.13270   0.95500   0.41513   0.00000  Uiso   1.00
C288   C     0.20439   0.97870   0.42390   0.00000  Uiso   1.00
C289   C     0.31599   0.04264   0.44164   0.00000  Uiso   1.00
C290   C     0.11546   0.76637   0.38533   0.00000  Uiso   1.00
C291   C     0.08546   0.76182   0.44230   0.00000  Uiso   1.00
C292   C     0.09984   0.71914   0.48717   0.00000  Uiso   1.00
C293   C     0.06714   0.72259   0.53570   0.00000  Uiso   1.00
C294   C     0.05003   0.75284   0.31872   0.00000  Uiso   1.00
C295   C     0.03464   0.70261   0.25968   0.00000  Uiso   1.00
C296   C     0.97213   0.69850   0.20416   0.00000  Uiso   1.00
C297   C     0.15358   0.84065   0.39935   0.00000  Uiso   1.00
C298   C     0.22524   0.86426   0.40809   0.00000  Uiso   1.00
C299   C     0.24990   0.93408   0.42043   0.00000  Uiso   1.00
H300   H     0.99645   0.88306   0.39440   0.00000  Uiso   1.00
H301   H     0.97213   0.84436   0.49688   0.00000  Uiso   1.00
H302   H     0.90695   0.82783   0.26942   0.00000  Uiso   1.00
H303   H     0.09752   0.98945   0.41780   0.00000  Uiso   1.00
H304   H     0.96519   0.78178   0.60896   0.00000  Uiso   1.00
H305   H     0.82777   0.74695   0.12935   0.00000  Uiso   1.00
H306   H     0.22962   0.08776   0.44223   0.00000  Uiso   1.00
H307   H     0.15084   0.73169   0.38264   0.00000  Uiso   1.00
H308   H     0.13500   0.68468   0.48448   0.00000  Uiso   1.00
H309   H     0.06981   0.66815   0.25702   0.00000  Uiso   1.00
H310   H     0.26038   0.82977   0.40540   0.00000  Uiso   1.00
H311   H     0.09738   0.65218   0.59890   0.00000  Uiso   1.00
H312   H     0.95995   0.61735   0.11928   0.00000  Uiso   1.00
H313   H     0.36181   0.95816   0.43217   0.00000  Uiso   1.00
O314   O     0.01806   0.68877   0.67112   0.00000  Uiso   1.00
O315   O     0.83777   0.64308   0.04188   0.00000  Uiso   1.00
O316   O     0.36500   0.09021   0.45239   0.00000  Uiso   1.00
N317   N     0.99849   0.75774   0.59263   0.00000  Uiso   1.00
N318   N     0.87000   0.72517   0.14422   0.00000  Uiso   1.00
N319   N     0.24569   0.04380   0.43672   0.00000  Uiso   1.00
N320   N     0.06961   0.68800   0.58721   0.00000  Uiso   1.00
N321   N     0.94113   0.65543   0.13880   0.00000  Uiso   1.00
N322   N     0.31682   0.97406   0.43131   0.00000  Uiso   1.00
C323   C     0.40430   0.10609   0.16264   0.00000  Uiso   1.00
C324   C     0.35303   0.09086   0.08771   0.00000  Uiso   1.00
C325   C     0.29876   0.12414   0.06176   0.00000  Uiso   1.00
C326   C     0.25770   0.10268   0.99173   0.00000  Uiso   1.00
C327   C     0.17616   0.08709   0.88184   0.00000  Uiso   1.00
C328   C     0.48044   0.12142   0.16155   0.00000  Uiso   1.00
C329   C     0.53329   0.18041   0.19769   0.00000  Uiso   1.00
C330   C     0.59949   0.18467   0.18983   0.00000  Uiso   1.00
C331   C     0.71577   0.21651   0.19462   0.00000  Uiso   1.00
C332   C     0.39560   0.03932   0.18506   0.00000  Uiso   1.00
C333   C     0.37714   0.02928   0.24097   0.00000  Uiso   1.00
C334   C     0.37193   0.96442   0.25291   0.00000  Uiso   1.00
C335   C     0.35649   0.86878   0.29419   0.00000  Uiso   1.00
C336   C     0.42789   0.00878   0.08443   0.00000  Uiso   1.00
C337   C     0.36585   0.03800   0.04523   0.00000  Uiso   1.00
C338   C     0.32485   0.01648   0.97522   0.00000  Uiso   1.00
C339   C     0.27053   0.04973   0.94917   0.00000  Uiso   1.00
C340   C     0.49325   0.06857   0.11907   0.00000  Uiso   1.00
C341   C     0.55938   0.07275   0.11116   0.00000  Uiso   1.00
C342   C     0.61232   0.13172   0.14727   0.00000  Uiso   1.00
C343   C     0.40841   0.98647   0.14257   0.00000  Uiso   1.00
C344   C     0.40323   0.92161   0.15443   0.00000  Uiso   1.00
C345   C     0.38476   0.91147   0.21035   0.00000  Uiso   1.00
H346   H     0.39433   0.14724   0.19572   0.00000  Uiso   1.00
H347   H     0.28887   0.16505   0.09465   0.00000  Uiso   1.00
H348   H     0.52336   0.22130   0.23057   0.00000  Uiso   1.00
H349   H     0.36724   0.07019   0.27384   0.00000  Uiso   1.00
H350   H     0.17760   0.16150   0.96386   0.00000  Uiso   1.00
H351   H     0.67206   0.28009   0.25047   0.00000  Uiso   1.00
H352   H     0.34284   0.96145   0.34171   0.00000  Uiso   1.00
H353   H     0.43786   0.96763   0.05135   0.00000  Uiso   1.00
H354   H     0.33478   0.97558   0.94236   0.00000  Uiso   1.00
H355   H     0.56928   0.03183   0.07828   0.00000  Uiso   1.00
H356   H     0.41315   0.88072   0.12154   0.00000  Uiso   1.00
H357   H     0.21487   0.00772   0.84026   0.00000  Uiso   1.00
H358   H     0.70933   0.12631   0.12687   0.00000  Uiso   1.00
H359   H     0.38010   0.80767   0.21810   0.00000  Uiso   1.00
O360   O     0.12766   0.09309   0.83296   0.00000  Uiso   1.00
O361   O     0.77637   0.24868   0.20899   0.00000  Uiso   1.00
O362   O     0.34443   0.83063   0.32869   0.00000  Uiso   1.00
N363   N     0.20051   0.12420   0.94973   0.00000  Uiso   1.00
N364   N     0.66280   0.23509   0.21768   0.00000  Uiso   1.00
N365   N     0.35502   0.93719   0.30300   0.00000  Uiso   1.00
N366   N     0.22056   0.04146   0.88322   0.00000  Uiso   1.00
N367   N     0.68285   0.15234   0.15117   0.00000  Uiso   1.00
N368   N     0.37507   0.85444   0.23648   0.00000  Uiso   1.00
C369   C     0.60345   0.29752   0.62348   0.00000  Uiso   1.00
C370   C     0.61780   0.36681   0.60700   0.00000  Uiso   1.00
C371   C     0.56810   0.39220   0.56048   0.00000  Uiso   1.00
C372   C     0.59177   0.45671   0.55274   0.00000  Uiso   1.00
C373   C     0.60328   0.55858   0.52147   0.00000  Uiso   1.00
C374   C     0.62207   0.31153   0.70123   0.00000  Uiso   1.00
C375   C     0.57595   0.29043   0.73393   0.00000  Uiso   1.00
C376   C     0.60321   0.30839   0.80551   0.00000  Uiso   1.00
C377   C     0.62136   0.32439   0.92054   0.00000  Uiso   1.00
C378   C     0.65983   0.26178   0.60948   0.00000  Uiso   1.00
C379   C     0.64547   0.19884   0.56506   0.00000  Uiso   1.00
C380   C     0.70453   0.17490   0.55941   0.00000  Uiso   1.00
C381   C     0.78130   0.11366   0.53200   0.00000  Uiso   1.00
C382   C     0.73386   0.36692   0.69245   0.00000  Uiso   1.00
C383   C     0.68864   0.40451   0.64446   0.00000  Uiso   1.00
C384   C     0.71239   0.46899   0.63679   0.00000  Uiso   1.00
C385   C     0.66273   0.49447   0.59026   0.00000  Uiso   1.00
C386   C     0.69290   0.34922   0.73869   0.00000  Uiso   1.00
C387   C     0.72024   0.36721   0.81024   0.00000  Uiso   1.00
C388   C     0.67418   0.34615   0.84304   0.00000  Uiso   1.00
C389   C     0.73066   0.29947   0.64694   0.00000  Uiso   1.00
C390   C     0.78975   0.27563   0.64137   0.00000  Uiso   1.00
C391   C     0.77549   0.21266   0.59695   0.00000  Uiso   1.00
H392   H     0.54830   0.26817   0.59432   0.00000  Uiso   1.00
H393   H     0.51329   0.36302   0.53150   0.00000  Uiso   1.00
H394   H     0.52114   0.26125   0.70493   0.00000  Uiso   1.00
H395   H     0.59065   0.16968   0.53608   0.00000  Uiso   1.00
H396   H     0.50570   0.48481   0.47840   0.00000  Uiso   1.00
H397   H     0.52227   0.27021   0.84408   0.00000  Uiso   1.00
H398   H     0.66884   0.07711   0.48803   0.00000  Uiso   1.00
H399   H     0.78901   0.39627   0.72162   0.00000  Uiso   1.00
H400   H     0.76721   0.49815   0.66579   0.00000  Uiso   1.00
H401   H     0.77506   0.39638   0.83921   0.00000  Uiso   1.00
H402   H     0.84456   0.30481   0.67037   0.00000  Uiso   1.00
H403   H     0.71179   0.59449   0.58739   0.00000  Uiso   1.00
H404   H     0.72836   0.37988   0.95307   0.00000  Uiso   1.00
H405   H     0.87492   0.18679   0.59702   0.00000  Uiso   1.00
O406   O     0.59006   0.60436   0.49389   0.00000  Uiso   1.00
O407   O     0.61180   0.32281   0.97364   0.00000  Uiso   1.00
O408   O     0.80408   0.06947   0.50652   0.00000  Uiso   1.00
N409   N     0.55720   0.49663   0.51170   0.00000  Uiso   1.00
N410   N     0.57269   0.29601   0.85359   0.00000  Uiso   1.00
N411   N     0.70971   0.11547   0.52073   0.00000  Uiso   1.00
N412   N     0.66810   0.55565   0.57035   0.00000  Uiso   1.00
N413   N     0.68358   0.35502   0.91224   0.00000  Uiso   1.00
N414   N     0.82061   0.17448   0.57938   0.00000  Uiso   1.00
C415   C     0.31331   0.71609   0.70323   0.00000  Uiso   1.00
C416   C     0.32209   0.66524   0.64670   0.00000  Uiso   1.00
C417   C     0.30270   0.66777   0.57793   0.00000  Uiso   1.00
C418   C     0.31510   0.61647   0.53431   0.00000  Uiso   1.00
C419   C     0.32403   0.54539   0.44282   0.00000  Uiso   1.00
C420   C     0.26823   0.67464   0.73450   0.00000  Uiso   1.00
C421   C     0.20356   0.68507   0.73955   0.00000  Uiso   1.00
C422   C     0.17062   0.64168   0.76985   0.00000  Uiso   1.00
C423   C     0.09596   0.58522   0.81470   0.00000  Uiso   1.00
C424   C     0.38832   0.74287   0.75923   0.00000  Uiso   1.00
C425   C     0.42463   0.81068   0.78510   0.00000  Uiso   1.00
C426   C     0.49280   0.82473   0.83623   0.00000  Uiso   1.00
C427   C     0.60460   0.87421   0.91949   0.00000  Uiso   1.00
C428   C     0.36981   0.62047   0.74807   0.00000  Uiso   1.00
C429   C     0.35278   0.61331   0.67106   0.00000  Uiso   1.00
C430   C     0.36522   0.56198   0.62753   0.00000  Uiso   1.00
C431   C     0.34585   0.56444   0.55871   0.00000  Uiso   1.00
C432   C     0.29892   0.62270   0.75885   0.00000  Uiso   1.00
C433   C     0.26607   0.57928   0.78915   0.00000  Uiso   1.00
C434   C     0.20137   0.58965   0.79425   0.00000  Uiso   1.00
C435   C     0.41902   0.69093   0.78358   0.00000  Uiso   1.00
C436   C     0.48714   0.70488   0.83470   0.00000  Uiso   1.00
C437   C     0.52354   0.77270   0.86063   0.00000  Uiso   1.00
H438   H     0.28941   0.75652   0.68428   0.00000  Uiso   1.00
H439   H     0.27895   0.70797   0.55910   0.00000  Uiso   1.00
H440   H     0.17983   0.72527   0.72070   0.00000  Uiso   1.00
H441   H     0.40086   0.85085   0.76624   0.00000  Uiso   1.00
H442   H     0.28085   0.63122   0.43106   0.00000  Uiso   1.00
H443   H     0.07186   0.66772   0.77182   0.00000  Uiso   1.00
H444   H     0.53795   0.93253   0.86785   0.00000  Uiso   1.00
H445   H     0.39371   0.58004   0.76703   0.00000  Uiso   1.00
H446   H     0.38897   0.52180   0.64640   0.00000  Uiso   1.00
H447   H     0.28984   0.53910   0.80800   0.00000  Uiso   1.00
H448   H     0.51087   0.66468   0.85353   0.00000  Uiso   1.00
H449   H     0.37014   0.48012   0.50191   0.00000  Uiso   1.00
H450   H     0.16115   0.51662   0.84268   0.00000  Uiso   1.00
H451   H     0.62724   0.78142   0.93870   0.00000  Uiso   1.00
O452   O     0.32047   0.52053   0.38562   0.00000  Uiso   1.00
O453   O     0.04630   0.56843   0.83271   0.00000  Uiso   1.00
O454   O     0.65779   0.91585   0.95868   0.00000  Uiso   1.00
N455   N     0.30253   0.60366   0.46429   0.00000  Uiso   1.00
N456   N     0.10713   0.63778   0.78288   0.00000  Uiso   1.00
N457   N     0.54288   0.88535   0.87266   0.00000  Uiso   1.00
N458   N     0.35058   0.52235   0.50241   0.00000  Uiso   1.00
N459   N     0.15518   0.55647   0.82100   0.00000  Uiso   1.00
N460   N     0.59093   0.80404   0.91079   0.00000  Uiso   1.00
C461   C     0.73992   0.99689   0.30650   0.00000  Uiso   1.00
C462   C     0.68590   0.97715   0.34019   0.00000  Uiso   1.00
C463   C     0.63266   0.01082   0.34553   0.00000  Uiso   1.00
C464   C     0.58865   0.98479   0.37821   0.00000  Uiso   1.00
C465   C     0.50342   0.96292   0.42655   0.00000  Uiso   1.00
C466   C     0.81460   0.00654   0.36140   0.00000  Uiso   1.00
C467   C     0.86958   0.06493   0.38455   0.00000  Uiso   1.00
C468   C     0.93392   0.06364   0.43509   0.00000  Uiso   1.00
C469   C     0.04854   0.08739   0.51631   0.00000  Uiso   1.00
C470   C     0.73059   0.93425   0.25120   0.00000  Uiso   1.00
C471   C     0.71494   0.93186   0.18169   0.00000  Uiso   1.00
C472   C     0.70856   0.86970   0.13945   0.00000  Uiso   1.00
C473   C     0.69273   0.78122   0.04956   0.00000  Uiso   1.00
C474   C     0.75644   0.89077   0.35507   0.00000  Uiso   1.00
C475   C     0.69487   0.91951   0.36657   0.00000  Uiso   1.00
C476   C     0.65094   0.89341   0.39926   0.00000  Uiso   1.00
C477   C     0.59764   0.92704   0.40464   0.00000  Uiso   1.00
C478   C     0.82358   0.94891   0.38778   0.00000  Uiso   1.00
C479   C     0.88786   0.94752   0.43829   0.00000  Uiso   1.00
C480   C     0.94292   0.00589   0.46152   0.00000  Uiso   1.00
C481   C     0.73956   0.87661   0.27758   0.00000  Uiso   1.00
C482   C     0.73321   0.81445   0.23543   0.00000  Uiso   1.00
C483   C     0.71756   0.81196   0.16588   0.00000  Uiso   1.00
H484   H     0.73294   0.04177   0.28597   0.00000  Uiso   1.00
H485   H     0.62573   0.05543   0.32511   0.00000  Uiso   1.00
H486   H     0.86262   0.10953   0.36413   0.00000  Uiso   1.00
H487   H     0.70800   0.97648   0.16130   0.00000  Uiso   1.00
H488   H     0.51085   0.04518   0.38016   0.00000  Uiso   1.00
H489   H     0.01035   0.15924   0.46242   0.00000  Uiso   1.00
H490   H     0.68430   0.87867   0.03471   0.00000  Uiso   1.00
H491   H     0.76343   0.84589   0.37561   0.00000  Uiso   1.00
H492   H     0.65789   0.84880   0.41967   0.00000  Uiso   1.00
H493   H     0.89478   0.90291   0.45869   0.00000  Uiso   1.00
H494   H     0.74016   0.76985   0.25586   0.00000  Uiso   1.00
H495   H     0.53696   0.87747   0.45692   0.00000  Uiso   1.00
H496   H     0.03646   0.99153   0.53917   0.00000  Uiso   1.00
H497   H     0.71041   0.71097   0.11147   0.00000  Uiso   1.00
O498   O     0.45394   0.96679   0.44593   0.00000  Uiso   1.00
O499   O     0.10927   0.11643   0.55383   0.00000  Uiso   1.00
O500   O     0.68150   0.74833   0.99270   0.00000  Uiso   1.00
N501   N     0.53147   0.00530   0.39217   0.00000  Uiso   1.00
N502   N     0.99847   0.11194   0.46908   0.00000  Uiso   1.00
N503   N     0.69366   0.84964   0.06922   0.00000  Uiso   1.00
N504   N     0.54551   0.91506   0.43347   0.00000  Uiso   1.00
N505   N     0.01251   0.02170   0.51038   0.00000  Uiso   1.00
N506   N     0.70771   0.75940   0.11051   0.00000  Uiso   1.00
C507   C     0.07474   0.27448   0.09504   0.00000  Uiso   1.00
C508   C     0.11214   0.34567   0.14052   0.00000  Uiso   1.00
C509   C     0.07817   0.39329   0.16341   0.00000  Uiso   1.00
C510   C     0.12192   0.45552   0.20457   0.00000  Uiso   1.00
C511   C     0.16859   0.56393   0.27250   0.00000  Uiso   1.00
C512   C     0.09657   0.26988   0.03218   0.00000  Uiso   1.00
C513   C     0.04949   0.25378   0.96397   0.00000  Uiso   1.00
C514   C     0.08014   0.25220   0.91393   0.00000  Uiso   1.00
C515   C     0.10262   0.24290   0.81364   0.00000  Uiso   1.00
C516   C     0.11016   0.22559   0.13461   0.00000  Uiso   1.00
C517   C     0.07451   0.17224   0.15251   0.00000  Uiso   1.00
C518   C     0.11660   0.13336   0.18869   0.00000  Uiso   1.00
C519   C     0.16019   0.05530   0.24744   0.00000  Uiso   1.00
C520   C     0.21287   0.30030   0.12744   0.00000  Uiso   1.00
C521   C     0.18718   0.35969   0.15812   0.00000  Uiso   1.00
C522   C     0.23100   0.42186   0.19926   0.00000  Uiso   1.00
C523   C     0.19709   0.46956   0.22221   0.00000  Uiso   1.00
C524   C     0.17159   0.28390   0.04977   0.00000  Uiso   1.00
C525   C     0.20232   0.28234   0.99982   0.00000  Uiso   1.00
C526   C     0.15530   0.26625   0.93155   0.00000  Uiso   1.00
C527   C     0.18519   0.23962   0.15221   0.00000  Uiso   1.00
C528   C     0.22734   0.20081   0.18836   0.00000  Uiso   1.00
C529   C     0.19177   0.14741   0.20632   0.00000  Uiso   1.00
H530   H     0.01632   0.26356   0.08133   0.00000  Uiso   1.00
H531   H     0.02010   0.38242   0.14977   0.00000  Uiso   1.00
H532   H     0.99143   0.24292   0.95037   0.00000  Uiso   1.00
H533   H     0.01645   0.16140   0.13888   0.00000  Uiso   1.00
H534   H     0.05737   0.52039   0.23340   0.00000  Uiso   1.00
H535   H     0.99692   0.22623   0.81293   0.00000  Uiso   1.00
H536   H     0.04967   0.05432   0.21045   0.00000  Uiso   1.00
H537   H     0.27129   0.31122   0.14114   0.00000  Uiso   1.00
H538   H     0.28906   0.43269   0.21287   0.00000  Uiso   1.00
H539   H     0.26038   0.29319   0.01346   0.00000  Uiso   1.00
H540   H     0.28540   0.21167   0.20197   0.00000  Uiso   1.00
H541   H     0.27567   0.56119   0.28461   0.00000  Uiso   1.00
H542   H     0.21521   0.26703   0.86414   0.00000  Uiso   1.00
H543   H     0.26797   0.09512   0.26166   0.00000  Uiso   1.00
O544   O     0.17361   0.61985   0.30509   0.00000  Uiso   1.00
O545   O     0.09429   0.23391   0.75346   0.00000  Uiso   1.00
O546   O     0.16350   0.00838   0.27499   0.00000  Uiso   1.00
N547   N     0.10631   0.51332   0.23562   0.00000  Uiso   1.00
N548   N     0.04979   0.23830   0.84251   0.00000  Uiso   1.00
N549   N     0.09911   0.07757   0.21414   0.00000  Uiso   1.00
N550   N     0.22377   0.53527   0.26318   0.00000  Uiso   1.00
N551   N     0.16725   0.26026   0.87006   0.00000  Uiso   1.00
N552   N     0.21657   0.09953   0.24169   0.00000  Uiso   1.00
