data_job_01201
_audit_creation_date              2018-12-19
_audit_creation_method            'Materials Studio'
_symmetry_space_group_name_H-M    'P1'
_symmetry_Int_Tables_number       1
_symmetry_cell_setting            triclinic
loop_
_symmetry_equiv_pos_as_xyz
  x,y,z
_cell_length_a                    29.9706
_cell_length_b                    8.8761
_cell_length_c                    21.5544
_cell_angle_alpha                 90.0000
_cell_angle_beta                  90.0000
_cell_angle_gamma                 90.0000
loop_
_atom_site_label
_atom_site_type_symbol
_atom_site_fract_x
_atom_site_fract_y
_atom_site_fract_z
_atom_site_U_iso_or_equiv
_atom_site_adp_type
_atom_site_occupancy
C1     C     0.65079   0.98856   0.37910   0.00000  Uiso   1.00
C2     C     0.60432   0.04122   0.39807   0.00000  Uiso   1.00
C3     C     0.59339   0.18418   0.41924   0.00000  Uiso   1.00
C4     C     0.54899   0.21001   0.43425   0.00000  Uiso   1.00
C5     C     0.48175   0.30897   0.46465   0.00000  Uiso   1.00
C6     C     0.66090   0.85078   0.41895   0.00000  Uiso   1.00
C7     C     0.69755   0.83362   0.45768   0.00000  Uiso   1.00
C8     C     0.70078   0.69912   0.49025   0.00000  Uiso   1.00
C9     C     0.72140   0.50238   0.55304   0.00000  Uiso   1.00
C10    C     0.64644   0.93088   0.31273   0.00000  Uiso   1.00
C11    C     0.67093   0.98104   0.26215   0.00000  Uiso   1.00
C12    C     0.66200   0.91395   0.20530   0.00000  Uiso   1.00
C13    C     0.66016   0.84158   0.10316   0.00000  Uiso   1.00
C14    C     0.59138   0.78018   0.36809   0.00000  Uiso   1.00
C15    C     0.57205   0.92803   0.39209   0.00000  Uiso   1.00
C16    C     0.52766   0.95364   0.40707   0.00000  Uiso   1.00
C17    C     0.51666   0.09663   0.42826   0.00000  Uiso   1.00
C18    C     0.62863   0.73760   0.41298   0.00000  Uiso   1.00
C19    C     0.63181   0.60308   0.44550   0.00000  Uiso   1.00
C20    C     0.66845   0.58573   0.48427   0.00000  Uiso   1.00
C21    C     0.61417   0.81770   0.30676   0.00000  Uiso   1.00
C22    C     0.60520   0.75051   0.24997   0.00000  Uiso   1.00
C23    C     0.62967   0.80056   0.19931   0.00000  Uiso   1.00
H24    H     0.67591   0.07667   0.38375   0.00000  Uiso   1.00
H25    H     0.61837   0.27174   0.42387   0.00000  Uiso   1.00
H26    H     0.72251   0.92123   0.46229   0.00000  Uiso   1.00
H27    H     0.69590   0.06863   0.26679   0.00000  Uiso   1.00
H28    H     0.54035   0.43808   0.46573   0.00000  Uiso   1.00
H29    H     0.75995   0.69899   0.54672   0.00000  Uiso   1.00
H30    H     0.70383   0.00981   0.13448   0.00000  Uiso   1.00
H31    H     0.56625   0.69206   0.36344   0.00000  Uiso   1.00
H32    H     0.50269   0.86603   0.40244   0.00000  Uiso   1.00
H33    H     0.60684   0.51552   0.44086   0.00000  Uiso   1.00
H34    H     0.58022   0.66292   0.24536   0.00000  Uiso   1.00
H35    H     0.44646   0.10880   0.44834   0.00000  Uiso   1.00
H36    H     0.66606   0.36970   0.52933   0.00000  Uiso   1.00
H37    H     0.60994   0.68052   0.11709   0.00000  Uiso   1.00
O38    O     0.45358   0.39481   0.48307   0.00000  Uiso   1.00
O39    O     0.74168   0.42514   0.58933   0.00000  Uiso   1.00
O40    O     0.66805   0.83293   0.04847   0.00000  Uiso   1.00
N41    N     0.52698   0.33672   0.45627   0.00000  Uiso   1.00
N42    N     0.73228   0.64572   0.53201   0.00000  Uiso   1.00
N43    N     0.67982   0.93628   0.14659   0.00000  Uiso   1.00
N44    N     0.47645   0.15953   0.44691   0.00000  Uiso   1.00
N45    N     0.68176   0.46853   0.52265   0.00000  Uiso   1.00
N46    N     0.62930   0.75910   0.13724   0.00000  Uiso   1.00
C47    C     0.84921   0.51144   0.87910   0.00000  Uiso   1.00
C48    C     0.89568   0.45878   0.89807   0.00000  Uiso   1.00
C49    C     0.90661   0.31582   0.91924   0.00000  Uiso   1.00
C50    C     0.95101   0.28999   0.93425   0.00000  Uiso   1.00
C51    C     0.01825   0.19103   0.96465   0.00000  Uiso   1.00
C52    C     0.83910   0.64922   0.91895   0.00000  Uiso   1.00
C53    C     0.80245   0.66638   0.95768   0.00000  Uiso   1.00
C54    C     0.79922   0.80088   0.99025   0.00000  Uiso   1.00
C55    C     0.77860   0.99762   0.05304   0.00000  Uiso   1.00
C56    C     0.85356   0.56912   0.81273   0.00000  Uiso   1.00
C57    C     0.82907   0.51896   0.76215   0.00000  Uiso   1.00
C58    C     0.83800   0.58605   0.70530   0.00000  Uiso   1.00
C59    C     0.83984   0.65842   0.60316   0.00000  Uiso   1.00
C60    C     0.90862   0.71982   0.86809   0.00000  Uiso   1.00
C61    C     0.92795   0.57197   0.89209   0.00000  Uiso   1.00
C62    C     0.97234   0.54636   0.90707   0.00000  Uiso   1.00
C63    C     0.98334   0.40337   0.92826   0.00000  Uiso   1.00
C64    C     0.87137   0.76240   0.91298   0.00000  Uiso   1.00
C65    C     0.86819   0.89692   0.94550   0.00000  Uiso   1.00
C66    C     0.83155   0.91427   0.98427   0.00000  Uiso   1.00
C67    C     0.88583   0.68230   0.80676   0.00000  Uiso   1.00
C68    C     0.89480   0.74949   0.74997   0.00000  Uiso   1.00
C69    C     0.87033   0.69944   0.69931   0.00000  Uiso   1.00
H70    H     0.82409   0.42333   0.88375   0.00000  Uiso   1.00
H71    H     0.88163   0.22826   0.92387   0.00000  Uiso   1.00
H72    H     0.77749   0.57877   0.96229   0.00000  Uiso   1.00
H73    H     0.80410   0.43137   0.76679   0.00000  Uiso   1.00
H74    H     0.95965   0.06192   0.96573   0.00000  Uiso   1.00
H75    H     0.74005   0.80101   0.04672   0.00000  Uiso   1.00
H76    H     0.79617   0.49019   0.63448   0.00000  Uiso   1.00
H77    H     0.93375   0.80794   0.86344   0.00000  Uiso   1.00
H78    H     0.99731   0.63397   0.90244   0.00000  Uiso   1.00
H79    H     0.89316   0.98448   0.94086   0.00000  Uiso   1.00
H80    H     0.91978   0.83708   0.74536   0.00000  Uiso   1.00
H81    H     0.05354   0.39120   0.94834   0.00000  Uiso   1.00
H82    H     0.83394   0.13030   0.02933   0.00000  Uiso   1.00
H83    H     0.89006   0.81948   0.61709   0.00000  Uiso   1.00
O84    O     0.04642   0.10519   0.98307   0.00000  Uiso   1.00
O85    O     0.75832   0.07486   0.08933   0.00000  Uiso   1.00
O86    O     0.83195   0.66707   0.54847   0.00000  Uiso   1.00
N87    N     0.97302   0.16328   0.95627   0.00000  Uiso   1.00
N88    N     0.76772   0.85428   0.03201   0.00000  Uiso   1.00
N89    N     0.82018   0.56372   0.64659   0.00000  Uiso   1.00
N90    N     0.02355   0.34047   0.94691   0.00000  Uiso   1.00
N91    N     0.81824   0.03147   0.02265   0.00000  Uiso   1.00
N92    N     0.87070   0.74090   0.63724   0.00000  Uiso   1.00
C93    C     0.34921   0.98856   0.12090   0.00000  Uiso   1.00
C94    C     0.39568   0.04122   0.10193   0.00000  Uiso   1.00
C95    C     0.40661   0.18418   0.08076   0.00000  Uiso   1.00
C96    C     0.45101   0.21001   0.06575   0.00000  Uiso   1.00
C97    C     0.51825   0.30897   0.03535   0.00000  Uiso   1.00
C98    C     0.33910   0.85078   0.08105   0.00000  Uiso   1.00
C99    C     0.30245   0.83362   0.04232   0.00000  Uiso   1.00
C100   C     0.29922   0.69912   0.00975   0.00000  Uiso   1.00
C101   C     0.27860   0.50238   0.94696   0.00000  Uiso   1.00
C102   C     0.35356   0.93088   0.18727   0.00000  Uiso   1.00
C103   C     0.32907   0.98104   0.23785   0.00000  Uiso   1.00
C104   C     0.33800   0.91395   0.29470   0.00000  Uiso   1.00
C105   C     0.33984   0.84158   0.39684   0.00000  Uiso   1.00
C106   C     0.40862   0.78018   0.13191   0.00000  Uiso   1.00
C107   C     0.42795   0.92803   0.10791   0.00000  Uiso   1.00
C108   C     0.47234   0.95364   0.09293   0.00000  Uiso   1.00
C109   C     0.48334   0.09663   0.07174   0.00000  Uiso   1.00
C110   C     0.37137   0.73760   0.08702   0.00000  Uiso   1.00
C111   C     0.36819   0.60308   0.05450   0.00000  Uiso   1.00
C112   C     0.33155   0.58573   0.01573   0.00000  Uiso   1.00
C113   C     0.38583   0.81770   0.19324   0.00000  Uiso   1.00
C114   C     0.39480   0.75051   0.25003   0.00000  Uiso   1.00
C115   C     0.37033   0.80056   0.30069   0.00000  Uiso   1.00
H116   H     0.32409   0.07667   0.11625   0.00000  Uiso   1.00
H117   H     0.38163   0.27174   0.07613   0.00000  Uiso   1.00
H118   H     0.27749   0.92123   0.03771   0.00000  Uiso   1.00
H119   H     0.30410   0.06863   0.23321   0.00000  Uiso   1.00
H120   H     0.45965   0.43808   0.03427   0.00000  Uiso   1.00
H121   H     0.24005   0.69899   0.95328   0.00000  Uiso   1.00
H122   H     0.29617   0.00981   0.36552   0.00000  Uiso   1.00
H123   H     0.43375   0.69206   0.13656   0.00000  Uiso   1.00
H124   H     0.49731   0.86603   0.09756   0.00000  Uiso   1.00
H125   H     0.39316   0.51552   0.05914   0.00000  Uiso   1.00
H126   H     0.41978   0.66292   0.25464   0.00000  Uiso   1.00
H127   H     0.55354   0.10880   0.05166   0.00000  Uiso   1.00
H128   H     0.33394   0.36970   0.97067   0.00000  Uiso   1.00
H129   H     0.39006   0.68052   0.38291   0.00000  Uiso   1.00
O130   O     0.54642   0.39481   0.01693   0.00000  Uiso   1.00
O131   O     0.25832   0.42514   0.91067   0.00000  Uiso   1.00
O132   O     0.33195   0.83293   0.45153   0.00000  Uiso   1.00
N133   N     0.47302   0.33672   0.04373   0.00000  Uiso   1.00
N134   N     0.26772   0.64572   0.96799   0.00000  Uiso   1.00
N135   N     0.32018   0.93628   0.35341   0.00000  Uiso   1.00
N136   N     0.52355   0.15953   0.05309   0.00000  Uiso   1.00
N137   N     0.31824   0.46853   0.97735   0.00000  Uiso   1.00
N138   N     0.37070   0.75910   0.36276   0.00000  Uiso   1.00
C139   C     0.15079   0.51144   0.62090   0.00000  Uiso   1.00
C140   C     0.10432   0.45878   0.60193   0.00000  Uiso   1.00
C141   C     0.09339   0.31582   0.58076   0.00000  Uiso   1.00
C142   C     0.04899   0.28999   0.56575   0.00000  Uiso   1.00
C143   C     0.98175   0.19103   0.53535   0.00000  Uiso   1.00
C144   C     0.16090   0.64922   0.58105   0.00000  Uiso   1.00
C145   C     0.19755   0.66638   0.54232   0.00000  Uiso   1.00
C146   C     0.20078   0.80088   0.50975   0.00000  Uiso   1.00
C147   C     0.22140   0.99762   0.44696   0.00000  Uiso   1.00
C148   C     0.14644   0.56912   0.68727   0.00000  Uiso   1.00
C149   C     0.17093   0.51896   0.73785   0.00000  Uiso   1.00
C150   C     0.16200   0.58605   0.79470   0.00000  Uiso   1.00
C151   C     0.16016   0.65842   0.89684   0.00000  Uiso   1.00
C152   C     0.09138   0.71982   0.63191   0.00000  Uiso   1.00
C153   C     0.07205   0.57197   0.60791   0.00000  Uiso   1.00
C154   C     0.02766   0.54636   0.59293   0.00000  Uiso   1.00
C155   C     0.01666   0.40337   0.57174   0.00000  Uiso   1.00
C156   C     0.12863   0.76240   0.58702   0.00000  Uiso   1.00
C157   C     0.13181   0.89692   0.55450   0.00000  Uiso   1.00
C158   C     0.16845   0.91427   0.51573   0.00000  Uiso   1.00
C159   C     0.11417   0.68230   0.69324   0.00000  Uiso   1.00
C160   C     0.10520   0.74949   0.75003   0.00000  Uiso   1.00
C161   C     0.12967   0.69944   0.80069   0.00000  Uiso   1.00
H162   H     0.17591   0.42333   0.61625   0.00000  Uiso   1.00
H163   H     0.11837   0.22826   0.57613   0.00000  Uiso   1.00
H164   H     0.22251   0.57877   0.53771   0.00000  Uiso   1.00
H165   H     0.19590   0.43137   0.73321   0.00000  Uiso   1.00
H166   H     0.04035   0.06192   0.53427   0.00000  Uiso   1.00
H167   H     0.25995   0.80101   0.45328   0.00000  Uiso   1.00
H168   H     0.20383   0.49019   0.86552   0.00000  Uiso   1.00
H169   H     0.06625   0.80794   0.63656   0.00000  Uiso   1.00
H170   H     0.00269   0.63397   0.59756   0.00000  Uiso   1.00
H171   H     0.10684   0.98448   0.55914   0.00000  Uiso   1.00
H172   H     0.08022   0.83708   0.75464   0.00000  Uiso   1.00
H173   H     0.94646   0.39120   0.55166   0.00000  Uiso   1.00
H174   H     0.16606   0.13030   0.47067   0.00000  Uiso   1.00
H175   H     0.10994   0.81948   0.88291   0.00000  Uiso   1.00
O176   O     0.95358   0.10519   0.51693   0.00000  Uiso   1.00
O177   O     0.24168   0.07486   0.41067   0.00000  Uiso   1.00
O178   O     0.16805   0.66707   0.95153   0.00000  Uiso   1.00
N179   N     0.02698   0.16328   0.54373   0.00000  Uiso   1.00
N180   N     0.23228   0.85428   0.46799   0.00000  Uiso   1.00
N181   N     0.17982   0.56372   0.85341   0.00000  Uiso   1.00
N182   N     0.97645   0.34047   0.55309   0.00000  Uiso   1.00
N183   N     0.18176   0.03147   0.47735   0.00000  Uiso   1.00
N184   N     0.12930   0.74090   0.86276   0.00000  Uiso   1.00
C185   C     0.34921   0.01144   0.62090   0.00000  Uiso   1.00
C186   C     0.39568   0.95878   0.60193   0.00000  Uiso   1.00
C187   C     0.40661   0.81582   0.58076   0.00000  Uiso   1.00
C188   C     0.45101   0.78999   0.56575   0.00000  Uiso   1.00
C189   C     0.51825   0.69103   0.53535   0.00000  Uiso   1.00
C190   C     0.33910   0.14922   0.58105   0.00000  Uiso   1.00
C191   C     0.30245   0.16638   0.54232   0.00000  Uiso   1.00
C192   C     0.29922   0.30088   0.50975   0.00000  Uiso   1.00
C193   C     0.27860   0.49762   0.44696   0.00000  Uiso   1.00
C194   C     0.35356   0.06912   0.68727   0.00000  Uiso   1.00
C195   C     0.32907   0.01896   0.73785   0.00000  Uiso   1.00
C196   C     0.33800   0.08605   0.79470   0.00000  Uiso   1.00
C197   C     0.33984   0.15842   0.89684   0.00000  Uiso   1.00
C198   C     0.40862   0.21982   0.63191   0.00000  Uiso   1.00
C199   C     0.42795   0.07197   0.60791   0.00000  Uiso   1.00
C200   C     0.47234   0.04636   0.59293   0.00000  Uiso   1.00
C201   C     0.48334   0.90337   0.57174   0.00000  Uiso   1.00
C202   C     0.37137   0.26240   0.58702   0.00000  Uiso   1.00
C203   C     0.36819   0.39692   0.55450   0.00000  Uiso   1.00
C204   C     0.33155   0.41427   0.51573   0.00000  Uiso   1.00
C205   C     0.38583   0.18230   0.69324   0.00000  Uiso   1.00
C206   C     0.39480   0.24949   0.75003   0.00000  Uiso   1.00
C207   C     0.37033   0.19944   0.80069   0.00000  Uiso   1.00
H208   H     0.32409   0.92333   0.61625   0.00000  Uiso   1.00
H209   H     0.38163   0.72826   0.57613   0.00000  Uiso   1.00
H210   H     0.27749   0.07877   0.53771   0.00000  Uiso   1.00
H211   H     0.30410   0.93137   0.73321   0.00000  Uiso   1.00
H212   H     0.45965   0.56192   0.53427   0.00000  Uiso   1.00
H213   H     0.24005   0.30101   0.45328   0.00000  Uiso   1.00
H214   H     0.29617   0.99019   0.86552   0.00000  Uiso   1.00
H215   H     0.43375   0.30794   0.63656   0.00000  Uiso   1.00
H216   H     0.49731   0.13397   0.59756   0.00000  Uiso   1.00
H217   H     0.39316   0.48448   0.55914   0.00000  Uiso   1.00
H218   H     0.41978   0.33708   0.75464   0.00000  Uiso   1.00
H219   H     0.55354   0.89120   0.55166   0.00000  Uiso   1.00
H220   H     0.33394   0.63030   0.47067   0.00000  Uiso   1.00
H221   H     0.39006   0.31948   0.88291   0.00000  Uiso   1.00
O222   O     0.54642   0.60519   0.51693   0.00000  Uiso   1.00
O223   O     0.25832   0.57486   0.41067   0.00000  Uiso   1.00
O224   O     0.33195   0.16707   0.95153   0.00000  Uiso   1.00
N225   N     0.47302   0.66328   0.54373   0.00000  Uiso   1.00
N226   N     0.26772   0.35428   0.46799   0.00000  Uiso   1.00
N227   N     0.32018   0.06372   0.85341   0.00000  Uiso   1.00
N228   N     0.52355   0.84047   0.55309   0.00000  Uiso   1.00
N229   N     0.31824   0.53147   0.47735   0.00000  Uiso   1.00
N230   N     0.37070   0.24090   0.86276   0.00000  Uiso   1.00
C231   C     0.15079   0.48856   0.12090   0.00000  Uiso   1.00
C232   C     0.10432   0.54122   0.10193   0.00000  Uiso   1.00
C233   C     0.09339   0.68418   0.08076   0.00000  Uiso   1.00
C234   C     0.04899   0.71001   0.06575   0.00000  Uiso   1.00
C235   C     0.98175   0.80897   0.03535   0.00000  Uiso   1.00
C236   C     0.16090   0.35078   0.08105   0.00000  Uiso   1.00
C237   C     0.19755   0.33362   0.04232   0.00000  Uiso   1.00
C238   C     0.20078   0.19912   0.00975   0.00000  Uiso   1.00
C239   C     0.22140   0.00238   0.94696   0.00000  Uiso   1.00
C240   C     0.14644   0.43088   0.18727   0.00000  Uiso   1.00
C241   C     0.17093   0.48104   0.23785   0.00000  Uiso   1.00
C242   C     0.16200   0.41395   0.29470   0.00000  Uiso   1.00
C243   C     0.16016   0.34158   0.39684   0.00000  Uiso   1.00
C244   C     0.09138   0.28018   0.13191   0.00000  Uiso   1.00
C245   C     0.07205   0.42803   0.10791   0.00000  Uiso   1.00
C246   C     0.02766   0.45364   0.09293   0.00000  Uiso   1.00
C247   C     0.01666   0.59663   0.07174   0.00000  Uiso   1.00
C248   C     0.12863   0.23760   0.08702   0.00000  Uiso   1.00
C249   C     0.13181   0.10308   0.05450   0.00000  Uiso   1.00
C250   C     0.16845   0.08573   0.01573   0.00000  Uiso   1.00
C251   C     0.11417   0.31770   0.19324   0.00000  Uiso   1.00
C252   C     0.10520   0.25051   0.25003   0.00000  Uiso   1.00
C253   C     0.12967   0.30056   0.30069   0.00000  Uiso   1.00
H254   H     0.17591   0.57667   0.11625   0.00000  Uiso   1.00
H255   H     0.11837   0.77174   0.07613   0.00000  Uiso   1.00
H256   H     0.22251   0.42123   0.03771   0.00000  Uiso   1.00
H257   H     0.19590   0.56863   0.23321   0.00000  Uiso   1.00
H258   H     0.04035   0.93808   0.03427   0.00000  Uiso   1.00
H259   H     0.25995   0.19899   0.95328   0.00000  Uiso   1.00
H260   H     0.20383   0.50981   0.36552   0.00000  Uiso   1.00
H261   H     0.06625   0.19206   0.13656   0.00000  Uiso   1.00
H262   H     0.00269   0.36603   0.09756   0.00000  Uiso   1.00
H263   H     0.10684   0.01552   0.05914   0.00000  Uiso   1.00
H264   H     0.08022   0.16292   0.25464   0.00000  Uiso   1.00
H265   H     0.94646   0.60880   0.05166   0.00000  Uiso   1.00
H266   H     0.16606   0.86970   0.97067   0.00000  Uiso   1.00
H267   H     0.10994   0.18052   0.38291   0.00000  Uiso   1.00
O268   O     0.95358   0.89481   0.01693   0.00000  Uiso   1.00
O269   O     0.24168   0.92514   0.91067   0.00000  Uiso   1.00
O270   O     0.16805   0.33293   0.45153   0.00000  Uiso   1.00
N271   N     0.02698   0.83672   0.04373   0.00000  Uiso   1.00
N272   N     0.23228   0.14572   0.96799   0.00000  Uiso   1.00
N273   N     0.17982   0.43628   0.35341   0.00000  Uiso   1.00
N274   N     0.97645   0.65953   0.05309   0.00000  Uiso   1.00
N275   N     0.18176   0.96853   0.97735   0.00000  Uiso   1.00
N276   N     0.12930   0.25910   0.36276   0.00000  Uiso   1.00
C277   C     0.65079   0.01144   0.87910   0.00000  Uiso   1.00
C278   C     0.60432   0.95878   0.89807   0.00000  Uiso   1.00
C279   C     0.59339   0.81582   0.91924   0.00000  Uiso   1.00
C280   C     0.54899   0.78999   0.93425   0.00000  Uiso   1.00
C281   C     0.48175   0.69103   0.96465   0.00000  Uiso   1.00
C282   C     0.66090   0.14922   0.91895   0.00000  Uiso   1.00
C283   C     0.69755   0.16638   0.95768   0.00000  Uiso   1.00
C284   C     0.70078   0.30088   0.99025   0.00000  Uiso   1.00
C285   C     0.72140   0.49762   0.05304   0.00000  Uiso   1.00
C286   C     0.64644   0.06912   0.81273   0.00000  Uiso   1.00
C287   C     0.67093   0.01896   0.76215   0.00000  Uiso   1.00
C288   C     0.66200   0.08605   0.70530   0.00000  Uiso   1.00
C289   C     0.66016   0.15842   0.60316   0.00000  Uiso   1.00
C290   C     0.59138   0.21982   0.86809   0.00000  Uiso   1.00
C291   C     0.57205   0.07197   0.89209   0.00000  Uiso   1.00
C292   C     0.52766   0.04636   0.90707   0.00000  Uiso   1.00
C293   C     0.51666   0.90337   0.92826   0.00000  Uiso   1.00
C294   C     0.62863   0.26240   0.91298   0.00000  Uiso   1.00
C295   C     0.63181   0.39692   0.94550   0.00000  Uiso   1.00
C296   C     0.66845   0.41427   0.98427   0.00000  Uiso   1.00
C297   C     0.61417   0.18230   0.80676   0.00000  Uiso   1.00
C298   C     0.60520   0.24949   0.74997   0.00000  Uiso   1.00
C299   C     0.62967   0.19944   0.69931   0.00000  Uiso   1.00
H300   H     0.67591   0.92333   0.88375   0.00000  Uiso   1.00
H301   H     0.61837   0.72826   0.92387   0.00000  Uiso   1.00
H302   H     0.72251   0.07877   0.96229   0.00000  Uiso   1.00
H303   H     0.69590   0.93137   0.76679   0.00000  Uiso   1.00
H304   H     0.54035   0.56192   0.96573   0.00000  Uiso   1.00
H305   H     0.75995   0.30101   0.04672   0.00000  Uiso   1.00
H306   H     0.70383   0.99019   0.63448   0.00000  Uiso   1.00
H307   H     0.56625   0.30794   0.86344   0.00000  Uiso   1.00
H308   H     0.50269   0.13397   0.90244   0.00000  Uiso   1.00
H309   H     0.60684   0.48448   0.94086   0.00000  Uiso   1.00
H310   H     0.58022   0.33708   0.74536   0.00000  Uiso   1.00
H311   H     0.44646   0.89120   0.94834   0.00000  Uiso   1.00
H312   H     0.66606   0.63030   0.02933   0.00000  Uiso   1.00
H313   H     0.60994   0.31948   0.61709   0.00000  Uiso   1.00
O314   O     0.45358   0.60519   0.98307   0.00000  Uiso   1.00
O315   O     0.74168   0.57486   0.08933   0.00000  Uiso   1.00
O316   O     0.66805   0.16707   0.54847   0.00000  Uiso   1.00
N317   N     0.52698   0.66328   0.95627   0.00000  Uiso   1.00
N318   N     0.73228   0.35428   0.03201   0.00000  Uiso   1.00
N319   N     0.67982   0.06372   0.64659   0.00000  Uiso   1.00
N320   N     0.47645   0.84047   0.94691   0.00000  Uiso   1.00
N321   N     0.68176   0.53147   0.02265   0.00000  Uiso   1.00
N322   N     0.62930   0.24090   0.63724   0.00000  Uiso   1.00
C323   C     0.84921   0.48856   0.37910   0.00000  Uiso   1.00
C324   C     0.89568   0.54122   0.39807   0.00000  Uiso   1.00
C325   C     0.90661   0.68418   0.41924   0.00000  Uiso   1.00
C326   C     0.95101   0.71001   0.43425   0.00000  Uiso   1.00
C327   C     0.01825   0.80897   0.46465   0.00000  Uiso   1.00
C328   C     0.83910   0.35078   0.41895   0.00000  Uiso   1.00
C329   C     0.80245   0.33362   0.45768   0.00000  Uiso   1.00
C330   C     0.79922   0.19912   0.49025   0.00000  Uiso   1.00
C331   C     0.77860   0.00238   0.55304   0.00000  Uiso   1.00
C332   C     0.85356   0.43088   0.31273   0.00000  Uiso   1.00
C333   C     0.82907   0.48104   0.26215   0.00000  Uiso   1.00
C334   C     0.83800   0.41395   0.20530   0.00000  Uiso   1.00
C335   C     0.83984   0.34158   0.10316   0.00000  Uiso   1.00
C336   C     0.90862   0.28018   0.36809   0.00000  Uiso   1.00
C337   C     0.92795   0.42803   0.39209   0.00000  Uiso   1.00
C338   C     0.97234   0.45364   0.40707   0.00000  Uiso   1.00
C339   C     0.98334   0.59663   0.42826   0.00000  Uiso   1.00
C340   C     0.87137   0.23760   0.41298   0.00000  Uiso   1.00
C341   C     0.86819   0.10308   0.44550   0.00000  Uiso   1.00
C342   C     0.83155   0.08573   0.48427   0.00000  Uiso   1.00
C343   C     0.88583   0.31770   0.30676   0.00000  Uiso   1.00
C344   C     0.89480   0.25051   0.24997   0.00000  Uiso   1.00
C345   C     0.87033   0.30056   0.19931   0.00000  Uiso   1.00
H346   H     0.82409   0.57667   0.38375   0.00000  Uiso   1.00
H347   H     0.88163   0.77174   0.42387   0.00000  Uiso   1.00
H348   H     0.77749   0.42123   0.46229   0.00000  Uiso   1.00
H349   H     0.80410   0.56863   0.26679   0.00000  Uiso   1.00
H350   H     0.95965   0.93808   0.46573   0.00000  Uiso   1.00
H351   H     0.74005   0.19899   0.54672   0.00000  Uiso   1.00
H352   H     0.79617   0.50981   0.13448   0.00000  Uiso   1.00
H353   H     0.93375   0.19206   0.36344   0.00000  Uiso   1.00
H354   H     0.99731   0.36603   0.40244   0.00000  Uiso   1.00
H355   H     0.89316   0.01552   0.44086   0.00000  Uiso   1.00
H356   H     0.91978   0.16292   0.24536   0.00000  Uiso   1.00
H357   H     0.05354   0.60880   0.44834   0.00000  Uiso   1.00
H358   H     0.83394   0.86970   0.52933   0.00000  Uiso   1.00
H359   H     0.89006   0.18052   0.11709   0.00000  Uiso   1.00
O360   O     0.04642   0.89481   0.48307   0.00000  Uiso   1.00
O361   O     0.75832   0.92514   0.58933   0.00000  Uiso   1.00
O362   O     0.83195   0.33293   0.04847   0.00000  Uiso   1.00
N363   N     0.97302   0.83672   0.45627   0.00000  Uiso   1.00
N364   N     0.76772   0.14572   0.53201   0.00000  Uiso   1.00
N365   N     0.82018   0.43628   0.14659   0.00000  Uiso   1.00
N366   N     0.02355   0.65953   0.44691   0.00000  Uiso   1.00
N367   N     0.81824   0.96853   0.52265   0.00000  Uiso   1.00
N368   N     0.87070   0.25910   0.13724   0.00000  Uiso   1.00
