data_job_00194
_audit_creation_date              2018-12-19
_audit_creation_method            'Materials Studio'
_symmetry_space_group_name_H-M    'P1'
_symmetry_Int_Tables_number       1
_symmetry_cell_setting            triclinic
loop_
_symmetry_equiv_pos_as_xyz
  x,y,z
_cell_length_a                    7.0276
_cell_length_b                    23.8521
_cell_length_c                    41.5235
_cell_angle_alpha                 90.0000
_cell_angle_beta                  90.0000
_cell_angle_gamma                 90.0000
loop_
_atom_site_label
_atom_site_type_symbol
_atom_site_fract_x
_atom_site_fract_y
_atom_site_fract_z
_atom_site_U_iso_or_equiv
_atom_site_adp_type
_atom_site_occupancy
C1     C     0.40389   0.14084   0.40808   0.00000  Uiso   1.00
C2     C     0.52194   0.14173   0.37727   0.00000  Uiso   1.00
C3     C     0.45044   0.14553   0.34619   0.00000  Uiso   1.00
C4     C     0.58183   0.14569   0.32122   0.00000  Uiso   1.00
C5     C     0.73534   0.14758   0.27248   0.00000  Uiso   1.00
C6     C     0.45946   0.08725   0.42576   0.00000  Uiso   1.00
C7     C     0.33542   0.04524   0.43545   0.00000  Uiso   1.00
C8     C     0.41422   0.99955   0.45131   0.00000  Uiso   1.00
C9     C     0.47072   0.91687   0.47786   0.00000  Uiso   1.00
C10    C     0.47731   0.18912   0.42870   0.00000  Uiso   1.00
C11    C     0.36827   0.23276   0.44087   0.00000  Uiso   1.00
C12    C     0.46210   0.27284   0.45920   0.00000  Uiso   1.00
C13    C     0.54631   0.34833   0.49032   0.00000  Uiso   1.00
C14    C     0.76439   0.13440   0.41900   0.00000  Uiso   1.00
C15    C     0.71775   0.13823   0.38320   0.00000  Uiso   1.00
C16    C     0.84929   0.13840   0.35827   0.00000  Uiso   1.00
C17    C     0.77799   0.14219   0.32717   0.00000  Uiso   1.00
C18    C     0.65527   0.08375   0.43169   0.00000  Uiso   1.00
C19    C     0.73427   0.03811   0.44753   0.00000  Uiso   1.00
C20    C     0.61039   0.99604   0.45725   0.00000  Uiso   1.00
C21    C     0.67313   0.18563   0.43463   0.00000  Uiso   1.00
C22    C     0.76714   0.22564   0.45295   0.00000  Uiso   1.00
C23    C     0.65827   0.26933   0.46514   0.00000  Uiso   1.00
H24    H     0.25144   0.14356   0.40346   0.00000  Uiso   1.00
H25    H     0.29889   0.14823   0.34161   0.00000  Uiso   1.00
H26    H     0.18389   0.04796   0.43086   0.00000  Uiso   1.00
H27    H     0.21675   0.23546   0.43627   0.00000  Uiso   1.00
H28    H     0.43784   0.15183   0.27565   0.00000  Uiso   1.00
H29    H     0.19535   0.94042   0.46385   0.00000  Uiso   1.00
H30    H     0.26464   0.33580   0.47526   0.00000  Uiso   1.00
H31    H     0.91685   0.13168   0.42362   0.00000  Uiso   1.00
H32    H     0.00082   0.13569   0.36287   0.00000  Uiso   1.00
H33    H     0.88581   0.03542   0.45212   0.00000  Uiso   1.00
H34    H     0.91867   0.22292   0.45753   0.00000  Uiso   1.00
H35    H     0.00755   0.14166   0.29291   0.00000  Uiso   1.00
H36    H     0.76506   0.93025   0.48111   0.00000  Uiso   1.00
H37    H     0.83435   0.32562   0.49252   0.00000  Uiso   1.00
O38    O     0.76592   0.14958   0.24396   0.00000  Uiso   1.00
O39    O     0.44778   0.87222   0.49087   0.00000  Uiso   1.00
O40    O     0.53868   0.39094   0.50584   0.00000  Uiso   1.00
N41    N     0.56040   0.14890   0.28805   0.00000  Uiso   1.00
N42    N     0.33369   0.95124   0.46400   0.00000  Uiso   1.00
N43    N     0.39846   0.32087   0.47468   0.00000  Uiso   1.00
N44    N     0.86696   0.14343   0.29734   0.00000  Uiso   1.00
N45    N     0.64025   0.94576   0.47329   0.00000  Uiso   1.00
N46    N     0.70501   0.31540   0.48396   0.00000  Uiso   1.00
C47    C     0.09611   0.35916   0.90808   0.00000  Uiso   1.00
C48    C     0.97806   0.35827   0.87727   0.00000  Uiso   1.00
C49    C     0.04956   0.35447   0.84619   0.00000  Uiso   1.00
C50    C     0.91817   0.35431   0.82122   0.00000  Uiso   1.00
C51    C     0.76466   0.35242   0.77248   0.00000  Uiso   1.00
C52    C     0.04054   0.41275   0.92576   0.00000  Uiso   1.00
C53    C     0.16458   0.45476   0.93545   0.00000  Uiso   1.00
C54    C     0.08578   0.50045   0.95131   0.00000  Uiso   1.00
C55    C     0.02928   0.58313   0.97786   0.00000  Uiso   1.00
C56    C     0.02269   0.31088   0.92870   0.00000  Uiso   1.00
C57    C     0.13173   0.26724   0.94087   0.00000  Uiso   1.00
C58    C     0.03790   0.22716   0.95920   0.00000  Uiso   1.00
C59    C     0.95369   0.15167   0.99032   0.00000  Uiso   1.00
C60    C     0.73561   0.36560   0.91900   0.00000  Uiso   1.00
C61    C     0.78225   0.36177   0.88320   0.00000  Uiso   1.00
C62    C     0.65071   0.36160   0.85827   0.00000  Uiso   1.00
C63    C     0.72201   0.35781   0.82717   0.00000  Uiso   1.00
C64    C     0.84473   0.41625   0.93169   0.00000  Uiso   1.00
C65    C     0.76573   0.46189   0.94753   0.00000  Uiso   1.00
C66    C     0.88961   0.50396   0.95725   0.00000  Uiso   1.00
C67    C     0.82687   0.31437   0.93463   0.00000  Uiso   1.00
C68    C     0.73286   0.27436   0.95295   0.00000  Uiso   1.00
C69    C     0.84173   0.23067   0.96514   0.00000  Uiso   1.00
H70    H     0.24856   0.35644   0.90346   0.00000  Uiso   1.00
H71    H     0.20111   0.35177   0.84161   0.00000  Uiso   1.00
H72    H     0.31611   0.45204   0.93086   0.00000  Uiso   1.00
H73    H     0.28325   0.26454   0.93627   0.00000  Uiso   1.00
H74    H     0.06216   0.34817   0.77565   0.00000  Uiso   1.00
H75    H     0.30465   0.55958   0.96385   0.00000  Uiso   1.00
H76    H     0.23536   0.16420   0.97526   0.00000  Uiso   1.00
H77    H     0.58315   0.36832   0.92362   0.00000  Uiso   1.00
H78    H     0.49918   0.36431   0.86287   0.00000  Uiso   1.00
H79    H     0.61419   0.46458   0.95212   0.00000  Uiso   1.00
H80    H     0.58133   0.27708   0.95753   0.00000  Uiso   1.00
H81    H     0.49245   0.35834   0.79291   0.00000  Uiso   1.00
H82    H     0.73494   0.56975   0.98111   0.00000  Uiso   1.00
H83    H     0.66565   0.17438   0.99252   0.00000  Uiso   1.00
O84    O     0.73408   0.35042   0.74396   0.00000  Uiso   1.00
O85    O     0.05222   0.62778   0.99087   0.00000  Uiso   1.00
O86    O     0.96132   0.10906   0.00584   0.00000  Uiso   1.00
N87    N     0.93960   0.35110   0.78805   0.00000  Uiso   1.00
N88    N     0.16631   0.54876   0.96400   0.00000  Uiso   1.00
N89    N     0.10154   0.17913   0.97468   0.00000  Uiso   1.00
N90    N     0.63304   0.35657   0.79734   0.00000  Uiso   1.00
N91    N     0.85975   0.55424   0.97329   0.00000  Uiso   1.00
N92    N     0.79499   0.18460   0.98396   0.00000  Uiso   1.00
C93    C     0.59611   0.14084   0.09192   0.00000  Uiso   1.00
C94    C     0.47806   0.14173   0.12273   0.00000  Uiso   1.00
C95    C     0.54956   0.14553   0.15381   0.00000  Uiso   1.00
C96    C     0.41817   0.14569   0.17878   0.00000  Uiso   1.00
C97    C     0.26466   0.14758   0.22752   0.00000  Uiso   1.00
C98    C     0.54054   0.08725   0.07424   0.00000  Uiso   1.00
C99    C     0.66458   0.04524   0.06455   0.00000  Uiso   1.00
C100   C     0.58578   0.99955   0.04869   0.00000  Uiso   1.00
C101   C     0.52928   0.91687   0.02214   0.00000  Uiso   1.00
C102   C     0.52269   0.18912   0.07130   0.00000  Uiso   1.00
C103   C     0.63173   0.23276   0.05913   0.00000  Uiso   1.00
C104   C     0.53790   0.27284   0.04080   0.00000  Uiso   1.00
C105   C     0.45369   0.34833   0.00968   0.00000  Uiso   1.00
C106   C     0.23561   0.13440   0.08100   0.00000  Uiso   1.00
C107   C     0.28225   0.13823   0.11680   0.00000  Uiso   1.00
C108   C     0.15071   0.13840   0.14173   0.00000  Uiso   1.00
C109   C     0.22201   0.14219   0.17283   0.00000  Uiso   1.00
C110   C     0.34473   0.08375   0.06831   0.00000  Uiso   1.00
C111   C     0.26573   0.03811   0.05247   0.00000  Uiso   1.00
C112   C     0.38961   0.99604   0.04275   0.00000  Uiso   1.00
C113   C     0.32687   0.18563   0.06537   0.00000  Uiso   1.00
C114   C     0.23286   0.22564   0.04705   0.00000  Uiso   1.00
C115   C     0.34173   0.26933   0.03486   0.00000  Uiso   1.00
H116   H     0.74856   0.14356   0.09654   0.00000  Uiso   1.00
H117   H     0.70111   0.14823   0.15839   0.00000  Uiso   1.00
H118   H     0.81611   0.04796   0.06914   0.00000  Uiso   1.00
H119   H     0.78325   0.23546   0.06373   0.00000  Uiso   1.00
H120   H     0.56216   0.15183   0.22435   0.00000  Uiso   1.00
H121   H     0.80465   0.94042   0.03615   0.00000  Uiso   1.00
H122   H     0.73536   0.33580   0.02474   0.00000  Uiso   1.00
H123   H     0.08315   0.13168   0.07638   0.00000  Uiso   1.00
H124   H     0.99918   0.13569   0.13713   0.00000  Uiso   1.00
H125   H     0.11419   0.03542   0.04788   0.00000  Uiso   1.00
H126   H     0.08133   0.22292   0.04247   0.00000  Uiso   1.00
H127   H     0.99245   0.14166   0.20709   0.00000  Uiso   1.00
H128   H     0.23494   0.93025   0.01889   0.00000  Uiso   1.00
H129   H     0.16565   0.32562   0.00748   0.00000  Uiso   1.00
O130   O     0.23408   0.14958   0.25604   0.00000  Uiso   1.00
O131   O     0.55222   0.87222   0.00913   0.00000  Uiso   1.00
O132   O     0.46132   0.39094   0.99416   0.00000  Uiso   1.00
N133   N     0.43960   0.14890   0.21195   0.00000  Uiso   1.00
N134   N     0.66631   0.95124   0.03600   0.00000  Uiso   1.00
N135   N     0.60154   0.32087   0.02532   0.00000  Uiso   1.00
N136   N     0.13304   0.14343   0.20266   0.00000  Uiso   1.00
N137   N     0.35975   0.94576   0.02671   0.00000  Uiso   1.00
N138   N     0.29499   0.31540   0.01604   0.00000  Uiso   1.00
C139   C     0.90389   0.35916   0.59192   0.00000  Uiso   1.00
C140   C     0.02194   0.35827   0.62273   0.00000  Uiso   1.00
C141   C     0.95044   0.35447   0.65381   0.00000  Uiso   1.00
C142   C     0.08183   0.35431   0.67878   0.00000  Uiso   1.00
C143   C     0.23534   0.35242   0.72752   0.00000  Uiso   1.00
C144   C     0.95946   0.41275   0.57424   0.00000  Uiso   1.00
C145   C     0.83542   0.45476   0.56455   0.00000  Uiso   1.00
C146   C     0.91422   0.50045   0.54869   0.00000  Uiso   1.00
C147   C     0.97072   0.58313   0.52214   0.00000  Uiso   1.00
C148   C     0.97731   0.31088   0.57130   0.00000  Uiso   1.00
C149   C     0.86827   0.26724   0.55913   0.00000  Uiso   1.00
C150   C     0.96210   0.22716   0.54080   0.00000  Uiso   1.00
C151   C     0.04631   0.15167   0.50968   0.00000  Uiso   1.00
C152   C     0.26439   0.36560   0.58100   0.00000  Uiso   1.00
C153   C     0.21775   0.36177   0.61680   0.00000  Uiso   1.00
C154   C     0.34929   0.36160   0.64173   0.00000  Uiso   1.00
C155   C     0.27799   0.35781   0.67283   0.00000  Uiso   1.00
C156   C     0.15527   0.41625   0.56831   0.00000  Uiso   1.00
C157   C     0.23427   0.46189   0.55247   0.00000  Uiso   1.00
C158   C     0.11039   0.50396   0.54275   0.00000  Uiso   1.00
C159   C     0.17313   0.31437   0.56537   0.00000  Uiso   1.00
C160   C     0.26714   0.27436   0.54705   0.00000  Uiso   1.00
C161   C     0.15827   0.23067   0.53486   0.00000  Uiso   1.00
H162   H     0.75144   0.35644   0.59654   0.00000  Uiso   1.00
H163   H     0.79889   0.35177   0.65839   0.00000  Uiso   1.00
H164   H     0.68389   0.45204   0.56914   0.00000  Uiso   1.00
H165   H     0.71675   0.26454   0.56373   0.00000  Uiso   1.00
H166   H     0.93784   0.34817   0.72435   0.00000  Uiso   1.00
H167   H     0.69535   0.55958   0.53615   0.00000  Uiso   1.00
H168   H     0.76464   0.16420   0.52474   0.00000  Uiso   1.00
H169   H     0.41685   0.36832   0.57638   0.00000  Uiso   1.00
H170   H     0.50082   0.36431   0.63713   0.00000  Uiso   1.00
H171   H     0.38581   0.46458   0.54788   0.00000  Uiso   1.00
H172   H     0.41867   0.27708   0.54247   0.00000  Uiso   1.00
H173   H     0.50755   0.35834   0.70709   0.00000  Uiso   1.00
H174   H     0.26506   0.56975   0.51889   0.00000  Uiso   1.00
H175   H     0.33435   0.17438   0.50748   0.00000  Uiso   1.00
O176   O     0.26592   0.35042   0.75604   0.00000  Uiso   1.00
O177   O     0.94778   0.62778   0.50913   0.00000  Uiso   1.00
O178   O     0.03868   0.10906   0.49416   0.00000  Uiso   1.00
N179   N     0.06040   0.35110   0.71195   0.00000  Uiso   1.00
N180   N     0.83369   0.54876   0.53600   0.00000  Uiso   1.00
N181   N     0.89846   0.17913   0.52532   0.00000  Uiso   1.00
N182   N     0.36696   0.35657   0.70266   0.00000  Uiso   1.00
N183   N     0.14025   0.55424   0.52671   0.00000  Uiso   1.00
N184   N     0.20501   0.18460   0.51604   0.00000  Uiso   1.00
C185   C     0.59611   0.85916   0.59192   0.00000  Uiso   1.00
C186   C     0.47806   0.85827   0.62273   0.00000  Uiso   1.00
C187   C     0.54956   0.85447   0.65381   0.00000  Uiso   1.00
C188   C     0.41817   0.85431   0.67878   0.00000  Uiso   1.00
C189   C     0.26466   0.85242   0.72752   0.00000  Uiso   1.00
C190   C     0.54054   0.91275   0.57424   0.00000  Uiso   1.00
C191   C     0.66458   0.95476   0.56455   0.00000  Uiso   1.00
C192   C     0.58578   0.00045   0.54869   0.00000  Uiso   1.00
C193   C     0.52928   0.08313   0.52214   0.00000  Uiso   1.00
C194   C     0.52269   0.81088   0.57130   0.00000  Uiso   1.00
C195   C     0.63173   0.76724   0.55913   0.00000  Uiso   1.00
C196   C     0.53790   0.72716   0.54080   0.00000  Uiso   1.00
C197   C     0.45369   0.65167   0.50968   0.00000  Uiso   1.00
C198   C     0.23561   0.86560   0.58100   0.00000  Uiso   1.00
C199   C     0.28225   0.86177   0.61680   0.00000  Uiso   1.00
C200   C     0.15071   0.86160   0.64173   0.00000  Uiso   1.00
C201   C     0.22201   0.85781   0.67283   0.00000  Uiso   1.00
C202   C     0.34473   0.91625   0.56831   0.00000  Uiso   1.00
C203   C     0.26573   0.96189   0.55247   0.00000  Uiso   1.00
C204   C     0.38961   0.00396   0.54275   0.00000  Uiso   1.00
C205   C     0.32687   0.81437   0.56537   0.00000  Uiso   1.00
C206   C     0.23286   0.77436   0.54705   0.00000  Uiso   1.00
C207   C     0.34173   0.73067   0.53486   0.00000  Uiso   1.00
H208   H     0.74856   0.85644   0.59654   0.00000  Uiso   1.00
H209   H     0.70111   0.85177   0.65839   0.00000  Uiso   1.00
H210   H     0.81611   0.95204   0.56914   0.00000  Uiso   1.00
H211   H     0.78325   0.76454   0.56373   0.00000  Uiso   1.00
H212   H     0.56216   0.84817   0.72435   0.00000  Uiso   1.00
H213   H     0.80465   0.05958   0.53615   0.00000  Uiso   1.00
H214   H     0.73536   0.66420   0.52474   0.00000  Uiso   1.00
H215   H     0.08315   0.86832   0.57638   0.00000  Uiso   1.00
H216   H     0.99918   0.86431   0.63713   0.00000  Uiso   1.00
H217   H     0.11419   0.96458   0.54788   0.00000  Uiso   1.00
H218   H     0.08133   0.77708   0.54247   0.00000  Uiso   1.00
H219   H     0.99245   0.85834   0.70709   0.00000  Uiso   1.00
H220   H     0.23494   0.06975   0.51889   0.00000  Uiso   1.00
H221   H     0.16565   0.67438   0.50748   0.00000  Uiso   1.00
O222   O     0.23408   0.85042   0.75604   0.00000  Uiso   1.00
O223   O     0.55222   0.12778   0.50913   0.00000  Uiso   1.00
O224   O     0.46132   0.60906   0.49416   0.00000  Uiso   1.00
N225   N     0.43960   0.85110   0.71195   0.00000  Uiso   1.00
N226   N     0.66631   0.04876   0.53600   0.00000  Uiso   1.00
N227   N     0.60154   0.67913   0.52532   0.00000  Uiso   1.00
N228   N     0.13304   0.85657   0.70266   0.00000  Uiso   1.00
N229   N     0.35975   0.05424   0.52671   0.00000  Uiso   1.00
N230   N     0.29499   0.68460   0.51604   0.00000  Uiso   1.00
C231   C     0.90389   0.64084   0.09192   0.00000  Uiso   1.00
C232   C     0.02194   0.64173   0.12273   0.00000  Uiso   1.00
C233   C     0.95044   0.64553   0.15381   0.00000  Uiso   1.00
C234   C     0.08183   0.64569   0.17878   0.00000  Uiso   1.00
C235   C     0.23534   0.64758   0.22752   0.00000  Uiso   1.00
C236   C     0.95946   0.58725   0.07424   0.00000  Uiso   1.00
C237   C     0.83542   0.54524   0.06455   0.00000  Uiso   1.00
C238   C     0.91422   0.49955   0.04869   0.00000  Uiso   1.00
C239   C     0.97072   0.41687   0.02214   0.00000  Uiso   1.00
C240   C     0.97731   0.68912   0.07130   0.00000  Uiso   1.00
C241   C     0.86827   0.73276   0.05913   0.00000  Uiso   1.00
C242   C     0.96210   0.77284   0.04080   0.00000  Uiso   1.00
C243   C     0.04631   0.84833   0.00968   0.00000  Uiso   1.00
C244   C     0.26439   0.63440   0.08100   0.00000  Uiso   1.00
C245   C     0.21775   0.63823   0.11680   0.00000  Uiso   1.00
C246   C     0.34929   0.63840   0.14173   0.00000  Uiso   1.00
C247   C     0.27799   0.64219   0.17283   0.00000  Uiso   1.00
C248   C     0.15527   0.58375   0.06831   0.00000  Uiso   1.00
C249   C     0.23427   0.53811   0.05247   0.00000  Uiso   1.00
C250   C     0.11039   0.49604   0.04275   0.00000  Uiso   1.00
C251   C     0.17313   0.68563   0.06537   0.00000  Uiso   1.00
C252   C     0.26714   0.72564   0.04705   0.00000  Uiso   1.00
C253   C     0.15827   0.76933   0.03486   0.00000  Uiso   1.00
H254   H     0.75144   0.64356   0.09654   0.00000  Uiso   1.00
H255   H     0.79889   0.64823   0.15839   0.00000  Uiso   1.00
H256   H     0.68389   0.54796   0.06914   0.00000  Uiso   1.00
H257   H     0.71675   0.73546   0.06373   0.00000  Uiso   1.00
H258   H     0.93784   0.65183   0.22435   0.00000  Uiso   1.00
H259   H     0.69535   0.44042   0.03615   0.00000  Uiso   1.00
H260   H     0.76464   0.83580   0.02474   0.00000  Uiso   1.00
H261   H     0.41685   0.63168   0.07638   0.00000  Uiso   1.00
H262   H     0.50082   0.63569   0.13713   0.00000  Uiso   1.00
H263   H     0.38581   0.53542   0.04788   0.00000  Uiso   1.00
H264   H     0.41867   0.72292   0.04247   0.00000  Uiso   1.00
H265   H     0.50755   0.64166   0.20709   0.00000  Uiso   1.00
H266   H     0.26506   0.43025   0.01889   0.00000  Uiso   1.00
H267   H     0.33435   0.82562   0.00748   0.00000  Uiso   1.00
O268   O     0.26592   0.64958   0.25604   0.00000  Uiso   1.00
O269   O     0.94778   0.37222   0.00913   0.00000  Uiso   1.00
O270   O     0.03868   0.89094   0.99416   0.00000  Uiso   1.00
N271   N     0.06040   0.64890   0.21195   0.00000  Uiso   1.00
N272   N     0.83369   0.45124   0.03600   0.00000  Uiso   1.00
N273   N     0.89846   0.82087   0.02532   0.00000  Uiso   1.00
N274   N     0.36696   0.64343   0.20266   0.00000  Uiso   1.00
N275   N     0.14025   0.44576   0.02671   0.00000  Uiso   1.00
N276   N     0.20501   0.81540   0.01604   0.00000  Uiso   1.00
C277   C     0.40389   0.85916   0.90808   0.00000  Uiso   1.00
C278   C     0.52194   0.85827   0.87727   0.00000  Uiso   1.00
C279   C     0.45044   0.85447   0.84619   0.00000  Uiso   1.00
C280   C     0.58183   0.85431   0.82122   0.00000  Uiso   1.00
C281   C     0.73534   0.85242   0.77248   0.00000  Uiso   1.00
C282   C     0.45946   0.91275   0.92576   0.00000  Uiso   1.00
C283   C     0.33542   0.95476   0.93545   0.00000  Uiso   1.00
C284   C     0.41422   0.00045   0.95131   0.00000  Uiso   1.00
C285   C     0.47072   0.08313   0.97786   0.00000  Uiso   1.00
C286   C     0.47731   0.81088   0.92870   0.00000  Uiso   1.00
C287   C     0.36827   0.76724   0.94087   0.00000  Uiso   1.00
C288   C     0.46210   0.72716   0.95920   0.00000  Uiso   1.00
C289   C     0.54631   0.65167   0.99032   0.00000  Uiso   1.00
C290   C     0.76439   0.86560   0.91900   0.00000  Uiso   1.00
C291   C     0.71775   0.86177   0.88320   0.00000  Uiso   1.00
C292   C     0.84929   0.86160   0.85827   0.00000  Uiso   1.00
C293   C     0.77799   0.85781   0.82717   0.00000  Uiso   1.00
C294   C     0.65527   0.91625   0.93169   0.00000  Uiso   1.00
C295   C     0.73427   0.96189   0.94753   0.00000  Uiso   1.00
C296   C     0.61039   0.00396   0.95725   0.00000  Uiso   1.00
C297   C     0.67313   0.81437   0.93463   0.00000  Uiso   1.00
C298   C     0.76714   0.77436   0.95295   0.00000  Uiso   1.00
C299   C     0.65827   0.73067   0.96514   0.00000  Uiso   1.00
H300   H     0.25144   0.85644   0.90346   0.00000  Uiso   1.00
H301   H     0.29889   0.85177   0.84161   0.00000  Uiso   1.00
H302   H     0.18389   0.95204   0.93086   0.00000  Uiso   1.00
H303   H     0.21675   0.76454   0.93627   0.00000  Uiso   1.00
H304   H     0.43784   0.84817   0.77565   0.00000  Uiso   1.00
H305   H     0.19535   0.05958   0.96385   0.00000  Uiso   1.00
H306   H     0.26464   0.66420   0.97526   0.00000  Uiso   1.00
H307   H     0.91685   0.86832   0.92362   0.00000  Uiso   1.00
H308   H     0.00082   0.86431   0.86287   0.00000  Uiso   1.00
H309   H     0.88581   0.96458   0.95212   0.00000  Uiso   1.00
H310   H     0.91867   0.77708   0.95753   0.00000  Uiso   1.00
H311   H     0.00755   0.85834   0.79291   0.00000  Uiso   1.00
H312   H     0.76506   0.06975   0.98111   0.00000  Uiso   1.00
H313   H     0.83435   0.67438   0.99252   0.00000  Uiso   1.00
O314   O     0.76592   0.85042   0.74396   0.00000  Uiso   1.00
O315   O     0.44778   0.12778   0.99087   0.00000  Uiso   1.00
O316   O     0.53868   0.60906   0.00584   0.00000  Uiso   1.00
N317   N     0.56040   0.85110   0.78805   0.00000  Uiso   1.00
N318   N     0.33369   0.04876   0.96400   0.00000  Uiso   1.00
N319   N     0.39846   0.67913   0.97468   0.00000  Uiso   1.00
N320   N     0.86696   0.85657   0.79734   0.00000  Uiso   1.00
N321   N     0.64025   0.05424   0.97329   0.00000  Uiso   1.00
N322   N     0.70501   0.68460   0.98396   0.00000  Uiso   1.00
C323   C     0.09611   0.64084   0.40808   0.00000  Uiso   1.00
C324   C     0.97806   0.64173   0.37727   0.00000  Uiso   1.00
C325   C     0.04956   0.64553   0.34619   0.00000  Uiso   1.00
C326   C     0.91817   0.64569   0.32122   0.00000  Uiso   1.00
C327   C     0.76466   0.64758   0.27248   0.00000  Uiso   1.00
C328   C     0.04054   0.58725   0.42576   0.00000  Uiso   1.00
C329   C     0.16458   0.54524   0.43545   0.00000  Uiso   1.00
C330   C     0.08578   0.49955   0.45131   0.00000  Uiso   1.00
C331   C     0.02928   0.41687   0.47786   0.00000  Uiso   1.00
C332   C     0.02269   0.68912   0.42870   0.00000  Uiso   1.00
C333   C     0.13173   0.73276   0.44087   0.00000  Uiso   1.00
C334   C     0.03790   0.77284   0.45920   0.00000  Uiso   1.00
C335   C     0.95369   0.84833   0.49032   0.00000  Uiso   1.00
C336   C     0.73561   0.63440   0.41900   0.00000  Uiso   1.00
C337   C     0.78225   0.63823   0.38320   0.00000  Uiso   1.00
C338   C     0.65071   0.63840   0.35827   0.00000  Uiso   1.00
C339   C     0.72201   0.64219   0.32717   0.00000  Uiso   1.00
C340   C     0.84473   0.58375   0.43169   0.00000  Uiso   1.00
C341   C     0.76573   0.53811   0.44753   0.00000  Uiso   1.00
C342   C     0.88961   0.49604   0.45725   0.00000  Uiso   1.00
C343   C     0.82687   0.68563   0.43463   0.00000  Uiso   1.00
C344   C     0.73286   0.72564   0.45295   0.00000  Uiso   1.00
C345   C     0.84173   0.76933   0.46514   0.00000  Uiso   1.00
H346   H     0.24856   0.64356   0.40346   0.00000  Uiso   1.00
H347   H     0.20111   0.64823   0.34161   0.00000  Uiso   1.00
H348   H     0.31611   0.54796   0.43086   0.00000  Uiso   1.00
H349   H     0.28325   0.73546   0.43627   0.00000  Uiso   1.00
H350   H     0.06216   0.65183   0.27565   0.00000  Uiso   1.00
H351   H     0.30465   0.44042   0.46385   0.00000  Uiso   1.00
H352   H     0.23536   0.83580   0.47526   0.00000  Uiso   1.00
H353   H     0.58315   0.63168   0.42362   0.00000  Uiso   1.00
H354   H     0.49918   0.63569   0.36287   0.00000  Uiso   1.00
H355   H     0.61419   0.53542   0.45212   0.00000  Uiso   1.00
H356   H     0.58133   0.72292   0.45753   0.00000  Uiso   1.00
H357   H     0.49245   0.64166   0.29291   0.00000  Uiso   1.00
H358   H     0.73494   0.43025   0.48111   0.00000  Uiso   1.00
H359   H     0.66565   0.82562   0.49252   0.00000  Uiso   1.00
O360   O     0.73408   0.64958   0.24396   0.00000  Uiso   1.00
O361   O     0.05222   0.37222   0.49087   0.00000  Uiso   1.00
O362   O     0.96132   0.89094   0.50584   0.00000  Uiso   1.00
N363   N     0.93960   0.64890   0.28805   0.00000  Uiso   1.00
N364   N     0.16631   0.45124   0.46400   0.00000  Uiso   1.00
N365   N     0.10154   0.82087   0.47468   0.00000  Uiso   1.00
N366   N     0.63304   0.64343   0.29734   0.00000  Uiso   1.00
N367   N     0.85975   0.44576   0.47329   0.00000  Uiso   1.00
N368   N     0.79499   0.81540   0.48396   0.00000  Uiso   1.00
