data_job_03517
_audit_creation_date              2018-12-19
_audit_creation_method            'Materials Studio'
_symmetry_space_group_name_H-M    'P1'
_symmetry_Int_Tables_number       1
_symmetry_cell_setting            triclinic
loop_
_symmetry_equiv_pos_as_xyz
  x,y,z
_cell_length_a                    18.2481
_cell_length_b                    9.4496
_cell_length_c                    36.0746
_cell_angle_alpha                 90.0000
_cell_angle_beta                  90.0000
_cell_angle_gamma                 90.0000
loop_
_atom_site_label
_atom_site_type_symbol
_atom_site_fract_x
_atom_site_fract_y
_atom_site_fract_z
_atom_site_U_iso_or_equiv
_atom_site_adp_type
_atom_site_occupancy
C1     C     0.33073   0.88767   0.10150   0.00000  Uiso   1.00
C2     C     0.32053   0.79429   0.06742   0.00000  Uiso   1.00
C3     C     0.25566   0.77631   0.04790   0.00000  Uiso   1.00
C4     C     0.25762   0.68632   0.01749   0.00000  Uiso   1.00
C5     C     0.23196   0.55183   0.96617   0.00000  Uiso   1.00
C6     C     0.36052   0.79115   0.13185   0.00000  Uiso   1.00
C7     C     0.32927   0.77056   0.16650   0.00000  Uiso   1.00
C8     C     0.36490   0.67795   0.19033   0.00000  Uiso   1.00
C9     C     0.40134   0.53867   0.23905   0.00000  Uiso   1.00
C10    C     0.39259   0.98995   0.09203   0.00000  Uiso   1.00
C11    C     0.38831   0.13652   0.09321   0.00000  Uiso   1.00
C12    C     0.45095   0.21128   0.08353   0.00000  Uiso   1.00
C13    C     0.53719   0.38067   0.07041   0.00000  Uiso   1.00
C14    C     0.44958   0.75984   0.08221   0.00000  Uiso   1.00
C15    C     0.38509   0.72485   0.05694   0.00000  Uiso   1.00
C16    C     0.38715   0.63487   0.02655   0.00000  Uiso   1.00
C17    C     0.32229   0.61676   0.00699   0.00000  Uiso   1.00
C18    C     0.42507   0.72172   0.12137   0.00000  Uiso   1.00
C19    C     0.46076   0.62912   0.14515   0.00000  Uiso   1.00
C20    C     0.42957   0.60838   0.17983   0.00000  Uiso   1.00
C21    C     0.45714   0.92052   0.08154   0.00000  Uiso   1.00
C22    C     0.51980   0.99508   0.07186   0.00000  Uiso   1.00
C23    C     0.51562   0.14172   0.07302   0.00000  Uiso   1.00
H24    H     0.28047   0.94173   0.10967   0.00000  Uiso   1.00
H25    H     0.20571   0.83005   0.05602   0.00000  Uiso   1.00
H26    H     0.27931   0.82432   0.17461   0.00000  Uiso   1.00
H27    H     0.33835   0.19021   0.10132   0.00000  Uiso   1.00
H28    H     0.15128   0.67558   0.99194   0.00000  Uiso   1.00
H29    H     0.30649   0.66352   0.24198   0.00000  Uiso   1.00
H30    H     0.43098   0.43509   0.08745   0.00000  Uiso   1.00
H31    H     0.49984   0.70577   0.07405   0.00000  Uiso   1.00
H32    H     0.43712   0.58115   0.01844   0.00000  Uiso   1.00
H33    H     0.51072   0.57541   0.13703   0.00000  Uiso   1.00
H34    H     0.56975   0.94131   0.06375   0.00000  Uiso   1.00
H35    H     0.33910   0.47356   0.96144   0.00000  Uiso   1.00
H36    H     0.49431   0.46150   0.21148   0.00000  Uiso   1.00
H37    H     0.61879   0.23307   0.05695   0.00000  Uiso   1.00
O38    O     0.19996   0.49681   0.94076   0.00000  Uiso   1.00
O39    O     0.40360   0.48102   0.26881   0.00000  Uiso   1.00
O40    O     0.56692   0.49329   0.06607   0.00000  Uiso   1.00
N41    N     0.20410   0.64516   0.99238   0.00000  Uiso   1.00
N42    N     0.34920   0.63387   0.22616   0.00000  Uiso   1.00
N43    N     0.46559   0.35522   0.08170   0.00000  Uiso   1.00
N44    N     0.30516   0.53645   0.97597   0.00000  Uiso   1.00
N45    N     0.45027   0.52516   0.20975   0.00000  Uiso   1.00
N46    N     0.56665   0.24651   0.06528   0.00000  Uiso   1.00
C47    C     0.16927   0.61233   0.60150   0.00000  Uiso   1.00
C48    C     0.17947   0.70571   0.56742   0.00000  Uiso   1.00
C49    C     0.24434   0.72369   0.54790   0.00000  Uiso   1.00
C50    C     0.24238   0.81368   0.51749   0.00000  Uiso   1.00
C51    C     0.26804   0.94817   0.46617   0.00000  Uiso   1.00
C52    C     0.13948   0.70885   0.63185   0.00000  Uiso   1.00
C53    C     0.17073   0.72944   0.66650   0.00000  Uiso   1.00
C54    C     0.13510   0.82205   0.69033   0.00000  Uiso   1.00
C55    C     0.09866   0.96133   0.73905   0.00000  Uiso   1.00
C56    C     0.10741   0.51005   0.59203   0.00000  Uiso   1.00
C57    C     0.11169   0.36348   0.59321   0.00000  Uiso   1.00
C58    C     0.04905   0.28872   0.58353   0.00000  Uiso   1.00
C59    C     0.96281   0.11933   0.57041   0.00000  Uiso   1.00
C60    C     0.05042   0.74016   0.58221   0.00000  Uiso   1.00
C61    C     0.11491   0.77515   0.55694   0.00000  Uiso   1.00
C62    C     0.11285   0.86513   0.52655   0.00000  Uiso   1.00
C63    C     0.17771   0.88324   0.50699   0.00000  Uiso   1.00
C64    C     0.07493   0.77828   0.62137   0.00000  Uiso   1.00
C65    C     0.03924   0.87088   0.64515   0.00000  Uiso   1.00
C66    C     0.07043   0.89162   0.67983   0.00000  Uiso   1.00
C67    C     0.04286   0.57948   0.58154   0.00000  Uiso   1.00
C68    C     0.98020   0.50492   0.57186   0.00000  Uiso   1.00
C69    C     0.98438   0.35828   0.57302   0.00000  Uiso   1.00
H70    H     0.21953   0.55827   0.60967   0.00000  Uiso   1.00
H71    H     0.29429   0.66995   0.55602   0.00000  Uiso   1.00
H72    H     0.22069   0.67568   0.67461   0.00000  Uiso   1.00
H73    H     0.16165   0.30979   0.60132   0.00000  Uiso   1.00
H74    H     0.34872   0.82442   0.49194   0.00000  Uiso   1.00
H75    H     0.19351   0.83648   0.74198   0.00000  Uiso   1.00
H76    H     0.06902   0.06491   0.58745   0.00000  Uiso   1.00
H77    H     0.00016   0.79423   0.57405   0.00000  Uiso   1.00
H78    H     0.06288   0.91885   0.51844   0.00000  Uiso   1.00
H79    H     0.98928   0.92459   0.63703   0.00000  Uiso   1.00
H80    H     0.93025   0.55869   0.56375   0.00000  Uiso   1.00
H81    H     0.16090   0.02644   0.46144   0.00000  Uiso   1.00
H82    H     0.00569   0.03850   0.71148   0.00000  Uiso   1.00
H83    H     0.88121   0.26693   0.55695   0.00000  Uiso   1.00
O84    O     0.30004   0.00319   0.44076   0.00000  Uiso   1.00
O85    O     0.09640   0.01898   0.76881   0.00000  Uiso   1.00
O86    O     0.93308   0.00671   0.56607   0.00000  Uiso   1.00
N87    N     0.29590   0.85484   0.49238   0.00000  Uiso   1.00
N88    N     0.15080   0.86613   0.72616   0.00000  Uiso   1.00
N89    N     0.03441   0.14478   0.58170   0.00000  Uiso   1.00
N90    N     0.19484   0.96355   0.47597   0.00000  Uiso   1.00
N91    N     0.04973   0.97484   0.70975   0.00000  Uiso   1.00
N92    N     0.93335   0.25349   0.56528   0.00000  Uiso   1.00
C93    C     0.66927   0.88767   0.39850   0.00000  Uiso   1.00
C94    C     0.67947   0.79429   0.43258   0.00000  Uiso   1.00
C95    C     0.74434   0.77631   0.45210   0.00000  Uiso   1.00
C96    C     0.74238   0.68632   0.48251   0.00000  Uiso   1.00
C97    C     0.76804   0.55183   0.53383   0.00000  Uiso   1.00
C98    C     0.63948   0.79115   0.36815   0.00000  Uiso   1.00
C99    C     0.67073   0.77056   0.33350   0.00000  Uiso   1.00
C100   C     0.63510   0.67795   0.30967   0.00000  Uiso   1.00
C101   C     0.59866   0.53867   0.26095   0.00000  Uiso   1.00
C102   C     0.60741   0.98995   0.40797   0.00000  Uiso   1.00
C103   C     0.61169   0.13652   0.40679   0.00000  Uiso   1.00
C104   C     0.54905   0.21128   0.41647   0.00000  Uiso   1.00
C105   C     0.46281   0.38067   0.42959   0.00000  Uiso   1.00
C106   C     0.55042   0.75984   0.41779   0.00000  Uiso   1.00
C107   C     0.61491   0.72485   0.44306   0.00000  Uiso   1.00
C108   C     0.61285   0.63487   0.47345   0.00000  Uiso   1.00
C109   C     0.67771   0.61676   0.49301   0.00000  Uiso   1.00
C110   C     0.57493   0.72172   0.37863   0.00000  Uiso   1.00
C111   C     0.53924   0.62912   0.35485   0.00000  Uiso   1.00
C112   C     0.57043   0.60838   0.32017   0.00000  Uiso   1.00
C113   C     0.54286   0.92052   0.41846   0.00000  Uiso   1.00
C114   C     0.48020   0.99508   0.42814   0.00000  Uiso   1.00
C115   C     0.48438   0.14172   0.42698   0.00000  Uiso   1.00
H116   H     0.71953   0.94173   0.39033   0.00000  Uiso   1.00
H117   H     0.79429   0.83005   0.44398   0.00000  Uiso   1.00
H118   H     0.72069   0.82432   0.32539   0.00000  Uiso   1.00
H119   H     0.66165   0.19021   0.39868   0.00000  Uiso   1.00
H120   H     0.84872   0.67558   0.50806   0.00000  Uiso   1.00
H121   H     0.69351   0.66352   0.25802   0.00000  Uiso   1.00
H122   H     0.56902   0.43509   0.41255   0.00000  Uiso   1.00
H123   H     0.50016   0.70577   0.42595   0.00000  Uiso   1.00
H124   H     0.56288   0.58115   0.48156   0.00000  Uiso   1.00
H125   H     0.48928   0.57541   0.36297   0.00000  Uiso   1.00
H126   H     0.43025   0.94131   0.43625   0.00000  Uiso   1.00
H127   H     0.66090   0.47356   0.53856   0.00000  Uiso   1.00
H128   H     0.50569   0.46150   0.28852   0.00000  Uiso   1.00
H129   H     0.38121   0.23307   0.44305   0.00000  Uiso   1.00
O130   O     0.80004   0.49681   0.55924   0.00000  Uiso   1.00
O131   O     0.59640   0.48102   0.23119   0.00000  Uiso   1.00
O132   O     0.43308   0.49329   0.43393   0.00000  Uiso   1.00
N133   N     0.79590   0.64516   0.50762   0.00000  Uiso   1.00
N134   N     0.65080   0.63387   0.27384   0.00000  Uiso   1.00
N135   N     0.53441   0.35522   0.41830   0.00000  Uiso   1.00
N136   N     0.69484   0.53645   0.52403   0.00000  Uiso   1.00
N137   N     0.54973   0.52516   0.29025   0.00000  Uiso   1.00
N138   N     0.43335   0.24651   0.43472   0.00000  Uiso   1.00
C139   C     0.83073   0.61233   0.89850   0.00000  Uiso   1.00
C140   C     0.82053   0.70571   0.93258   0.00000  Uiso   1.00
C141   C     0.75566   0.72369   0.95210   0.00000  Uiso   1.00
C142   C     0.75762   0.81368   0.98251   0.00000  Uiso   1.00
C143   C     0.73196   0.94817   0.03383   0.00000  Uiso   1.00
C144   C     0.86052   0.70885   0.86815   0.00000  Uiso   1.00
C145   C     0.82927   0.72944   0.83350   0.00000  Uiso   1.00
C146   C     0.86490   0.82205   0.80967   0.00000  Uiso   1.00
C147   C     0.90134   0.96133   0.76095   0.00000  Uiso   1.00
C148   C     0.89259   0.51005   0.90797   0.00000  Uiso   1.00
C149   C     0.88831   0.36348   0.90679   0.00000  Uiso   1.00
C150   C     0.95095   0.28872   0.91647   0.00000  Uiso   1.00
C151   C     0.03719   0.11933   0.92959   0.00000  Uiso   1.00
C152   C     0.94958   0.74016   0.91779   0.00000  Uiso   1.00
C153   C     0.88509   0.77515   0.94306   0.00000  Uiso   1.00
C154   C     0.88715   0.86513   0.97345   0.00000  Uiso   1.00
C155   C     0.82229   0.88324   0.99301   0.00000  Uiso   1.00
C156   C     0.92507   0.77828   0.87863   0.00000  Uiso   1.00
C157   C     0.96076   0.87088   0.85485   0.00000  Uiso   1.00
C158   C     0.92957   0.89162   0.82017   0.00000  Uiso   1.00
C159   C     0.95714   0.57948   0.91846   0.00000  Uiso   1.00
C160   C     0.01980   0.50492   0.92814   0.00000  Uiso   1.00
C161   C     0.01562   0.35828   0.92698   0.00000  Uiso   1.00
H162   H     0.78047   0.55827   0.89033   0.00000  Uiso   1.00
H163   H     0.70571   0.66995   0.94398   0.00000  Uiso   1.00
H164   H     0.77931   0.67568   0.82539   0.00000  Uiso   1.00
H165   H     0.83835   0.30979   0.89868   0.00000  Uiso   1.00
H166   H     0.65128   0.82442   0.00806   0.00000  Uiso   1.00
H167   H     0.80649   0.83648   0.75802   0.00000  Uiso   1.00
H168   H     0.93098   0.06491   0.91255   0.00000  Uiso   1.00
H169   H     0.99984   0.79423   0.92595   0.00000  Uiso   1.00
H170   H     0.93712   0.91885   0.98156   0.00000  Uiso   1.00
H171   H     0.01072   0.92459   0.86297   0.00000  Uiso   1.00
H172   H     0.06975   0.55869   0.93625   0.00000  Uiso   1.00
H173   H     0.83910   0.02644   0.03856   0.00000  Uiso   1.00
H174   H     0.99431   0.03850   0.78852   0.00000  Uiso   1.00
H175   H     0.11879   0.26693   0.94305   0.00000  Uiso   1.00
O176   O     0.69996   0.00319   0.05924   0.00000  Uiso   1.00
O177   O     0.90360   0.01898   0.73119   0.00000  Uiso   1.00
O178   O     0.06692   0.00671   0.93393   0.00000  Uiso   1.00
N179   N     0.70410   0.85484   0.00762   0.00000  Uiso   1.00
N180   N     0.84920   0.86613   0.77384   0.00000  Uiso   1.00
N181   N     0.96559   0.14478   0.91830   0.00000  Uiso   1.00
N182   N     0.80516   0.96355   0.02403   0.00000  Uiso   1.00
N183   N     0.95027   0.97484   0.79025   0.00000  Uiso   1.00
N184   N     0.06665   0.25349   0.93472   0.00000  Uiso   1.00
C185   C     0.66927   0.11233   0.89850   0.00000  Uiso   1.00
C186   C     0.67947   0.20571   0.93258   0.00000  Uiso   1.00
C187   C     0.74434   0.22369   0.95210   0.00000  Uiso   1.00
C188   C     0.74238   0.31368   0.98251   0.00000  Uiso   1.00
C189   C     0.76804   0.44817   0.03383   0.00000  Uiso   1.00
C190   C     0.63948   0.20885   0.86815   0.00000  Uiso   1.00
C191   C     0.67073   0.22944   0.83350   0.00000  Uiso   1.00
C192   C     0.63510   0.32205   0.80967   0.00000  Uiso   1.00
C193   C     0.59866   0.46133   0.76095   0.00000  Uiso   1.00
C194   C     0.60741   0.01005   0.90797   0.00000  Uiso   1.00
C195   C     0.61169   0.86348   0.90679   0.00000  Uiso   1.00
C196   C     0.54905   0.78872   0.91647   0.00000  Uiso   1.00
C197   C     0.46281   0.61933   0.92959   0.00000  Uiso   1.00
C198   C     0.55042   0.24016   0.91779   0.00000  Uiso   1.00
C199   C     0.61491   0.27515   0.94306   0.00000  Uiso   1.00
C200   C     0.61285   0.36513   0.97345   0.00000  Uiso   1.00
C201   C     0.67771   0.38324   0.99301   0.00000  Uiso   1.00
C202   C     0.57493   0.27828   0.87863   0.00000  Uiso   1.00
C203   C     0.53924   0.37088   0.85485   0.00000  Uiso   1.00
C204   C     0.57043   0.39162   0.82017   0.00000  Uiso   1.00
C205   C     0.54286   0.07948   0.91846   0.00000  Uiso   1.00
C206   C     0.48020   0.00492   0.92814   0.00000  Uiso   1.00
C207   C     0.48438   0.85828   0.92698   0.00000  Uiso   1.00
H208   H     0.71953   0.05827   0.89033   0.00000  Uiso   1.00
H209   H     0.79429   0.16995   0.94398   0.00000  Uiso   1.00
H210   H     0.72069   0.17568   0.82539   0.00000  Uiso   1.00
H211   H     0.66165   0.80979   0.89868   0.00000  Uiso   1.00
H212   H     0.84872   0.32442   0.00806   0.00000  Uiso   1.00
H213   H     0.69351   0.33648   0.75802   0.00000  Uiso   1.00
H214   H     0.56902   0.56491   0.91255   0.00000  Uiso   1.00
H215   H     0.50016   0.29423   0.92595   0.00000  Uiso   1.00
H216   H     0.56288   0.41885   0.98156   0.00000  Uiso   1.00
H217   H     0.48928   0.42459   0.86297   0.00000  Uiso   1.00
H218   H     0.43025   0.05869   0.93625   0.00000  Uiso   1.00
H219   H     0.66090   0.52644   0.03856   0.00000  Uiso   1.00
H220   H     0.50569   0.53850   0.78852   0.00000  Uiso   1.00
H221   H     0.38121   0.76693   0.94305   0.00000  Uiso   1.00
O222   O     0.80004   0.50319   0.05924   0.00000  Uiso   1.00
O223   O     0.59640   0.51898   0.73119   0.00000  Uiso   1.00
O224   O     0.43308   0.50671   0.93393   0.00000  Uiso   1.00
N225   N     0.79590   0.35484   0.00762   0.00000  Uiso   1.00
N226   N     0.65080   0.36613   0.77384   0.00000  Uiso   1.00
N227   N     0.53441   0.64478   0.91830   0.00000  Uiso   1.00
N228   N     0.69484   0.46355   0.02403   0.00000  Uiso   1.00
N229   N     0.54973   0.47484   0.79025   0.00000  Uiso   1.00
N230   N     0.43335   0.75349   0.93472   0.00000  Uiso   1.00
C231   C     0.83073   0.38767   0.39850   0.00000  Uiso   1.00
C232   C     0.82053   0.29429   0.43258   0.00000  Uiso   1.00
C233   C     0.75566   0.27631   0.45210   0.00000  Uiso   1.00
C234   C     0.75762   0.18632   0.48251   0.00000  Uiso   1.00
C235   C     0.73196   0.05183   0.53383   0.00000  Uiso   1.00
C236   C     0.86052   0.29115   0.36815   0.00000  Uiso   1.00
C237   C     0.82927   0.27056   0.33350   0.00000  Uiso   1.00
C238   C     0.86490   0.17795   0.30967   0.00000  Uiso   1.00
C239   C     0.90134   0.03867   0.26095   0.00000  Uiso   1.00
C240   C     0.89259   0.48995   0.40797   0.00000  Uiso   1.00
C241   C     0.88831   0.63652   0.40679   0.00000  Uiso   1.00
C242   C     0.95095   0.71128   0.41647   0.00000  Uiso   1.00
C243   C     0.03719   0.88067   0.42959   0.00000  Uiso   1.00
C244   C     0.94958   0.25984   0.41779   0.00000  Uiso   1.00
C245   C     0.88509   0.22485   0.44306   0.00000  Uiso   1.00
C246   C     0.88715   0.13487   0.47345   0.00000  Uiso   1.00
C247   C     0.82229   0.11676   0.49301   0.00000  Uiso   1.00
C248   C     0.92507   0.22172   0.37863   0.00000  Uiso   1.00
C249   C     0.96076   0.12912   0.35485   0.00000  Uiso   1.00
C250   C     0.92957   0.10838   0.32017   0.00000  Uiso   1.00
C251   C     0.95714   0.42052   0.41846   0.00000  Uiso   1.00
C252   C     0.01980   0.49508   0.42814   0.00000  Uiso   1.00
C253   C     0.01562   0.64172   0.42698   0.00000  Uiso   1.00
H254   H     0.78047   0.44173   0.39033   0.00000  Uiso   1.00
H255   H     0.70571   0.33005   0.44398   0.00000  Uiso   1.00
H256   H     0.77931   0.32432   0.32539   0.00000  Uiso   1.00
H257   H     0.83835   0.69021   0.39868   0.00000  Uiso   1.00
H258   H     0.65128   0.17558   0.50806   0.00000  Uiso   1.00
H259   H     0.80649   0.16352   0.25802   0.00000  Uiso   1.00
H260   H     0.93098   0.93509   0.41255   0.00000  Uiso   1.00
H261   H     0.99984   0.20577   0.42595   0.00000  Uiso   1.00
H262   H     0.93712   0.08115   0.48156   0.00000  Uiso   1.00
H263   H     0.01072   0.07541   0.36297   0.00000  Uiso   1.00
H264   H     0.06975   0.44131   0.43625   0.00000  Uiso   1.00
H265   H     0.83910   0.97356   0.53856   0.00000  Uiso   1.00
H266   H     0.99431   0.96150   0.28852   0.00000  Uiso   1.00
H267   H     0.11879   0.73307   0.44305   0.00000  Uiso   1.00
O268   O     0.69996   0.99681   0.55924   0.00000  Uiso   1.00
O269   O     0.90360   0.98102   0.23119   0.00000  Uiso   1.00
O270   O     0.06692   0.99329   0.43393   0.00000  Uiso   1.00
N271   N     0.70410   0.14516   0.50762   0.00000  Uiso   1.00
N272   N     0.84920   0.13387   0.27384   0.00000  Uiso   1.00
N273   N     0.96559   0.85522   0.41830   0.00000  Uiso   1.00
N274   N     0.80516   0.03645   0.52403   0.00000  Uiso   1.00
N275   N     0.95027   0.02516   0.29025   0.00000  Uiso   1.00
N276   N     0.06665   0.74651   0.43472   0.00000  Uiso   1.00
C277   C     0.33073   0.11233   0.60150   0.00000  Uiso   1.00
C278   C     0.32053   0.20571   0.56742   0.00000  Uiso   1.00
C279   C     0.25566   0.22369   0.54790   0.00000  Uiso   1.00
C280   C     0.25762   0.31368   0.51749   0.00000  Uiso   1.00
C281   C     0.23196   0.44817   0.46617   0.00000  Uiso   1.00
C282   C     0.36052   0.20885   0.63185   0.00000  Uiso   1.00
C283   C     0.32927   0.22944   0.66650   0.00000  Uiso   1.00
C284   C     0.36490   0.32205   0.69033   0.00000  Uiso   1.00
C285   C     0.40134   0.46133   0.73905   0.00000  Uiso   1.00
C286   C     0.39259   0.01005   0.59203   0.00000  Uiso   1.00
C287   C     0.38831   0.86348   0.59321   0.00000  Uiso   1.00
C288   C     0.45095   0.78872   0.58353   0.00000  Uiso   1.00
C289   C     0.53719   0.61933   0.57041   0.00000  Uiso   1.00
C290   C     0.44958   0.24016   0.58221   0.00000  Uiso   1.00
C291   C     0.38509   0.27515   0.55694   0.00000  Uiso   1.00
C292   C     0.38715   0.36513   0.52655   0.00000  Uiso   1.00
C293   C     0.32229   0.38324   0.50699   0.00000  Uiso   1.00
C294   C     0.42507   0.27828   0.62137   0.00000  Uiso   1.00
C295   C     0.46076   0.37088   0.64515   0.00000  Uiso   1.00
C296   C     0.42957   0.39162   0.67983   0.00000  Uiso   1.00
C297   C     0.45714   0.07948   0.58154   0.00000  Uiso   1.00
C298   C     0.51980   0.00492   0.57186   0.00000  Uiso   1.00
C299   C     0.51562   0.85828   0.57302   0.00000  Uiso   1.00
H300   H     0.28047   0.05827   0.60967   0.00000  Uiso   1.00
H301   H     0.20571   0.16995   0.55602   0.00000  Uiso   1.00
H302   H     0.27931   0.17568   0.67461   0.00000  Uiso   1.00
H303   H     0.33835   0.80979   0.60132   0.00000  Uiso   1.00
H304   H     0.15128   0.32442   0.49194   0.00000  Uiso   1.00
H305   H     0.30649   0.33648   0.74198   0.00000  Uiso   1.00
H306   H     0.43098   0.56491   0.58745   0.00000  Uiso   1.00
H307   H     0.49984   0.29423   0.57405   0.00000  Uiso   1.00
H308   H     0.43712   0.41885   0.51844   0.00000  Uiso   1.00
H309   H     0.51072   0.42459   0.63703   0.00000  Uiso   1.00
H310   H     0.56975   0.05869   0.56375   0.00000  Uiso   1.00
H311   H     0.33910   0.52644   0.46144   0.00000  Uiso   1.00
H312   H     0.49431   0.53850   0.71148   0.00000  Uiso   1.00
H313   H     0.61879   0.76693   0.55695   0.00000  Uiso   1.00
O314   O     0.19996   0.50319   0.44076   0.00000  Uiso   1.00
O315   O     0.40360   0.51898   0.76881   0.00000  Uiso   1.00
O316   O     0.56692   0.50671   0.56607   0.00000  Uiso   1.00
N317   N     0.20410   0.35484   0.49238   0.00000  Uiso   1.00
N318   N     0.34920   0.36613   0.72616   0.00000  Uiso   1.00
N319   N     0.46559   0.64478   0.58170   0.00000  Uiso   1.00
N320   N     0.30516   0.46355   0.47597   0.00000  Uiso   1.00
N321   N     0.45027   0.47484   0.70975   0.00000  Uiso   1.00
N322   N     0.56665   0.75349   0.56528   0.00000  Uiso   1.00
C323   C     0.16927   0.38767   0.10150   0.00000  Uiso   1.00
C324   C     0.17947   0.29429   0.06742   0.00000  Uiso   1.00
C325   C     0.24434   0.27631   0.04790   0.00000  Uiso   1.00
C326   C     0.24238   0.18632   0.01749   0.00000  Uiso   1.00
C327   C     0.26804   0.05183   0.96617   0.00000  Uiso   1.00
C328   C     0.13948   0.29115   0.13185   0.00000  Uiso   1.00
C329   C     0.17073   0.27056   0.16650   0.00000  Uiso   1.00
C330   C     0.13510   0.17795   0.19033   0.00000  Uiso   1.00
C331   C     0.09866   0.03867   0.23905   0.00000  Uiso   1.00
C332   C     0.10741   0.48995   0.09203   0.00000  Uiso   1.00
C333   C     0.11169   0.63652   0.09321   0.00000  Uiso   1.00
C334   C     0.04905   0.71128   0.08353   0.00000  Uiso   1.00
C335   C     0.96281   0.88067   0.07041   0.00000  Uiso   1.00
C336   C     0.05042   0.25984   0.08221   0.00000  Uiso   1.00
C337   C     0.11491   0.22485   0.05694   0.00000  Uiso   1.00
C338   C     0.11285   0.13487   0.02655   0.00000  Uiso   1.00
C339   C     0.17771   0.11676   0.00699   0.00000  Uiso   1.00
C340   C     0.07493   0.22172   0.12137   0.00000  Uiso   1.00
C341   C     0.03924   0.12912   0.14515   0.00000  Uiso   1.00
C342   C     0.07043   0.10838   0.17983   0.00000  Uiso   1.00
C343   C     0.04286   0.42052   0.08154   0.00000  Uiso   1.00
C344   C     0.98020   0.49508   0.07186   0.00000  Uiso   1.00
C345   C     0.98438   0.64172   0.07302   0.00000  Uiso   1.00
H346   H     0.21953   0.44173   0.10967   0.00000  Uiso   1.00
H347   H     0.29429   0.33005   0.05602   0.00000  Uiso   1.00
H348   H     0.22069   0.32432   0.17461   0.00000  Uiso   1.00
H349   H     0.16165   0.69021   0.10132   0.00000  Uiso   1.00
H350   H     0.34872   0.17558   0.99194   0.00000  Uiso   1.00
H351   H     0.19351   0.16352   0.24198   0.00000  Uiso   1.00
H352   H     0.06902   0.93509   0.08745   0.00000  Uiso   1.00
H353   H     0.00016   0.20577   0.07405   0.00000  Uiso   1.00
H354   H     0.06288   0.08115   0.01844   0.00000  Uiso   1.00
H355   H     0.98928   0.07541   0.13703   0.00000  Uiso   1.00
H356   H     0.93025   0.44131   0.06375   0.00000  Uiso   1.00
H357   H     0.16090   0.97356   0.96144   0.00000  Uiso   1.00
H358   H     0.00569   0.96150   0.21148   0.00000  Uiso   1.00
H359   H     0.88121   0.73307   0.05695   0.00000  Uiso   1.00
O360   O     0.30004   0.99681   0.94076   0.00000  Uiso   1.00
O361   O     0.09640   0.98102   0.26881   0.00000  Uiso   1.00
O362   O     0.93308   0.99329   0.06607   0.00000  Uiso   1.00
N363   N     0.29590   0.14516   0.99238   0.00000  Uiso   1.00
N364   N     0.15080   0.13387   0.22616   0.00000  Uiso   1.00
N365   N     0.03441   0.85522   0.08170   0.00000  Uiso   1.00
N366   N     0.19484   0.03645   0.97597   0.00000  Uiso   1.00
N367   N     0.04973   0.02516   0.20975   0.00000  Uiso   1.00
N368   N     0.93335   0.74651   0.06528   0.00000  Uiso   1.00
