data_job_01905
_audit_creation_date              2018-12-19
_audit_creation_method            'Materials Studio'
_symmetry_space_group_name_H-M    'P1'
_symmetry_Int_Tables_number       1
_symmetry_cell_setting            triclinic
loop_
_symmetry_equiv_pos_as_xyz
  x,y,z
_cell_length_a                    30.7136
_cell_length_b                    23.8748
_cell_length_c                    12.5559
_cell_angle_alpha                 90.0000
_cell_angle_beta                  90.0000
_cell_angle_gamma                 90.0000
loop_
_atom_site_label
_atom_site_type_symbol
_atom_site_fract_x
_atom_site_fract_y
_atom_site_fract_z
_atom_site_U_iso_or_equiv
_atom_site_adp_type
_atom_site_occupancy
C1     C     0.41892  -0.00001   0.68938   0.00000  Uiso   1.00
C2     C     0.39541   0.99999   0.79636   0.00000  Uiso   1.00
C3     C     0.35061   0.99998   0.81074   0.00000  Uiso   1.00
C4     C     0.33552   0.99996   0.91497   0.00000  Uiso   1.00
C5     C     0.29465   0.99993   0.06790   0.00000  Uiso   1.00
C6     C     0.44878   0.94897   0.69055   0.00000  Uiso   1.00
C7     C     0.44886   0.90607   0.61596   0.00000  Uiso   1.00
C8     C     0.47870   0.86312   0.63112   0.00000  Uiso   1.00
C9     C     0.52071   0.78390   0.61974   0.00000  Uiso   1.00
C10    C     0.44878   0.05101   0.69054   0.00000  Uiso   1.00
C11    C     0.44886   0.09390   0.61594   0.00000  Uiso   1.00
C12    C     0.47871   0.13686   0.63108   0.00000  Uiso   1.00
C13    C     0.52072   0.21607   0.61969   0.00000  Uiso   1.00
C14    C     0.47177  -0.00001   0.84890   0.00000  Uiso   1.00
C15    C     0.42412   0.99999   0.88300   0.00000  Uiso   1.00
C16    C     0.40909   0.99998   0.98724   0.00000  Uiso   1.00
C17    C     0.36428   0.99997   0.00177   0.00000  Uiso   1.00
C18    C     0.47749   0.94897   0.77719   0.00000  Uiso   1.00
C19    C     0.50734   0.90607   0.79246   0.00000  Uiso   1.00
C20    C     0.50746   0.86312   0.71792   0.00000  Uiso   1.00
C21    C     0.47749   0.05102   0.77719   0.00000  Uiso   1.00
C22    C     0.50734   0.09391   0.79244   0.00000  Uiso   1.00
C23    C     0.50747   0.13686   0.71788   0.00000  Uiso   1.00
H24    H     0.39657   0.99999   0.62192   0.00000  Uiso   1.00
H25    H     0.32840   0.99997   0.74366   0.00000  Uiso   1.00
H26    H     0.42664   0.90608   0.54891   0.00000  Uiso   1.00
H27    H     0.42664   0.09389   0.54890   0.00000  Uiso   1.00
H28    H     0.26549   0.99993   0.91685   0.00000  Uiso   1.00
H29    H     0.47264   0.80197   0.50620   0.00000  Uiso   1.00
H30    H     0.47265   0.19800   0.50615   0.00000  Uiso   1.00
H31    H     0.49413  -0.00001   0.91636   0.00000  Uiso   1.00
H32    H     0.43132   0.99998   0.05428   0.00000  Uiso   1.00
H33    H     0.52955   0.90609   0.85952   0.00000  Uiso   1.00
H34    H     0.52956   0.09389   0.85951   0.00000  Uiso   1.00
H35    H     0.34902   0.99993   0.16896   0.00000  Uiso   1.00
H36    H     0.55617   0.80198   0.75829   0.00000  Uiso   1.00
H37    H     0.55617   0.19800   0.75826   0.00000  Uiso   1.00
O38    O     0.26418   0.99990   0.12832   0.00000  Uiso   1.00
O39    O     0.53595   0.74020   0.58953   0.00000  Uiso   1.00
O40    O     0.53596   0.25977   0.58948   0.00000  Uiso   1.00
N41    N     0.29377   0.99994   0.95726   0.00000  Uiso   1.00
N42    N     0.48744   0.81486   0.57333   0.00000  Uiso   1.00
N43    N     0.48745   0.18510   0.57327   0.00000  Uiso   1.00
N44    N     0.33872   0.99995   0.09292   0.00000  Uiso   1.00
N45    N     0.53238   0.81486   0.70898   0.00000  Uiso   1.00
N46    N     0.53240   0.18511   0.70893   0.00000  Uiso   1.00
C47    C     0.06237   0.99999   0.30923   0.00000  Uiso   1.00
C48    C     0.08520   0.99998   0.20138   0.00000  Uiso   1.00
C49    C     0.12990   0.99997   0.18532   0.00000  Uiso   1.00
C50    C     0.14434   0.99996   0.08054   0.00000  Uiso   1.00
C51    C     0.18424   0.99992   0.92609   0.00000  Uiso   1.00
C52    C     0.03250   0.94897   0.30918   0.00000  Uiso   1.00
C53    C     0.03289   0.90607   0.38376   0.00000  Uiso   1.00
C54    C     0.00296   0.86311   0.36973   0.00000  Uiso   1.00
C55    C     0.96102   0.78389   0.38269   0.00000  Uiso   1.00
C56    C     0.03250   0.05101   0.30918   0.00000  Uiso   1.00
C57    C     0.03288   0.09390   0.38378   0.00000  Uiso   1.00
C58    C     0.00295   0.13685   0.36976   0.00000  Uiso   1.00
C59    C     0.96101   0.21607   0.38272   0.00000  Uiso   1.00
C60    C     0.00851   0.99999   0.15171   0.00000  Uiso   1.00
C61    C     0.05595   0.99998   0.11583   0.00000  Uiso   1.00
C62    C     0.07032   0.99997   0.01104   0.00000  Uiso   1.00
C63    C     0.11504   0.99996   0.99482   0.00000  Uiso   1.00
C64    C     0.00325   0.94897   0.22363   0.00000  Uiso   1.00
C65    C     0.97331   0.90607   0.20948   0.00000  Uiso   1.00
C66    C     0.97366   0.86311   0.28402   0.00000  Uiso   1.00
C67    C     0.00325   0.05101   0.22362   0.00000  Uiso   1.00
C68    C     0.97330   0.09390   0.20949   0.00000  Uiso   1.00
C69    C     0.97364   0.13685   0.28405   0.00000  Uiso   1.00
H70    H     0.08514   0.99998   0.37585   0.00000  Uiso   1.00
H71    H     0.15253   0.99996   0.25156   0.00000  Uiso   1.00
H72    H     0.05553   0.90608   0.44997   0.00000  Uiso   1.00
H73    H     0.05552   0.09388   0.44998   0.00000  Uiso   1.00
H74    H     0.21434   0.99992   0.07602   0.00000  Uiso   1.00
H75    H     0.00980   0.80197   0.49442   0.00000  Uiso   1.00
H76    H     0.00979   0.19799   0.49444   0.00000  Uiso   1.00
H77    H     0.98574   0.99999   0.08510   0.00000  Uiso   1.00
H78    H     0.04768   0.99997   0.94484   0.00000  Uiso   1.00
H79    H     0.95068   0.90608   0.14326   0.00000  Uiso   1.00
H80    H     0.95067   0.09389   0.14327   0.00000  Uiso   1.00
H81    H     0.12924   0.99992   0.82708   0.00000  Uiso   1.00
H82    H     0.92470   0.80197   0.24548   0.00000  Uiso   1.00
H83    H     0.92469   0.19799   0.24550   0.00000  Uiso   1.00
O84    O     0.21433   0.99989   0.86454   0.00000  Uiso   1.00
O85    O     0.94597   0.74019   0.41347   0.00000  Uiso   1.00
O86    O     0.94597   0.25976   0.41350   0.00000  Uiso   1.00
N87    N     0.18581   0.99994   0.03668   0.00000  Uiso   1.00
N88    N     0.99458   0.81486   0.42785   0.00000  Uiso   1.00
N89    N     0.99457   0.18510   0.42789   0.00000  Uiso   1.00
N90    N     0.14002   0.99994   0.90273   0.00000  Uiso   1.00
N91    N     0.94879   0.81486   0.29389   0.00000  Uiso   1.00
N92    N     0.94878   0.18510   0.29394   0.00000  Uiso   1.00
C93    C     0.58108   0.00001   0.18938   0.00000  Uiso   1.00
C94    C     0.60459   0.00001   0.29636   0.00000  Uiso   1.00
C95    C     0.64939   0.00002   0.31074   0.00000  Uiso   1.00
C96    C     0.66448   0.00004   0.41497   0.00000  Uiso   1.00
C97    C     0.70535   0.00007   0.56790   0.00000  Uiso   1.00
C98    C     0.55122   0.05103   0.19055   0.00000  Uiso   1.00
C99    C     0.55114   0.09393   0.11596   0.00000  Uiso   1.00
C100   C     0.52130   0.13688   0.13112   0.00000  Uiso   1.00
C101   C     0.47929   0.21610   0.11974   0.00000  Uiso   1.00
C102   C     0.55122   0.94899   0.19054   0.00000  Uiso   1.00
C103   C     0.55114   0.90610   0.11594   0.00000  Uiso   1.00
C104   C     0.52129   0.86314   0.13108   0.00000  Uiso   1.00
C105   C     0.47928   0.78393   0.11969   0.00000  Uiso   1.00
C106   C     0.52823   0.00001   0.34890   0.00000  Uiso   1.00
C107   C     0.57588   0.00001   0.38300   0.00000  Uiso   1.00
C108   C     0.59091   0.00002   0.48724   0.00000  Uiso   1.00
C109   C     0.63572   0.00003   0.50177   0.00000  Uiso   1.00
C110   C     0.52251   0.05103   0.27719   0.00000  Uiso   1.00
C111   C     0.49266   0.09393   0.29246   0.00000  Uiso   1.00
C112   C     0.49254   0.13688   0.21792   0.00000  Uiso   1.00
C113   C     0.52251   0.94898   0.27719   0.00000  Uiso   1.00
C114   C     0.49266   0.90609   0.29244   0.00000  Uiso   1.00
C115   C     0.49253   0.86314   0.21788   0.00000  Uiso   1.00
H116   H     0.60343   0.00001   0.12192   0.00000  Uiso   1.00
H117   H     0.67160   0.00003   0.24366   0.00000  Uiso   1.00
H118   H     0.57336   0.09392   0.04891   0.00000  Uiso   1.00
H119   H     0.57336   0.90611   0.04890   0.00000  Uiso   1.00
H120   H     0.73451   0.00007   0.41685   0.00000  Uiso   1.00
H121   H     0.52736   0.19803   0.00620   0.00000  Uiso   1.00
H122   H     0.52735   0.80200   0.00615   0.00000  Uiso   1.00
H123   H     0.50587   0.00001   0.41636   0.00000  Uiso   1.00
H124   H     0.56868   0.00002   0.55428   0.00000  Uiso   1.00
H125   H     0.47045   0.09391   0.35952   0.00000  Uiso   1.00
H126   H     0.47044   0.90611   0.35951   0.00000  Uiso   1.00
H127   H     0.65098   0.00007   0.66896   0.00000  Uiso   1.00
H128   H     0.44383   0.19802   0.25829   0.00000  Uiso   1.00
H129   H     0.44383   0.80200   0.25826   0.00000  Uiso   1.00
O130   O     0.73582   0.00010   0.62832   0.00000  Uiso   1.00
O131   O     0.46405   0.25980   0.08953   0.00000  Uiso   1.00
O132   O     0.46404   0.74023   0.08948   0.00000  Uiso   1.00
N133   N     0.70623   0.00006   0.45726   0.00000  Uiso   1.00
N134   N     0.51256   0.18514   0.07333   0.00000  Uiso   1.00
N135   N     0.51255   0.81490   0.07327   0.00000  Uiso   1.00
N136   N     0.66128   0.00005   0.59292   0.00000  Uiso   1.00
N137   N     0.46762   0.18514   0.20898   0.00000  Uiso   1.00
N138   N     0.46760   0.81489   0.20893   0.00000  Uiso   1.00
C139   C     0.93763   0.00001   0.80923   0.00000  Uiso   1.00
C140   C     0.91480   0.00002   0.70138   0.00000  Uiso   1.00
C141   C     0.87010   0.00003   0.68532   0.00000  Uiso   1.00
C142   C     0.85566   0.00004   0.58054   0.00000  Uiso   1.00
C143   C     0.81576   0.00008   0.42609   0.00000  Uiso   1.00
C144   C     0.96750   0.05103   0.80918   0.00000  Uiso   1.00
C145   C     0.96711   0.09393   0.88376   0.00000  Uiso   1.00
C146   C     0.99704   0.13689   0.86973   0.00000  Uiso   1.00
C147   C     0.03898   0.21611   0.88269   0.00000  Uiso   1.00
C148   C     0.96750   0.94899   0.80918   0.00000  Uiso   1.00
C149   C     0.96712   0.90610   0.88378   0.00000  Uiso   1.00
C150   C     0.99705   0.86315   0.86976   0.00000  Uiso   1.00
C151   C     0.03899   0.78393   0.88272   0.00000  Uiso   1.00
C152   C     0.99149   0.00001   0.65171   0.00000  Uiso   1.00
C153   C     0.94405   0.00002   0.61583   0.00000  Uiso   1.00
C154   C     0.92968   0.00003   0.51104   0.00000  Uiso   1.00
C155   C     0.88496   0.00004   0.49482   0.00000  Uiso   1.00
C156   C     0.99675   0.05103   0.72363   0.00000  Uiso   1.00
C157   C     0.02669   0.09393   0.70948   0.00000  Uiso   1.00
C158   C     0.02634   0.13689   0.78402   0.00000  Uiso   1.00
C159   C     0.99675   0.94899   0.72362   0.00000  Uiso   1.00
C160   C     0.02670   0.90610   0.70949   0.00000  Uiso   1.00
C161   C     0.02636   0.86315   0.78405   0.00000  Uiso   1.00
H162   H     0.91486   0.00002   0.87585   0.00000  Uiso   1.00
H163   H     0.84747   0.00004   0.75156   0.00000  Uiso   1.00
H164   H     0.94447   0.09392   0.94997   0.00000  Uiso   1.00
H165   H     0.94448   0.90612   0.94998   0.00000  Uiso   1.00
H166   H     0.78566   0.00008   0.57602   0.00000  Uiso   1.00
H167   H     0.99020   0.19803   0.99442   0.00000  Uiso   1.00
H168   H     0.99021   0.80201   0.99444   0.00000  Uiso   1.00
H169   H     0.01426   0.00001   0.58510   0.00000  Uiso   1.00
H170   H     0.95232   0.00003   0.44484   0.00000  Uiso   1.00
H171   H     0.04932   0.09392   0.64326   0.00000  Uiso   1.00
H172   H     0.04933   0.90611   0.64327   0.00000  Uiso   1.00
H173   H     0.87076   0.00008   0.32708   0.00000  Uiso   1.00
H174   H     0.07530   0.19803   0.74548   0.00000  Uiso   1.00
H175   H     0.07531   0.80201   0.74550   0.00000  Uiso   1.00
O176   O     0.78567   0.00011   0.36454   0.00000  Uiso   1.00
O177   O     0.05403   0.25981   0.91347   0.00000  Uiso   1.00
O178   O     0.05403   0.74024   0.91350   0.00000  Uiso   1.00
N179   N     0.81419   0.00006   0.53668   0.00000  Uiso   1.00
N180   N     0.00542   0.18514   0.92785   0.00000  Uiso   1.00
N181   N     0.00543   0.81490   0.92789   0.00000  Uiso   1.00
N182   N     0.85998   0.00006   0.40273   0.00000  Uiso   1.00
N183   N     0.05121   0.18514   0.79389   0.00000  Uiso   1.00
N184   N     0.05122   0.81490   0.79394   0.00000  Uiso   1.00
C185   C     0.91892   0.50001   0.68938   0.00000  Uiso   1.00
C186   C     0.89541   0.50001   0.79636   0.00000  Uiso   1.00
C187   C     0.85061   0.50002   0.81074   0.00000  Uiso   1.00
C188   C     0.83552   0.50004   0.91497   0.00000  Uiso   1.00
C189   C     0.79465   0.50007   0.06790   0.00000  Uiso   1.00
C190   C     0.94878   0.55103   0.69055   0.00000  Uiso   1.00
C191   C     0.94886   0.59393   0.61596   0.00000  Uiso   1.00
C192   C     0.97870   0.63688   0.63112   0.00000  Uiso   1.00
C193   C     0.02071   0.71610   0.61974   0.00000  Uiso   1.00
C194   C     0.94878   0.44899   0.69054   0.00000  Uiso   1.00
C195   C     0.94886   0.40610   0.61594   0.00000  Uiso   1.00
C196   C     0.97871   0.36314   0.63108   0.00000  Uiso   1.00
C197   C     0.02072   0.28393   0.61969   0.00000  Uiso   1.00
C198   C     0.97177   0.50001   0.84890   0.00000  Uiso   1.00
C199   C     0.92412   0.50001   0.88300   0.00000  Uiso   1.00
C200   C     0.90909   0.50002   0.98724   0.00000  Uiso   1.00
C201   C     0.86428   0.50003   0.00177   0.00000  Uiso   1.00
C202   C     0.97749   0.55103   0.77719   0.00000  Uiso   1.00
C203   C     0.00734   0.59393   0.79246   0.00000  Uiso   1.00
C204   C     0.00746   0.63688   0.71792   0.00000  Uiso   1.00
C205   C     0.97749   0.44898   0.77719   0.00000  Uiso   1.00
C206   C     0.00734   0.40609   0.79244   0.00000  Uiso   1.00
C207   C     0.00747   0.36314   0.71788   0.00000  Uiso   1.00
H208   H     0.89657   0.50001   0.62192   0.00000  Uiso   1.00
H209   H     0.82840   0.50003   0.74366   0.00000  Uiso   1.00
H210   H     0.92664   0.59392   0.54891   0.00000  Uiso   1.00
H211   H     0.92664   0.40611   0.54890   0.00000  Uiso   1.00
H212   H     0.76549   0.50007   0.91685   0.00000  Uiso   1.00
H213   H     0.97264   0.69803   0.50620   0.00000  Uiso   1.00
H214   H     0.97265   0.30200   0.50615   0.00000  Uiso   1.00
H215   H     0.99413   0.50001   0.91636   0.00000  Uiso   1.00
H216   H     0.93132   0.50002   0.05428   0.00000  Uiso   1.00
H217   H     0.02955   0.59391   0.85952   0.00000  Uiso   1.00
H218   H     0.02956   0.40611   0.85951   0.00000  Uiso   1.00
H219   H     0.84902   0.50007   0.16896   0.00000  Uiso   1.00
H220   H     0.05617   0.69802   0.75829   0.00000  Uiso   1.00
H221   H     0.05617   0.30200   0.75826   0.00000  Uiso   1.00
O222   O     0.76418   0.50010   0.12832   0.00000  Uiso   1.00
O223   O     0.03595   0.75980   0.58953   0.00000  Uiso   1.00
O224   O     0.03596   0.24023   0.58948   0.00000  Uiso   1.00
N225   N     0.79377   0.50006   0.95726   0.00000  Uiso   1.00
N226   N     0.98744   0.68514   0.57333   0.00000  Uiso   1.00
N227   N     0.98745   0.31490   0.57327   0.00000  Uiso   1.00
N228   N     0.83872   0.50005   0.09292   0.00000  Uiso   1.00
N229   N     0.03238   0.68514   0.70898   0.00000  Uiso   1.00
N230   N     0.03240   0.31489   0.70893   0.00000  Uiso   1.00
C231   C     0.56237   0.50001   0.30923   0.00000  Uiso   1.00
C232   C     0.58520   0.50002   0.20138   0.00000  Uiso   1.00
C233   C     0.62990   0.50003   0.18532   0.00000  Uiso   1.00
C234   C     0.64434   0.50004   0.08054   0.00000  Uiso   1.00
C235   C     0.68424   0.50008   0.92609   0.00000  Uiso   1.00
C236   C     0.53250   0.55103   0.30918   0.00000  Uiso   1.00
C237   C     0.53289   0.59393   0.38376   0.00000  Uiso   1.00
C238   C     0.50296   0.63689   0.36973   0.00000  Uiso   1.00
C239   C     0.46102   0.71611   0.38269   0.00000  Uiso   1.00
C240   C     0.53250   0.44899   0.30918   0.00000  Uiso   1.00
C241   C     0.53288   0.40610   0.38378   0.00000  Uiso   1.00
C242   C     0.50295   0.36315   0.36976   0.00000  Uiso   1.00
C243   C     0.46101   0.28393   0.38272   0.00000  Uiso   1.00
C244   C     0.50851   0.50001   0.15171   0.00000  Uiso   1.00
C245   C     0.55595   0.50002   0.11583   0.00000  Uiso   1.00
C246   C     0.57032   0.50003   0.01104   0.00000  Uiso   1.00
C247   C     0.61504   0.50004   0.99482   0.00000  Uiso   1.00
C248   C     0.50325   0.55103   0.22363   0.00000  Uiso   1.00
C249   C     0.47331   0.59393   0.20948   0.00000  Uiso   1.00
C250   C     0.47366   0.63689   0.28402   0.00000  Uiso   1.00
C251   C     0.50325   0.44899   0.22362   0.00000  Uiso   1.00
C252   C     0.47330   0.40610   0.20949   0.00000  Uiso   1.00
C253   C     0.47364   0.36315   0.28405   0.00000  Uiso   1.00
H254   H     0.58514   0.50002   0.37585   0.00000  Uiso   1.00
H255   H     0.65253   0.50004   0.25156   0.00000  Uiso   1.00
H256   H     0.55553   0.59392   0.44997   0.00000  Uiso   1.00
H257   H     0.55552   0.40612   0.44998   0.00000  Uiso   1.00
H258   H     0.71434   0.50008   0.07602   0.00000  Uiso   1.00
H259   H     0.50980   0.69803   0.49442   0.00000  Uiso   1.00
H260   H     0.50979   0.30201   0.49444   0.00000  Uiso   1.00
H261   H     0.48574   0.50001   0.08510   0.00000  Uiso   1.00
H262   H     0.54768   0.50003   0.94484   0.00000  Uiso   1.00
H263   H     0.45068   0.59392   0.14326   0.00000  Uiso   1.00
H264   H     0.45067   0.40611   0.14327   0.00000  Uiso   1.00
H265   H     0.62924   0.50008   0.82708   0.00000  Uiso   1.00
H266   H     0.42470   0.69803   0.24548   0.00000  Uiso   1.00
H267   H     0.42469   0.30201   0.24550   0.00000  Uiso   1.00
O268   O     0.71433   0.50011   0.86454   0.00000  Uiso   1.00
O269   O     0.44597   0.75981   0.41347   0.00000  Uiso   1.00
O270   O     0.44597   0.24024   0.41350   0.00000  Uiso   1.00
N271   N     0.68581   0.50006   0.03668   0.00000  Uiso   1.00
N272   N     0.49458   0.68514   0.42785   0.00000  Uiso   1.00
N273   N     0.49457   0.31490   0.42789   0.00000  Uiso   1.00
N274   N     0.64002   0.50006   0.90273   0.00000  Uiso   1.00
N275   N     0.44879   0.68514   0.29389   0.00000  Uiso   1.00
N276   N     0.44878   0.31490   0.29394   0.00000  Uiso   1.00
C277   C     0.08108   0.49999   0.18938   0.00000  Uiso   1.00
C278   C     0.10459   0.49999   0.29636   0.00000  Uiso   1.00
C279   C     0.14939   0.49998   0.31074   0.00000  Uiso   1.00
C280   C     0.16448   0.49996   0.41497   0.00000  Uiso   1.00
C281   C     0.20535   0.49993   0.56790   0.00000  Uiso   1.00
C282   C     0.05122   0.44897   0.19055   0.00000  Uiso   1.00
C283   C     0.05114   0.40607   0.11596   0.00000  Uiso   1.00
C284   C     0.02130   0.36312   0.13112   0.00000  Uiso   1.00
C285   C     0.97929   0.28390   0.11974   0.00000  Uiso   1.00
C286   C     0.05122   0.55101   0.19054   0.00000  Uiso   1.00
C287   C     0.05114   0.59390   0.11594   0.00000  Uiso   1.00
C288   C     0.02129   0.63686   0.13108   0.00000  Uiso   1.00
C289   C     0.97928   0.71607   0.11969   0.00000  Uiso   1.00
C290   C     0.02823   0.49999   0.34890   0.00000  Uiso   1.00
C291   C     0.07588   0.49999   0.38300   0.00000  Uiso   1.00
C292   C     0.09091   0.49998   0.48724   0.00000  Uiso   1.00
C293   C     0.13572   0.49997   0.50177   0.00000  Uiso   1.00
C294   C     0.02251   0.44897   0.27719   0.00000  Uiso   1.00
C295   C     0.99266   0.40607   0.29246   0.00000  Uiso   1.00
C296   C     0.99254   0.36312   0.21792   0.00000  Uiso   1.00
C297   C     0.02251   0.55102   0.27719   0.00000  Uiso   1.00
C298   C     0.99266   0.59391   0.29244   0.00000  Uiso   1.00
C299   C     0.99253   0.63686   0.21788   0.00000  Uiso   1.00
H300   H     0.10343   0.49999   0.12192   0.00000  Uiso   1.00
H301   H     0.17160   0.49997   0.24366   0.00000  Uiso   1.00
H302   H     0.07336   0.40608   0.04891   0.00000  Uiso   1.00
H303   H     0.07336   0.59389   0.04890   0.00000  Uiso   1.00
H304   H     0.23451   0.49993   0.41685   0.00000  Uiso   1.00
H305   H     0.02736   0.30197   0.00620   0.00000  Uiso   1.00
H306   H     0.02735   0.69800   0.00615   0.00000  Uiso   1.00
H307   H     0.00587   0.49999   0.41636   0.00000  Uiso   1.00
H308   H     0.06868   0.49998   0.55428   0.00000  Uiso   1.00
H309   H     0.97045   0.40609   0.35952   0.00000  Uiso   1.00
H310   H     0.97044   0.59389   0.35951   0.00000  Uiso   1.00
H311   H     0.15098   0.49993   0.66896   0.00000  Uiso   1.00
H312   H     0.94383   0.30198   0.25829   0.00000  Uiso   1.00
H313   H     0.94383   0.69800   0.25826   0.00000  Uiso   1.00
O314   O     0.23582   0.49990   0.62832   0.00000  Uiso   1.00
O315   O     0.96405   0.24020   0.08953   0.00000  Uiso   1.00
O316   O     0.96404   0.75977   0.08948   0.00000  Uiso   1.00
N317   N     0.20623   0.49994   0.45726   0.00000  Uiso   1.00
N318   N     0.01256   0.31486   0.07333   0.00000  Uiso   1.00
N319   N     0.01255   0.68510   0.07327   0.00000  Uiso   1.00
N320   N     0.16128   0.49995   0.59292   0.00000  Uiso   1.00
N321   N     0.96762   0.31486   0.20898   0.00000  Uiso   1.00
N322   N     0.96760   0.68511   0.20893   0.00000  Uiso   1.00
C323   C     0.43763   0.49999   0.80923   0.00000  Uiso   1.00
C324   C     0.41480   0.49998   0.70138   0.00000  Uiso   1.00
C325   C     0.37010   0.49997   0.68532   0.00000  Uiso   1.00
C326   C     0.35566   0.49996   0.58054   0.00000  Uiso   1.00
C327   C     0.31576   0.49992   0.42609   0.00000  Uiso   1.00
C328   C     0.46750   0.44897   0.80918   0.00000  Uiso   1.00
C329   C     0.46711   0.40607   0.88376   0.00000  Uiso   1.00
C330   C     0.49704   0.36311   0.86973   0.00000  Uiso   1.00
C331   C     0.53898   0.28389   0.88269   0.00000  Uiso   1.00
C332   C     0.46750   0.55101   0.80918   0.00000  Uiso   1.00
C333   C     0.46712   0.59390   0.88378   0.00000  Uiso   1.00
C334   C     0.49705   0.63685   0.86976   0.00000  Uiso   1.00
C335   C     0.53899   0.71607   0.88272   0.00000  Uiso   1.00
C336   C     0.49149   0.49999   0.65171   0.00000  Uiso   1.00
C337   C     0.44405   0.49998   0.61583   0.00000  Uiso   1.00
C338   C     0.42968   0.49997   0.51104   0.00000  Uiso   1.00
C339   C     0.38496   0.49996   0.49482   0.00000  Uiso   1.00
C340   C     0.49675   0.44897   0.72363   0.00000  Uiso   1.00
C341   C     0.52669   0.40607   0.70948   0.00000  Uiso   1.00
C342   C     0.52634   0.36311   0.78402   0.00000  Uiso   1.00
C343   C     0.49675   0.55101   0.72362   0.00000  Uiso   1.00
C344   C     0.52670   0.59390   0.70949   0.00000  Uiso   1.00
C345   C     0.52636   0.63685   0.78405   0.00000  Uiso   1.00
H346   H     0.41486   0.49998   0.87585   0.00000  Uiso   1.00
H347   H     0.34747   0.49996   0.75156   0.00000  Uiso   1.00
H348   H     0.44447   0.40608   0.94997   0.00000  Uiso   1.00
H349   H     0.44448   0.59388   0.94998   0.00000  Uiso   1.00
H350   H     0.28566   0.49992   0.57602   0.00000  Uiso   1.00
H351   H     0.49020   0.30197   0.99442   0.00000  Uiso   1.00
H352   H     0.49021   0.69799   0.99444   0.00000  Uiso   1.00
H353   H     0.51426   0.49999   0.58510   0.00000  Uiso   1.00
H354   H     0.45232   0.49997   0.44484   0.00000  Uiso   1.00
H355   H     0.54932   0.40608   0.64326   0.00000  Uiso   1.00
H356   H     0.54933   0.59389   0.64327   0.00000  Uiso   1.00
H357   H     0.37076   0.49992   0.32708   0.00000  Uiso   1.00
H358   H     0.57530   0.30197   0.74548   0.00000  Uiso   1.00
H359   H     0.57531   0.69799   0.74550   0.00000  Uiso   1.00
O360   O     0.28567   0.49989   0.36454   0.00000  Uiso   1.00
O361   O     0.55403   0.24019   0.91347   0.00000  Uiso   1.00
O362   O     0.55403   0.75976   0.91350   0.00000  Uiso   1.00
N363   N     0.31419   0.49994   0.53668   0.00000  Uiso   1.00
N364   N     0.50542   0.31486   0.92785   0.00000  Uiso   1.00
N365   N     0.50543   0.68510   0.92789   0.00000  Uiso   1.00
N366   N     0.35998   0.49994   0.40273   0.00000  Uiso   1.00
N367   N     0.55121   0.31486   0.79389   0.00000  Uiso   1.00
N368   N     0.55122   0.68510   0.79394   0.00000  Uiso   1.00
