data_job_05239
_audit_creation_date              2018-12-19
_audit_creation_method            'Materials Studio'
_symmetry_space_group_name_H-M    'P1'
_symmetry_Int_Tables_number       1
_symmetry_cell_setting            triclinic
loop_
_symmetry_equiv_pos_as_xyz
  x,y,z
_cell_length_a                    25.2775
_cell_length_b                    15.5264
_cell_length_c                    14.1772
_cell_angle_alpha                 90.0000
_cell_angle_beta                  68.2916
_cell_angle_gamma                 90.0000
loop_
_atom_site_label
_atom_site_type_symbol
_atom_site_fract_x
_atom_site_fract_y
_atom_site_fract_z
_atom_site_U_iso_or_equiv
_atom_site_adp_type
_atom_site_occupancy
C1     C     0.89135   0.68915   0.59660   0.00000  Uiso   1.00
C2     C     0.90194   0.67726   0.69493   0.00000  Uiso   1.00
C3     C     0.90627   0.59892   0.73866   0.00000  Uiso   1.00
C4     C     0.91604   0.60172   0.82876   0.00000  Uiso   1.00
C5     C     0.93166   0.57133   0.97467   0.00000  Uiso   1.00
C6     C     0.83821   0.74510   0.62356   0.00000  Uiso   1.00
C7     C     0.78894   0.72381   0.60726   0.00000  Uiso   1.00
C8     C     0.74506   0.78372   0.63726   0.00000  Uiso   1.00
C9     C     0.66175   0.85869   0.67229   0.00000  Uiso   1.00
C10    C     0.94051   0.74397   0.52768   0.00000  Uiso   1.00
C11    C     0.97726   0.72174   0.43075   0.00000  Uiso   1.00
C12    C     0.01950   0.78071   0.38001   0.00000  Uiso   1.00
C13    C     0.09503   0.85392   0.26618   0.00000  Uiso   1.00
C14    C     0.90101   0.83343   0.67884   0.00000  Uiso   1.00
C15    C     0.90719   0.75563   0.73960   0.00000  Uiso   1.00
C16    C     0.91696   0.75855   0.82965   0.00000  Uiso   1.00
C17    C     0.92130   0.68023   0.87350   0.00000  Uiso   1.00
C18    C     0.84345   0.82347   0.66822   0.00000  Uiso   1.00
C19    C     0.79963   0.88343   0.69824   0.00000  Uiso   1.00
C20    C     0.75032   0.86223   0.68200   0.00000  Uiso   1.00
C21    C     0.94576   0.82234   0.57234   0.00000  Uiso   1.00
C22    C     0.98795   0.88136   0.52174   0.00000  Uiso   1.00
C23    C     0.02476   0.85922   0.42476   0.00000  Uiso   1.00
H24    H     0.88726   0.62815   0.56183   0.00000  Uiso   1.00
H25    H     0.90220   0.53829   0.70408   0.00000  Uiso   1.00
H26    H     0.78490   0.66316   0.57268   0.00000  Uiso   1.00
H27    H     0.97319   0.66109   0.39621   0.00000  Uiso   1.00
H28    H     0.92106   0.47323   0.88151   0.00000  Uiso   1.00
H29    H     0.67372   0.73654   0.60443   0.00000  Uiso   1.00
H30    H     0.07077   0.73217   0.23229   0.00000  Uiso   1.00
H31    H     0.90509   0.89445   0.71361   0.00000  Uiso   1.00
H32    H     0.92102   0.81920   0.86420   0.00000  Uiso   1.00
H33    H     0.80371   0.94407   0.73280   0.00000  Uiso   1.00
H34    H     0.99200   0.94200   0.55633   0.00000  Uiso   1.00
H35    H     0.93633   0.70122   0.01147   0.00000  Uiso   1.00
H36    H     0.68899   0.96454   0.73438   0.00000  Uiso   1.00
H37    H     0.08604   0.96017   0.36225   0.00000  Uiso   1.00
O38    O     0.93882   0.53292   0.04282   0.00000  Uiso   1.00
O39    O     0.61434   0.87838   0.67928   0.00000  Uiso   1.00
O40    O     0.13525   0.87265   0.19106   0.00000  Uiso   1.00
N41    N     0.92248   0.53721   0.89142   0.00000  Uiso   1.00
N42    N     0.69123   0.78339   0.63238   0.00000  Uiso   1.00
N43    N     0.06242   0.77931   0.28445   0.00000  Uiso   1.00
N44    N     0.93069   0.65990   0.96135   0.00000  Uiso   1.00
N45    N     0.69945   0.90607   0.70231   0.00000  Uiso   1.00
N46    N     0.07064   0.90200   0.35438   0.00000  Uiso   1.00
C47    C     0.39135   0.18915   0.59660   0.00000  Uiso   1.00
C48    C     0.40194   0.17726   0.69493   0.00000  Uiso   1.00
C49    C     0.40627   0.09892   0.73866   0.00000  Uiso   1.00
C50    C     0.41604   0.10172   0.82876   0.00000  Uiso   1.00
C51    C     0.43166   0.07133   0.97467   0.00000  Uiso   1.00
C52    C     0.33821   0.24510   0.62356   0.00000  Uiso   1.00
C53    C     0.28894   0.22381   0.60726   0.00000  Uiso   1.00
C54    C     0.24506   0.28372   0.63726   0.00000  Uiso   1.00
C55    C     0.16175   0.35869   0.67229   0.00000  Uiso   1.00
C56    C     0.44051   0.24397   0.52768   0.00000  Uiso   1.00
C57    C     0.47726   0.22174   0.43075   0.00000  Uiso   1.00
C58    C     0.51950   0.28071   0.38001   0.00000  Uiso   1.00
C59    C     0.59503   0.35392   0.26618   0.00000  Uiso   1.00
C60    C     0.40101   0.33343   0.67884   0.00000  Uiso   1.00
C61    C     0.40719   0.25563   0.73960   0.00000  Uiso   1.00
C62    C     0.41696   0.25855   0.82965   0.00000  Uiso   1.00
C63    C     0.42130   0.18023   0.87350   0.00000  Uiso   1.00
C64    C     0.34345   0.32347   0.66822   0.00000  Uiso   1.00
C65    C     0.29963   0.38343   0.69824   0.00000  Uiso   1.00
C66    C     0.25032   0.36223   0.68200   0.00000  Uiso   1.00
C67    C     0.44576   0.32234   0.57234   0.00000  Uiso   1.00
C68    C     0.48795   0.38136   0.52174   0.00000  Uiso   1.00
C69    C     0.52476   0.35922   0.42476   0.00000  Uiso   1.00
H70    H     0.38726   0.12815   0.56183   0.00000  Uiso   1.00
H71    H     0.40220   0.03829   0.70408   0.00000  Uiso   1.00
H72    H     0.28490   0.16316   0.57268   0.00000  Uiso   1.00
H73    H     0.47319   0.16109   0.39621   0.00000  Uiso   1.00
H74    H     0.42106   0.97323   0.88151   0.00000  Uiso   1.00
H75    H     0.17372   0.23654   0.60443   0.00000  Uiso   1.00
H76    H     0.57077   0.23217   0.23229   0.00000  Uiso   1.00
H77    H     0.40509   0.39445   0.71361   0.00000  Uiso   1.00
H78    H     0.42102   0.31920   0.86420   0.00000  Uiso   1.00
H79    H     0.30371   0.44407   0.73280   0.00000  Uiso   1.00
H80    H     0.49200   0.44200   0.55633   0.00000  Uiso   1.00
H81    H     0.43633   0.20122   0.01147   0.00000  Uiso   1.00
H82    H     0.18899   0.46454   0.73438   0.00000  Uiso   1.00
H83    H     0.58604   0.46017   0.36225   0.00000  Uiso   1.00
O84    O     0.43882   0.03292   0.04282   0.00000  Uiso   1.00
O85    O     0.11434   0.37838   0.67928   0.00000  Uiso   1.00
O86    O     0.63525   0.37265   0.19106   0.00000  Uiso   1.00
N87    N     0.42248   0.03721   0.89142   0.00000  Uiso   1.00
N88    N     0.19123   0.28339   0.63238   0.00000  Uiso   1.00
N89    N     0.56242   0.27931   0.28445   0.00000  Uiso   1.00
N90    N     0.43069   0.15990   0.96135   0.00000  Uiso   1.00
N91    N     0.19945   0.40607   0.70231   0.00000  Uiso   1.00
N92    N     0.57064   0.40200   0.35438   0.00000  Uiso   1.00
C93    C     0.10865   0.68915   0.90340   0.00000  Uiso   1.00
C94    C     0.09806   0.67726   0.80507   0.00000  Uiso   1.00
C95    C     0.09373   0.59892   0.76134   0.00000  Uiso   1.00
C96    C     0.08396   0.60172   0.67124   0.00000  Uiso   1.00
C97    C     0.06834   0.57133   0.52533   0.00000  Uiso   1.00
C98    C     0.16179   0.74510   0.87644   0.00000  Uiso   1.00
C99    C     0.21106   0.72381   0.89274   0.00000  Uiso   1.00
C100   C     0.25494   0.78372   0.86274   0.00000  Uiso   1.00
C101   C     0.33825   0.85869   0.82771   0.00000  Uiso   1.00
C102   C     0.05949   0.74397   0.97232   0.00000  Uiso   1.00
C103   C     0.02274   0.72174   0.06925   0.00000  Uiso   1.00
C104   C     0.98050   0.78071   0.11999   0.00000  Uiso   1.00
C105   C     0.90497   0.85392   0.23382   0.00000  Uiso   1.00
C106   C     0.09899   0.83343   0.82116   0.00000  Uiso   1.00
C107   C     0.09281   0.75563   0.76040   0.00000  Uiso   1.00
C108   C     0.08304   0.75855   0.67035   0.00000  Uiso   1.00
C109   C     0.07870   0.68023   0.62650   0.00000  Uiso   1.00
C110   C     0.15655   0.82347   0.83178   0.00000  Uiso   1.00
C111   C     0.20037   0.88343   0.80176   0.00000  Uiso   1.00
C112   C     0.24968   0.86223   0.81800   0.00000  Uiso   1.00
C113   C     0.05424   0.82234   0.92766   0.00000  Uiso   1.00
C114   C     0.01205   0.88136   0.97826   0.00000  Uiso   1.00
C115   C     0.97524   0.85922   0.07524   0.00000  Uiso   1.00
H116   H     0.11274   0.62815   0.93817   0.00000  Uiso   1.00
H117   H     0.09780   0.53829   0.79592   0.00000  Uiso   1.00
H118   H     0.21510   0.66316   0.92732   0.00000  Uiso   1.00
H119   H     0.02681   0.66109   0.10379   0.00000  Uiso   1.00
H120   H     0.07894   0.47323   0.61849   0.00000  Uiso   1.00
H121   H     0.32628   0.73654   0.89557   0.00000  Uiso   1.00
H122   H     0.92923   0.73217   0.26771   0.00000  Uiso   1.00
H123   H     0.09491   0.89445   0.78639   0.00000  Uiso   1.00
H124   H     0.07898   0.81920   0.63580   0.00000  Uiso   1.00
H125   H     0.19629   0.94407   0.76720   0.00000  Uiso   1.00
H126   H     0.00800   0.94200   0.94367   0.00000  Uiso   1.00
H127   H     0.06367   0.70122   0.48853   0.00000  Uiso   1.00
H128   H     0.31101   0.96454   0.76562   0.00000  Uiso   1.00
H129   H     0.91396   0.96017   0.13775   0.00000  Uiso   1.00
O130   O     0.06118   0.53292   0.45718   0.00000  Uiso   1.00
O131   O     0.38566   0.87838   0.82072   0.00000  Uiso   1.00
O132   O     0.86475   0.87265   0.30894   0.00000  Uiso   1.00
N133   N     0.07752   0.53721   0.60858   0.00000  Uiso   1.00
N134   N     0.30877   0.78339   0.86762   0.00000  Uiso   1.00
N135   N     0.93758   0.77931   0.21555   0.00000  Uiso   1.00
N136   N     0.06931   0.65990   0.53865   0.00000  Uiso   1.00
N137   N     0.30055   0.90607   0.79769   0.00000  Uiso   1.00
N138   N     0.92936   0.90200   0.14562   0.00000  Uiso   1.00
C139   C     0.60865   0.18915   0.90340   0.00000  Uiso   1.00
C140   C     0.59806   0.17726   0.80507   0.00000  Uiso   1.00
C141   C     0.59373   0.09892   0.76134   0.00000  Uiso   1.00
C142   C     0.58396   0.10172   0.67124   0.00000  Uiso   1.00
C143   C     0.56834   0.07133   0.52533   0.00000  Uiso   1.00
C144   C     0.66179   0.24510   0.87644   0.00000  Uiso   1.00
C145   C     0.71106   0.22381   0.89274   0.00000  Uiso   1.00
C146   C     0.75494   0.28372   0.86274   0.00000  Uiso   1.00
C147   C     0.83825   0.35869   0.82771   0.00000  Uiso   1.00
C148   C     0.55949   0.24397   0.97232   0.00000  Uiso   1.00
C149   C     0.52274   0.22174   0.06925   0.00000  Uiso   1.00
C150   C     0.48050   0.28071   0.11999   0.00000  Uiso   1.00
C151   C     0.40497   0.35392   0.23382   0.00000  Uiso   1.00
C152   C     0.59899   0.33343   0.82116   0.00000  Uiso   1.00
C153   C     0.59281   0.25563   0.76040   0.00000  Uiso   1.00
C154   C     0.58304   0.25855   0.67035   0.00000  Uiso   1.00
C155   C     0.57870   0.18023   0.62650   0.00000  Uiso   1.00
C156   C     0.65655   0.32347   0.83178   0.00000  Uiso   1.00
C157   C     0.70037   0.38343   0.80176   0.00000  Uiso   1.00
C158   C     0.74968   0.36223   0.81800   0.00000  Uiso   1.00
C159   C     0.55424   0.32234   0.92766   0.00000  Uiso   1.00
C160   C     0.51205   0.38136   0.97826   0.00000  Uiso   1.00
C161   C     0.47524   0.35922   0.07524   0.00000  Uiso   1.00
H162   H     0.61274   0.12815   0.93817   0.00000  Uiso   1.00
H163   H     0.59780   0.03829   0.79592   0.00000  Uiso   1.00
H164   H     0.71510   0.16316   0.92732   0.00000  Uiso   1.00
H165   H     0.52681   0.16109   0.10379   0.00000  Uiso   1.00
H166   H     0.57894   0.97323   0.61849   0.00000  Uiso   1.00
H167   H     0.82628   0.23654   0.89557   0.00000  Uiso   1.00
H168   H     0.42923   0.23217   0.26771   0.00000  Uiso   1.00
H169   H     0.59491   0.39445   0.78639   0.00000  Uiso   1.00
H170   H     0.57898   0.31920   0.63580   0.00000  Uiso   1.00
H171   H     0.69629   0.44407   0.76720   0.00000  Uiso   1.00
H172   H     0.50800   0.44200   0.94367   0.00000  Uiso   1.00
H173   H     0.56367   0.20122   0.48853   0.00000  Uiso   1.00
H174   H     0.81101   0.46454   0.76562   0.00000  Uiso   1.00
H175   H     0.41396   0.46017   0.13775   0.00000  Uiso   1.00
O176   O     0.56118   0.03292   0.45718   0.00000  Uiso   1.00
O177   O     0.88566   0.37838   0.82072   0.00000  Uiso   1.00
O178   O     0.36475   0.37265   0.30894   0.00000  Uiso   1.00
N179   N     0.57752   0.03721   0.60858   0.00000  Uiso   1.00
N180   N     0.80877   0.28339   0.86762   0.00000  Uiso   1.00
N181   N     0.43758   0.27931   0.21555   0.00000  Uiso   1.00
N182   N     0.56931   0.15990   0.53865   0.00000  Uiso   1.00
N183   N     0.80055   0.40607   0.79769   0.00000  Uiso   1.00
N184   N     0.42936   0.40200   0.14562   0.00000  Uiso   1.00
C185   C     0.10865   0.31085   0.40340   0.00000  Uiso   1.00
C186   C     0.09806   0.32274   0.30507   0.00000  Uiso   1.00
C187   C     0.09373   0.40108   0.26134   0.00000  Uiso   1.00
C188   C     0.08396   0.39828   0.17124   0.00000  Uiso   1.00
C189   C     0.06834   0.42867   0.02533   0.00000  Uiso   1.00
C190   C     0.16179   0.25490   0.37644   0.00000  Uiso   1.00
C191   C     0.21106   0.27619   0.39274   0.00000  Uiso   1.00
C192   C     0.25494   0.21628   0.36274   0.00000  Uiso   1.00
C193   C     0.33825   0.14131   0.32771   0.00000  Uiso   1.00
C194   C     0.05949   0.25603   0.47232   0.00000  Uiso   1.00
C195   C     0.02274   0.27826   0.56925   0.00000  Uiso   1.00
C196   C     0.98050   0.21929   0.61999   0.00000  Uiso   1.00
C197   C     0.90497   0.14608   0.73382   0.00000  Uiso   1.00
C198   C     0.09899   0.16657   0.32116   0.00000  Uiso   1.00
C199   C     0.09281   0.24437   0.26040   0.00000  Uiso   1.00
C200   C     0.08304   0.24145   0.17035   0.00000  Uiso   1.00
C201   C     0.07870   0.31977   0.12650   0.00000  Uiso   1.00
C202   C     0.15655   0.17653   0.33178   0.00000  Uiso   1.00
C203   C     0.20037   0.11657   0.30176   0.00000  Uiso   1.00
C204   C     0.24968   0.13777   0.31800   0.00000  Uiso   1.00
C205   C     0.05424   0.17766   0.42766   0.00000  Uiso   1.00
C206   C     0.01205   0.11864   0.47826   0.00000  Uiso   1.00
C207   C     0.97524   0.14078   0.57524   0.00000  Uiso   1.00
H208   H     0.11274   0.37185   0.43817   0.00000  Uiso   1.00
H209   H     0.09780   0.46171   0.29592   0.00000  Uiso   1.00
H210   H     0.21510   0.33684   0.42732   0.00000  Uiso   1.00
H211   H     0.02681   0.33891   0.60379   0.00000  Uiso   1.00
H212   H     0.07894   0.52677   0.11849   0.00000  Uiso   1.00
H213   H     0.32628   0.26346   0.39557   0.00000  Uiso   1.00
H214   H     0.92923   0.26783   0.76771   0.00000  Uiso   1.00
H215   H     0.09491   0.10555   0.28639   0.00000  Uiso   1.00
H216   H     0.07898   0.18080   0.13580   0.00000  Uiso   1.00
H217   H     0.19629   0.05593   0.26720   0.00000  Uiso   1.00
H218   H     0.00800   0.05800   0.44367   0.00000  Uiso   1.00
H219   H     0.06367   0.29878   0.98853   0.00000  Uiso   1.00
H220   H     0.31101   0.03546   0.26562   0.00000  Uiso   1.00
H221   H     0.91396   0.03983   0.63775   0.00000  Uiso   1.00
O222   O     0.06118   0.46708   0.95718   0.00000  Uiso   1.00
O223   O     0.38566   0.12162   0.32072   0.00000  Uiso   1.00
O224   O     0.86475   0.12735   0.80894   0.00000  Uiso   1.00
N225   N     0.07752   0.46279   0.10858   0.00000  Uiso   1.00
N226   N     0.30877   0.21661   0.36762   0.00000  Uiso   1.00
N227   N     0.93758   0.22069   0.71555   0.00000  Uiso   1.00
N228   N     0.06931   0.34010   0.03865   0.00000  Uiso   1.00
N229   N     0.30055   0.09393   0.29769   0.00000  Uiso   1.00
N230   N     0.92936   0.09800   0.64562   0.00000  Uiso   1.00
C231   C     0.60865   0.81085   0.40340   0.00000  Uiso   1.00
C232   C     0.59806   0.82274   0.30507   0.00000  Uiso   1.00
C233   C     0.59373   0.90108   0.26134   0.00000  Uiso   1.00
C234   C     0.58396   0.89828   0.17124   0.00000  Uiso   1.00
C235   C     0.56834   0.92867   0.02533   0.00000  Uiso   1.00
C236   C     0.66179   0.75490   0.37644   0.00000  Uiso   1.00
C237   C     0.71106   0.77619   0.39274   0.00000  Uiso   1.00
C238   C     0.75494   0.71628   0.36274   0.00000  Uiso   1.00
C239   C     0.83825   0.64131   0.32771   0.00000  Uiso   1.00
C240   C     0.55949   0.75603   0.47232   0.00000  Uiso   1.00
C241   C     0.52274   0.77826   0.56925   0.00000  Uiso   1.00
C242   C     0.48050   0.71929   0.61999   0.00000  Uiso   1.00
C243   C     0.40497   0.64608   0.73382   0.00000  Uiso   1.00
C244   C     0.59899   0.66657   0.32116   0.00000  Uiso   1.00
C245   C     0.59281   0.74437   0.26040   0.00000  Uiso   1.00
C246   C     0.58304   0.74145   0.17035   0.00000  Uiso   1.00
C247   C     0.57870   0.81977   0.12650   0.00000  Uiso   1.00
C248   C     0.65655   0.67653   0.33178   0.00000  Uiso   1.00
C249   C     0.70037   0.61657   0.30176   0.00000  Uiso   1.00
C250   C     0.74968   0.63777   0.31800   0.00000  Uiso   1.00
C251   C     0.55424   0.67766   0.42766   0.00000  Uiso   1.00
C252   C     0.51205   0.61864   0.47826   0.00000  Uiso   1.00
C253   C     0.47524   0.64078   0.57524   0.00000  Uiso   1.00
H254   H     0.61274   0.87185   0.43817   0.00000  Uiso   1.00
H255   H     0.59780   0.96171   0.29592   0.00000  Uiso   1.00
H256   H     0.71510   0.83684   0.42732   0.00000  Uiso   1.00
H257   H     0.52681   0.83891   0.60379   0.00000  Uiso   1.00
H258   H     0.57894   0.02677   0.11849   0.00000  Uiso   1.00
H259   H     0.82628   0.76346   0.39557   0.00000  Uiso   1.00
H260   H     0.42923   0.76783   0.76771   0.00000  Uiso   1.00
H261   H     0.59491   0.60555   0.28639   0.00000  Uiso   1.00
H262   H     0.57898   0.68080   0.13580   0.00000  Uiso   1.00
H263   H     0.69629   0.55593   0.26720   0.00000  Uiso   1.00
H264   H     0.50800   0.55800   0.44367   0.00000  Uiso   1.00
H265   H     0.56367   0.79878   0.98853   0.00000  Uiso   1.00
H266   H     0.81101   0.53546   0.26562   0.00000  Uiso   1.00
H267   H     0.41396   0.53983   0.63775   0.00000  Uiso   1.00
O268   O     0.56118   0.96708   0.95718   0.00000  Uiso   1.00
O269   O     0.88566   0.62162   0.32072   0.00000  Uiso   1.00
O270   O     0.36475   0.62735   0.80894   0.00000  Uiso   1.00
N271   N     0.57752   0.96279   0.10858   0.00000  Uiso   1.00
N272   N     0.80877   0.71661   0.36762   0.00000  Uiso   1.00
N273   N     0.43758   0.72069   0.71555   0.00000  Uiso   1.00
N274   N     0.56931   0.84010   0.03865   0.00000  Uiso   1.00
N275   N     0.80055   0.59393   0.29769   0.00000  Uiso   1.00
N276   N     0.42936   0.59800   0.64562   0.00000  Uiso   1.00
C277   C     0.89135   0.31085   0.09660   0.00000  Uiso   1.00
C278   C     0.90194   0.32274   0.19493   0.00000  Uiso   1.00
C279   C     0.90627   0.40108   0.23866   0.00000  Uiso   1.00
C280   C     0.91604   0.39828   0.32876   0.00000  Uiso   1.00
C281   C     0.93166   0.42867   0.47467   0.00000  Uiso   1.00
C282   C     0.83821   0.25490   0.12356   0.00000  Uiso   1.00
C283   C     0.78894   0.27619   0.10726   0.00000  Uiso   1.00
C284   C     0.74506   0.21628   0.13726   0.00000  Uiso   1.00
C285   C     0.66175   0.14131   0.17229   0.00000  Uiso   1.00
C286   C     0.94051   0.25603   0.02768   0.00000  Uiso   1.00
C287   C     0.97726   0.27826   0.93075   0.00000  Uiso   1.00
C288   C     0.01950   0.21929   0.88001   0.00000  Uiso   1.00
C289   C     0.09503   0.14608   0.76618   0.00000  Uiso   1.00
C290   C     0.90101   0.16657   0.17884   0.00000  Uiso   1.00
C291   C     0.90719   0.24437   0.23960   0.00000  Uiso   1.00
C292   C     0.91696   0.24145   0.32965   0.00000  Uiso   1.00
C293   C     0.92130   0.31977   0.37350   0.00000  Uiso   1.00
C294   C     0.84345   0.17653   0.16822   0.00000  Uiso   1.00
C295   C     0.79963   0.11657   0.19824   0.00000  Uiso   1.00
C296   C     0.75032   0.13777   0.18200   0.00000  Uiso   1.00
C297   C     0.94576   0.17766   0.07234   0.00000  Uiso   1.00
C298   C     0.98795   0.11864   0.02174   0.00000  Uiso   1.00
C299   C     0.02476   0.14078   0.92476   0.00000  Uiso   1.00
H300   H     0.88726   0.37185   0.06183   0.00000  Uiso   1.00
H301   H     0.90220   0.46171   0.20408   0.00000  Uiso   1.00
H302   H     0.78490   0.33684   0.07268   0.00000  Uiso   1.00
H303   H     0.97319   0.33891   0.89621   0.00000  Uiso   1.00
H304   H     0.92106   0.52677   0.38151   0.00000  Uiso   1.00
H305   H     0.67372   0.26346   0.10443   0.00000  Uiso   1.00
H306   H     0.07077   0.26783   0.73229   0.00000  Uiso   1.00
H307   H     0.90509   0.10555   0.21361   0.00000  Uiso   1.00
H308   H     0.92102   0.18080   0.36420   0.00000  Uiso   1.00
H309   H     0.80371   0.05593   0.23280   0.00000  Uiso   1.00
H310   H     0.99200   0.05800   0.05633   0.00000  Uiso   1.00
H311   H     0.93633   0.29878   0.51147   0.00000  Uiso   1.00
H312   H     0.68899   0.03546   0.23438   0.00000  Uiso   1.00
H313   H     0.08604   0.03983   0.86225   0.00000  Uiso   1.00
O314   O     0.93882   0.46708   0.54282   0.00000  Uiso   1.00
O315   O     0.61434   0.12162   0.17928   0.00000  Uiso   1.00
O316   O     0.13525   0.12735   0.69106   0.00000  Uiso   1.00
N317   N     0.92248   0.46279   0.39142   0.00000  Uiso   1.00
N318   N     0.69123   0.21661   0.13238   0.00000  Uiso   1.00
N319   N     0.06242   0.22069   0.78445   0.00000  Uiso   1.00
N320   N     0.93069   0.34010   0.46135   0.00000  Uiso   1.00
N321   N     0.69945   0.09393   0.20231   0.00000  Uiso   1.00
N322   N     0.07064   0.09800   0.85438   0.00000  Uiso   1.00
C323   C     0.39135   0.81085   0.09660   0.00000  Uiso   1.00
C324   C     0.40194   0.82274   0.19493   0.00000  Uiso   1.00
C325   C     0.40627   0.90108   0.23866   0.00000  Uiso   1.00
C326   C     0.41604   0.89828   0.32876   0.00000  Uiso   1.00
C327   C     0.43166   0.92867   0.47467   0.00000  Uiso   1.00
C328   C     0.33821   0.75490   0.12356   0.00000  Uiso   1.00
C329   C     0.28894   0.77619   0.10726   0.00000  Uiso   1.00
C330   C     0.24506   0.71628   0.13726   0.00000  Uiso   1.00
C331   C     0.16175   0.64131   0.17229   0.00000  Uiso   1.00
C332   C     0.44051   0.75603   0.02768   0.00000  Uiso   1.00
C333   C     0.47726   0.77826   0.93075   0.00000  Uiso   1.00
C334   C     0.51950   0.71929   0.88001   0.00000  Uiso   1.00
C335   C     0.59503   0.64608   0.76618   0.00000  Uiso   1.00
C336   C     0.40101   0.66657   0.17884   0.00000  Uiso   1.00
C337   C     0.40719   0.74437   0.23960   0.00000  Uiso   1.00
C338   C     0.41696   0.74145   0.32965   0.00000  Uiso   1.00
C339   C     0.42130   0.81977   0.37350   0.00000  Uiso   1.00
C340   C     0.34345   0.67653   0.16822   0.00000  Uiso   1.00
C341   C     0.29963   0.61657   0.19824   0.00000  Uiso   1.00
C342   C     0.25032   0.63777   0.18200   0.00000  Uiso   1.00
C343   C     0.44576   0.67766   0.07234   0.00000  Uiso   1.00
C344   C     0.48795   0.61864   0.02174   0.00000  Uiso   1.00
C345   C     0.52476   0.64078   0.92476   0.00000  Uiso   1.00
H346   H     0.38726   0.87185   0.06183   0.00000  Uiso   1.00
H347   H     0.40220   0.96171   0.20408   0.00000  Uiso   1.00
H348   H     0.28490   0.83684   0.07268   0.00000  Uiso   1.00
H349   H     0.47319   0.83891   0.89621   0.00000  Uiso   1.00
H350   H     0.42106   0.02677   0.38151   0.00000  Uiso   1.00
H351   H     0.17372   0.76346   0.10443   0.00000  Uiso   1.00
H352   H     0.57077   0.76783   0.73229   0.00000  Uiso   1.00
H353   H     0.40509   0.60555   0.21361   0.00000  Uiso   1.00
H354   H     0.42102   0.68080   0.36420   0.00000  Uiso   1.00
H355   H     0.30371   0.55593   0.23280   0.00000  Uiso   1.00
H356   H     0.49200   0.55800   0.05633   0.00000  Uiso   1.00
H357   H     0.43633   0.79878   0.51147   0.00000  Uiso   1.00
H358   H     0.18899   0.53546   0.23438   0.00000  Uiso   1.00
H359   H     0.58604   0.53983   0.86225   0.00000  Uiso   1.00
O360   O     0.43882   0.96708   0.54282   0.00000  Uiso   1.00
O361   O     0.11434   0.62162   0.17928   0.00000  Uiso   1.00
O362   O     0.63525   0.62735   0.69106   0.00000  Uiso   1.00
N363   N     0.42248   0.96279   0.39142   0.00000  Uiso   1.00
N364   N     0.19123   0.71661   0.13238   0.00000  Uiso   1.00
N365   N     0.56242   0.72069   0.78445   0.00000  Uiso   1.00
N366   N     0.43069   0.84010   0.46135   0.00000  Uiso   1.00
N367   N     0.19945   0.59393   0.20231   0.00000  Uiso   1.00
N368   N     0.57064   0.59800   0.85438   0.00000  Uiso   1.00
