data_job_00545
_audit_creation_date              2018-12-19
_audit_creation_method            'Materials Studio'
_symmetry_space_group_name_H-M    'P1'
_symmetry_Int_Tables_number       1
_symmetry_cell_setting            triclinic
loop_
_symmetry_equiv_pos_as_xyz
  x,y,z
_cell_length_a                    19.8232
_cell_length_b                    28.4406
_cell_length_c                    8.8339
_cell_angle_alpha                 90.0000
_cell_angle_beta                  90.0000
_cell_angle_gamma                 90.0000
loop_
_atom_site_label
_atom_site_type_symbol
_atom_site_fract_x
_atom_site_fract_y
_atom_site_fract_z
_atom_site_U_iso_or_equiv
_atom_site_adp_type
_atom_site_occupancy
C1     C     0.95407   0.65533   0.59327   0.00000  Uiso   1.00
C2     C     0.01652   0.63781   0.50975   0.00000  Uiso   1.00
C3     C     0.08244   0.65168   0.53812   0.00000  Uiso   1.00
C4     C     0.13250   0.63157   0.44930   0.00000  Uiso   1.00
C5     C     0.23180   0.60936   0.33676   0.00000  Uiso   1.00
C6     C     0.90721   0.67518   0.47220   0.00000  Uiso   1.00
C7     C     0.88121   0.72048   0.46903   0.00000  Uiso   1.00
C8     C     0.83925   0.73183   0.34861   0.00000  Uiso   1.00
C9     C     0.76880   0.76764   0.17785   0.00000  Uiso   1.00
C10    C     0.91908   0.61163   0.65518   0.00000  Uiso   1.00
C11    C     0.90305   0.60350   0.80585   0.00000  Uiso   1.00
C12    C     0.87106   0.56134   0.83948   0.00000  Uiso   1.00
C13    C     0.81905   0.49847   0.95282   0.00000  Uiso   1.00
C14    C     0.92576   0.59494   0.38509   0.00000  Uiso   1.00
C15    C     0.00114   0.60500   0.39667   0.00000  Uiso   1.00
C16    C     0.05111   0.58486   0.30779   0.00000  Uiso   1.00
C17    C     0.11709   0.59870   0.33602   0.00000  Uiso   1.00
C18    C     0.89183   0.64238   0.35913   0.00000  Uiso   1.00
C19    C     0.84989   0.65366   0.23869   0.00000  Uiso   1.00
C20    C     0.82384   0.69896   0.23533   0.00000  Uiso   1.00
C21    C     0.90370   0.57882   0.54211   0.00000  Uiso   1.00
C22    C     0.87173   0.53667   0.57551   0.00000  Uiso   1.00
C23    C     0.85565   0.52848   0.72620   0.00000  Uiso   1.00
H24    H     0.96604   0.68087   0.68130   0.00000  Uiso   1.00
H25    H     0.09432   0.67707   0.62563   0.00000  Uiso   1.00
H26    H     0.89312   0.74586   0.55656   0.00000  Uiso   1.00
H27    H     0.91495   0.62889   0.89332   0.00000  Uiso   1.00
H28    H     0.22975   0.65840   0.51400   0.00000  Uiso   1.00
H29    H     0.80549   0.80344   0.36838   0.00000  Uiso   1.00
H30    H     0.85153   0.55679   0.07853   0.00000  Uiso   1.00
H31    H     0.91379   0.56940   0.29705   0.00000  Uiso   1.00
H32    H     0.03920   0.55948   0.22029   0.00000  Uiso   1.00
H33    H     0.83800   0.62826   0.15121   0.00000  Uiso   1.00
H34    H     0.85983   0.51130   0.48798   0.00000  Uiso   1.00
H35    H     0.18501   0.56296   0.18501   0.00000  Uiso   1.00
H36    H     0.76075   0.70799   0.03939   0.00000  Uiso   1.00
H37    H     0.80680   0.46134   0.74953   0.00000  Uiso   1.00
O38    O     0.29082   0.60617   0.30591   0.00000  Uiso   1.00
O39    O     0.73421   0.79645   0.11489   0.00000  Uiso   1.00
O40    O     0.79461   0.47285   0.04657   0.00000  Uiso   1.00
N41    N     0.20201   0.63729   0.44713   0.00000  Uiso   1.00
N42    N     0.80537   0.77289   0.31097   0.00000  Uiso   1.00
N43    N     0.84839   0.54230   0.97489   0.00000  Uiso   1.00
N44    N     0.17794   0.58593   0.27010   0.00000  Uiso   1.00
N45    N     0.78129   0.72154   0.13394   0.00000  Uiso   1.00
N46    N     0.82432   0.49095   0.79786   0.00000  Uiso   1.00
C47    C     0.95407   0.15533   0.09327   0.00000  Uiso   1.00
C48    C     0.01652   0.13781   0.00975   0.00000  Uiso   1.00
C49    C     0.08244   0.15168   0.03812   0.00000  Uiso   1.00
C50    C     0.13250   0.13157   0.94930   0.00000  Uiso   1.00
C51    C     0.23180   0.10936   0.83676   0.00000  Uiso   1.00
C52    C     0.90721   0.17518   0.97220   0.00000  Uiso   1.00
C53    C     0.88121   0.22048   0.96903   0.00000  Uiso   1.00
C54    C     0.83925   0.23183   0.84861   0.00000  Uiso   1.00
C55    C     0.76880   0.26764   0.67785   0.00000  Uiso   1.00
C56    C     0.91908   0.11163   0.15518   0.00000  Uiso   1.00
C57    C     0.90305   0.10350   0.30585   0.00000  Uiso   1.00
C58    C     0.87106   0.06134   0.33948   0.00000  Uiso   1.00
C59    C     0.81905   0.99847   0.45282   0.00000  Uiso   1.00
C60    C     0.92576   0.09494   0.88509   0.00000  Uiso   1.00
C61    C     0.00114   0.10500   0.89667   0.00000  Uiso   1.00
C62    C     0.05111   0.08486   0.80779   0.00000  Uiso   1.00
C63    C     0.11709   0.09870   0.83602   0.00000  Uiso   1.00
C64    C     0.89183   0.14238   0.85913   0.00000  Uiso   1.00
C65    C     0.84989   0.15366   0.73869   0.00000  Uiso   1.00
C66    C     0.82384   0.19896   0.73533   0.00000  Uiso   1.00
C67    C     0.90370   0.07882   0.04211   0.00000  Uiso   1.00
C68    C     0.87173   0.03667   0.07551   0.00000  Uiso   1.00
C69    C     0.85565   0.02848   0.22620   0.00000  Uiso   1.00
H70    H     0.96604   0.18087   0.18130   0.00000  Uiso   1.00
H71    H     0.09432   0.17707   0.12563   0.00000  Uiso   1.00
H72    H     0.89312   0.24586   0.05656   0.00000  Uiso   1.00
H73    H     0.91495   0.12889   0.39332   0.00000  Uiso   1.00
H74    H     0.22975   0.15840   0.01400   0.00000  Uiso   1.00
H75    H     0.80549   0.30344   0.86838   0.00000  Uiso   1.00
H76    H     0.85153   0.05679   0.57853   0.00000  Uiso   1.00
H77    H     0.91379   0.06940   0.79705   0.00000  Uiso   1.00
H78    H     0.03920   0.05948   0.72029   0.00000  Uiso   1.00
H79    H     0.83800   0.12826   0.65121   0.00000  Uiso   1.00
H80    H     0.85983   0.01130   0.98798   0.00000  Uiso   1.00
H81    H     0.18501   0.06296   0.68501   0.00000  Uiso   1.00
H82    H     0.76075   0.20799   0.53939   0.00000  Uiso   1.00
H83    H     0.80680   0.96134   0.24953   0.00000  Uiso   1.00
O84    O     0.29082   0.10617   0.80591   0.00000  Uiso   1.00
O85    O     0.73421   0.29645   0.61489   0.00000  Uiso   1.00
O86    O     0.79461   0.97285   0.54657   0.00000  Uiso   1.00
N87    N     0.20201   0.13729   0.94713   0.00000  Uiso   1.00
N88    N     0.80537   0.27289   0.81097   0.00000  Uiso   1.00
N89    N     0.84839   0.04230   0.47489   0.00000  Uiso   1.00
N90    N     0.17794   0.08593   0.77010   0.00000  Uiso   1.00
N91    N     0.78129   0.22154   0.63394   0.00000  Uiso   1.00
N92    N     0.82432   0.99095   0.29786   0.00000  Uiso   1.00
C93    C     0.04593   0.34467   0.59327   0.00000  Uiso   1.00
C94    C     0.98348   0.36219   0.50975   0.00000  Uiso   1.00
C95    C     0.91756   0.34832   0.53812   0.00000  Uiso   1.00
C96    C     0.86750   0.36843   0.44930   0.00000  Uiso   1.00
C97    C     0.76820   0.39064   0.33676   0.00000  Uiso   1.00
C98    C     0.09279   0.32482   0.47220   0.00000  Uiso   1.00
C99    C     0.11879   0.27952   0.46903   0.00000  Uiso   1.00
C100   C     0.16075   0.26817   0.34861   0.00000  Uiso   1.00
C101   C     0.23120   0.23236   0.17785   0.00000  Uiso   1.00
C102   C     0.08092   0.38837   0.65518   0.00000  Uiso   1.00
C103   C     0.09695   0.39650   0.80585   0.00000  Uiso   1.00
C104   C     0.12894   0.43866   0.83948   0.00000  Uiso   1.00
C105   C     0.18095   0.50153   0.95282   0.00000  Uiso   1.00
C106   C     0.07424   0.40506   0.38509   0.00000  Uiso   1.00
C107   C     0.99886   0.39500   0.39667   0.00000  Uiso   1.00
C108   C     0.94889   0.41514   0.30779   0.00000  Uiso   1.00
C109   C     0.88291   0.40130   0.33602   0.00000  Uiso   1.00
C110   C     0.10817   0.35762   0.35913   0.00000  Uiso   1.00
C111   C     0.15011   0.34634   0.23869   0.00000  Uiso   1.00
C112   C     0.17616   0.30104   0.23533   0.00000  Uiso   1.00
C113   C     0.09630   0.42118   0.54211   0.00000  Uiso   1.00
C114   C     0.12827   0.46333   0.57551   0.00000  Uiso   1.00
C115   C     0.14435   0.47152   0.72620   0.00000  Uiso   1.00
H116   H     0.03396   0.31913   0.68130   0.00000  Uiso   1.00
H117   H     0.90568   0.32293   0.62563   0.00000  Uiso   1.00
H118   H     0.10688   0.25414   0.55656   0.00000  Uiso   1.00
H119   H     0.08505   0.37111   0.89332   0.00000  Uiso   1.00
H120   H     0.77025   0.34160   0.51400   0.00000  Uiso   1.00
H121   H     0.19451   0.19656   0.36838   0.00000  Uiso   1.00
H122   H     0.14847   0.44321   0.07853   0.00000  Uiso   1.00
H123   H     0.08621   0.43060   0.29705   0.00000  Uiso   1.00
H124   H     0.96080   0.44052   0.22029   0.00000  Uiso   1.00
H125   H     0.16200   0.37174   0.15121   0.00000  Uiso   1.00
H126   H     0.14017   0.48870   0.48798   0.00000  Uiso   1.00
H127   H     0.81499   0.43704   0.18501   0.00000  Uiso   1.00
H128   H     0.23925   0.29201   0.03939   0.00000  Uiso   1.00
H129   H     0.19320   0.53866   0.74953   0.00000  Uiso   1.00
O130   O     0.70918   0.39383   0.30591   0.00000  Uiso   1.00
O131   O     0.26579   0.20355   0.11489   0.00000  Uiso   1.00
O132   O     0.20539   0.52715   0.04657   0.00000  Uiso   1.00
N133   N     0.79799   0.36271   0.44713   0.00000  Uiso   1.00
N134   N     0.19463   0.22711   0.31097   0.00000  Uiso   1.00
N135   N     0.15161   0.45770   0.97489   0.00000  Uiso   1.00
N136   N     0.82206   0.41407   0.27010   0.00000  Uiso   1.00
N137   N     0.21871   0.27846   0.13394   0.00000  Uiso   1.00
N138   N     0.17568   0.50905   0.79786   0.00000  Uiso   1.00
C139   C     0.04593   0.84467   0.09327   0.00000  Uiso   1.00
C140   C     0.98348   0.86219   0.00975   0.00000  Uiso   1.00
C141   C     0.91756   0.84832   0.03812   0.00000  Uiso   1.00
C142   C     0.86750   0.86843   0.94930   0.00000  Uiso   1.00
C143   C     0.76820   0.89064   0.83676   0.00000  Uiso   1.00
C144   C     0.09279   0.82482   0.97220   0.00000  Uiso   1.00
C145   C     0.11879   0.77952   0.96903   0.00000  Uiso   1.00
C146   C     0.16075   0.76817   0.84861   0.00000  Uiso   1.00
C147   C     0.23120   0.73236   0.67785   0.00000  Uiso   1.00
C148   C     0.08092   0.88837   0.15518   0.00000  Uiso   1.00
C149   C     0.09695   0.89650   0.30585   0.00000  Uiso   1.00
C150   C     0.12894   0.93866   0.33948   0.00000  Uiso   1.00
C151   C     0.18095   0.00153   0.45282   0.00000  Uiso   1.00
C152   C     0.07424   0.90506   0.88509   0.00000  Uiso   1.00
C153   C     0.99886   0.89500   0.89667   0.00000  Uiso   1.00
C154   C     0.94889   0.91514   0.80779   0.00000  Uiso   1.00
C155   C     0.88291   0.90130   0.83602   0.00000  Uiso   1.00
C156   C     0.10817   0.85762   0.85913   0.00000  Uiso   1.00
C157   C     0.15011   0.84634   0.73869   0.00000  Uiso   1.00
C158   C     0.17616   0.80104   0.73533   0.00000  Uiso   1.00
C159   C     0.09630   0.92118   0.04211   0.00000  Uiso   1.00
C160   C     0.12827   0.96333   0.07551   0.00000  Uiso   1.00
C161   C     0.14435   0.97152   0.22620   0.00000  Uiso   1.00
H162   H     0.03396   0.81913   0.18130   0.00000  Uiso   1.00
H163   H     0.90568   0.82293   0.12563   0.00000  Uiso   1.00
H164   H     0.10688   0.75414   0.05656   0.00000  Uiso   1.00
H165   H     0.08505   0.87111   0.39332   0.00000  Uiso   1.00
H166   H     0.77025   0.84160   0.01400   0.00000  Uiso   1.00
H167   H     0.19451   0.69656   0.86838   0.00000  Uiso   1.00
H168   H     0.14847   0.94321   0.57853   0.00000  Uiso   1.00
H169   H     0.08621   0.93060   0.79705   0.00000  Uiso   1.00
H170   H     0.96080   0.94052   0.72029   0.00000  Uiso   1.00
H171   H     0.16200   0.87174   0.65121   0.00000  Uiso   1.00
H172   H     0.14017   0.98870   0.98798   0.00000  Uiso   1.00
H173   H     0.81499   0.93704   0.68501   0.00000  Uiso   1.00
H174   H     0.23925   0.79201   0.53939   0.00000  Uiso   1.00
H175   H     0.19320   0.03866   0.24953   0.00000  Uiso   1.00
O176   O     0.70918   0.89383   0.80591   0.00000  Uiso   1.00
O177   O     0.26579   0.70355   0.61489   0.00000  Uiso   1.00
O178   O     0.20539   0.02715   0.54657   0.00000  Uiso   1.00
N179   N     0.79799   0.86271   0.94713   0.00000  Uiso   1.00
N180   N     0.19463   0.72711   0.81097   0.00000  Uiso   1.00
N181   N     0.15161   0.95770   0.47489   0.00000  Uiso   1.00
N182   N     0.82206   0.91407   0.77010   0.00000  Uiso   1.00
N183   N     0.21871   0.77846   0.63394   0.00000  Uiso   1.00
N184   N     0.17568   0.00905   0.29786   0.00000  Uiso   1.00
C185   C     0.45407   0.84467   0.59327   0.00000  Uiso   1.00
C186   C     0.51652   0.86219   0.50975   0.00000  Uiso   1.00
C187   C     0.58244   0.84832   0.53812   0.00000  Uiso   1.00
C188   C     0.63250   0.86843   0.44930   0.00000  Uiso   1.00
C189   C     0.73180   0.89064   0.33676   0.00000  Uiso   1.00
C190   C     0.40721   0.82482   0.47220   0.00000  Uiso   1.00
C191   C     0.38121   0.77952   0.46903   0.00000  Uiso   1.00
C192   C     0.33925   0.76817   0.34861   0.00000  Uiso   1.00
C193   C     0.26880   0.73236   0.17785   0.00000  Uiso   1.00
C194   C     0.41908   0.88837   0.65518   0.00000  Uiso   1.00
C195   C     0.40305   0.89650   0.80585   0.00000  Uiso   1.00
C196   C     0.37106   0.93866   0.83948   0.00000  Uiso   1.00
C197   C     0.31905   0.00153   0.95282   0.00000  Uiso   1.00
C198   C     0.42576   0.90506   0.38509   0.00000  Uiso   1.00
C199   C     0.50114   0.89500   0.39667   0.00000  Uiso   1.00
C200   C     0.55111   0.91514   0.30779   0.00000  Uiso   1.00
C201   C     0.61709   0.90130   0.33602   0.00000  Uiso   1.00
C202   C     0.39183   0.85762   0.35913   0.00000  Uiso   1.00
C203   C     0.34989   0.84634   0.23869   0.00000  Uiso   1.00
C204   C     0.32384   0.80104   0.23533   0.00000  Uiso   1.00
C205   C     0.40370   0.92118   0.54211   0.00000  Uiso   1.00
C206   C     0.37173   0.96333   0.57551   0.00000  Uiso   1.00
C207   C     0.35565   0.97152   0.72620   0.00000  Uiso   1.00
H208   H     0.46604   0.81913   0.68130   0.00000  Uiso   1.00
H209   H     0.59432   0.82293   0.62563   0.00000  Uiso   1.00
H210   H     0.39312   0.75414   0.55656   0.00000  Uiso   1.00
H211   H     0.41495   0.87111   0.89332   0.00000  Uiso   1.00
H212   H     0.72975   0.84160   0.51400   0.00000  Uiso   1.00
H213   H     0.30549   0.69656   0.36838   0.00000  Uiso   1.00
H214   H     0.35153   0.94321   0.07853   0.00000  Uiso   1.00
H215   H     0.41379   0.93060   0.29705   0.00000  Uiso   1.00
H216   H     0.53920   0.94052   0.22029   0.00000  Uiso   1.00
H217   H     0.33800   0.87174   0.15121   0.00000  Uiso   1.00
H218   H     0.35983   0.98870   0.48798   0.00000  Uiso   1.00
H219   H     0.68501   0.93704   0.18501   0.00000  Uiso   1.00
H220   H     0.26075   0.79201   0.03939   0.00000  Uiso   1.00
H221   H     0.30680   0.03866   0.74953   0.00000  Uiso   1.00
O222   O     0.79082   0.89383   0.30591   0.00000  Uiso   1.00
O223   O     0.23421   0.70355   0.11489   0.00000  Uiso   1.00
O224   O     0.29461   0.02715   0.04657   0.00000  Uiso   1.00
N225   N     0.70201   0.86271   0.44713   0.00000  Uiso   1.00
N226   N     0.30537   0.72711   0.31097   0.00000  Uiso   1.00
N227   N     0.34839   0.95770   0.97489   0.00000  Uiso   1.00
N228   N     0.67794   0.91407   0.27010   0.00000  Uiso   1.00
N229   N     0.28129   0.77846   0.13394   0.00000  Uiso   1.00
N230   N     0.32432   0.00905   0.79786   0.00000  Uiso   1.00
C231   C     0.45407   0.34467   0.09327   0.00000  Uiso   1.00
C232   C     0.51652   0.36219   0.00975   0.00000  Uiso   1.00
C233   C     0.58244   0.34832   0.03812   0.00000  Uiso   1.00
C234   C     0.63250   0.36843   0.94930   0.00000  Uiso   1.00
C235   C     0.73180   0.39064   0.83676   0.00000  Uiso   1.00
C236   C     0.40721   0.32482   0.97220   0.00000  Uiso   1.00
C237   C     0.38121   0.27952   0.96903   0.00000  Uiso   1.00
C238   C     0.33925   0.26817   0.84861   0.00000  Uiso   1.00
C239   C     0.26880   0.23236   0.67785   0.00000  Uiso   1.00
C240   C     0.41908   0.38837   0.15518   0.00000  Uiso   1.00
C241   C     0.40305   0.39650   0.30585   0.00000  Uiso   1.00
C242   C     0.37106   0.43866   0.33948   0.00000  Uiso   1.00
C243   C     0.31905   0.50153   0.45282   0.00000  Uiso   1.00
C244   C     0.42576   0.40506   0.88509   0.00000  Uiso   1.00
C245   C     0.50114   0.39500   0.89667   0.00000  Uiso   1.00
C246   C     0.55111   0.41514   0.80779   0.00000  Uiso   1.00
C247   C     0.61709   0.40130   0.83602   0.00000  Uiso   1.00
C248   C     0.39183   0.35762   0.85913   0.00000  Uiso   1.00
C249   C     0.34989   0.34634   0.73869   0.00000  Uiso   1.00
C250   C     0.32384   0.30104   0.73533   0.00000  Uiso   1.00
C251   C     0.40370   0.42118   0.04211   0.00000  Uiso   1.00
C252   C     0.37173   0.46333   0.07551   0.00000  Uiso   1.00
C253   C     0.35565   0.47152   0.22620   0.00000  Uiso   1.00
H254   H     0.46604   0.31913   0.18130   0.00000  Uiso   1.00
H255   H     0.59432   0.32293   0.12563   0.00000  Uiso   1.00
H256   H     0.39312   0.25414   0.05656   0.00000  Uiso   1.00
H257   H     0.41495   0.37111   0.39332   0.00000  Uiso   1.00
H258   H     0.72975   0.34160   0.01400   0.00000  Uiso   1.00
H259   H     0.30549   0.19656   0.86838   0.00000  Uiso   1.00
H260   H     0.35153   0.44321   0.57853   0.00000  Uiso   1.00
H261   H     0.41379   0.43060   0.79705   0.00000  Uiso   1.00
H262   H     0.53920   0.44052   0.72029   0.00000  Uiso   1.00
H263   H     0.33800   0.37174   0.65121   0.00000  Uiso   1.00
H264   H     0.35983   0.48870   0.98798   0.00000  Uiso   1.00
H265   H     0.68501   0.43704   0.68501   0.00000  Uiso   1.00
H266   H     0.26075   0.29201   0.53939   0.00000  Uiso   1.00
H267   H     0.30680   0.53866   0.24953   0.00000  Uiso   1.00
O268   O     0.79082   0.39383   0.80591   0.00000  Uiso   1.00
O269   O     0.23421   0.20355   0.61489   0.00000  Uiso   1.00
O270   O     0.29461   0.52715   0.54657   0.00000  Uiso   1.00
N271   N     0.70201   0.36271   0.94713   0.00000  Uiso   1.00
N272   N     0.30537   0.22711   0.81097   0.00000  Uiso   1.00
N273   N     0.34839   0.45770   0.47489   0.00000  Uiso   1.00
N274   N     0.67794   0.41407   0.77010   0.00000  Uiso   1.00
N275   N     0.28129   0.27846   0.63394   0.00000  Uiso   1.00
N276   N     0.32432   0.50905   0.29786   0.00000  Uiso   1.00
C277   C     0.54593   0.15533   0.59327   0.00000  Uiso   1.00
C278   C     0.48348   0.13781   0.50975   0.00000  Uiso   1.00
C279   C     0.41756   0.15168   0.53812   0.00000  Uiso   1.00
C280   C     0.36750   0.13157   0.44930   0.00000  Uiso   1.00
C281   C     0.26820   0.10936   0.33676   0.00000  Uiso   1.00
C282   C     0.59279   0.17518   0.47220   0.00000  Uiso   1.00
C283   C     0.61879   0.22048   0.46903   0.00000  Uiso   1.00
C284   C     0.66075   0.23183   0.34861   0.00000  Uiso   1.00
C285   C     0.73120   0.26764   0.17785   0.00000  Uiso   1.00
C286   C     0.58092   0.11163   0.65518   0.00000  Uiso   1.00
C287   C     0.59695   0.10350   0.80585   0.00000  Uiso   1.00
C288   C     0.62894   0.06134   0.83948   0.00000  Uiso   1.00
C289   C     0.68095   0.99847   0.95282   0.00000  Uiso   1.00
C290   C     0.57424   0.09494   0.38509   0.00000  Uiso   1.00
C291   C     0.49886   0.10500   0.39667   0.00000  Uiso   1.00
C292   C     0.44889   0.08486   0.30779   0.00000  Uiso   1.00
C293   C     0.38291   0.09870   0.33602   0.00000  Uiso   1.00
C294   C     0.60817   0.14238   0.35913   0.00000  Uiso   1.00
C295   C     0.65011   0.15366   0.23869   0.00000  Uiso   1.00
C296   C     0.67616   0.19896   0.23533   0.00000  Uiso   1.00
C297   C     0.59630   0.07882   0.54211   0.00000  Uiso   1.00
C298   C     0.62827   0.03667   0.57551   0.00000  Uiso   1.00
C299   C     0.64435   0.02848   0.72620   0.00000  Uiso   1.00
H300   H     0.53396   0.18087   0.68130   0.00000  Uiso   1.00
H301   H     0.40568   0.17707   0.62563   0.00000  Uiso   1.00
H302   H     0.60688   0.24586   0.55656   0.00000  Uiso   1.00
H303   H     0.58505   0.12889   0.89332   0.00000  Uiso   1.00
H304   H     0.27025   0.15840   0.51400   0.00000  Uiso   1.00
H305   H     0.69451   0.30344   0.36838   0.00000  Uiso   1.00
H306   H     0.64847   0.05679   0.07853   0.00000  Uiso   1.00
H307   H     0.58621   0.06940   0.29705   0.00000  Uiso   1.00
H308   H     0.46080   0.05948   0.22029   0.00000  Uiso   1.00
H309   H     0.66200   0.12826   0.15121   0.00000  Uiso   1.00
H310   H     0.64017   0.01130   0.48798   0.00000  Uiso   1.00
H311   H     0.31499   0.06296   0.18501   0.00000  Uiso   1.00
H312   H     0.73925   0.20799   0.03939   0.00000  Uiso   1.00
H313   H     0.69320   0.96134   0.74953   0.00000  Uiso   1.00
O314   O     0.20918   0.10617   0.30591   0.00000  Uiso   1.00
O315   O     0.76579   0.29645   0.11489   0.00000  Uiso   1.00
O316   O     0.70539   0.97285   0.04657   0.00000  Uiso   1.00
N317   N     0.29799   0.13729   0.44713   0.00000  Uiso   1.00
N318   N     0.69463   0.27289   0.31097   0.00000  Uiso   1.00
N319   N     0.65161   0.04230   0.97489   0.00000  Uiso   1.00
N320   N     0.32206   0.08593   0.27010   0.00000  Uiso   1.00
N321   N     0.71871   0.22154   0.13394   0.00000  Uiso   1.00
N322   N     0.67568   0.99095   0.79786   0.00000  Uiso   1.00
C323   C     0.54593   0.65533   0.09327   0.00000  Uiso   1.00
C324   C     0.48348   0.63781   0.00975   0.00000  Uiso   1.00
C325   C     0.41756   0.65168   0.03812   0.00000  Uiso   1.00
C326   C     0.36750   0.63157   0.94930   0.00000  Uiso   1.00
C327   C     0.26820   0.60936   0.83676   0.00000  Uiso   1.00
C328   C     0.59279   0.67518   0.97220   0.00000  Uiso   1.00
C329   C     0.61879   0.72048   0.96903   0.00000  Uiso   1.00
C330   C     0.66075   0.73183   0.84861   0.00000  Uiso   1.00
C331   C     0.73120   0.76764   0.67785   0.00000  Uiso   1.00
C332   C     0.58092   0.61163   0.15518   0.00000  Uiso   1.00
C333   C     0.59695   0.60350   0.30585   0.00000  Uiso   1.00
C334   C     0.62894   0.56134   0.33948   0.00000  Uiso   1.00
C335   C     0.68095   0.49847   0.45282   0.00000  Uiso   1.00
C336   C     0.57424   0.59494   0.88509   0.00000  Uiso   1.00
C337   C     0.49886   0.60500   0.89667   0.00000  Uiso   1.00
C338   C     0.44889   0.58486   0.80779   0.00000  Uiso   1.00
C339   C     0.38291   0.59870   0.83602   0.00000  Uiso   1.00
C340   C     0.60817   0.64238   0.85913   0.00000  Uiso   1.00
C341   C     0.65011   0.65366   0.73869   0.00000  Uiso   1.00
C342   C     0.67616   0.69896   0.73533   0.00000  Uiso   1.00
C343   C     0.59630   0.57882   0.04211   0.00000  Uiso   1.00
C344   C     0.62827   0.53667   0.07551   0.00000  Uiso   1.00
C345   C     0.64435   0.52848   0.22620   0.00000  Uiso   1.00
H346   H     0.53396   0.68087   0.18130   0.00000  Uiso   1.00
H347   H     0.40568   0.67707   0.12563   0.00000  Uiso   1.00
H348   H     0.60688   0.74586   0.05656   0.00000  Uiso   1.00
H349   H     0.58505   0.62889   0.39332   0.00000  Uiso   1.00
H350   H     0.27025   0.65840   0.01400   0.00000  Uiso   1.00
H351   H     0.69451   0.80344   0.86838   0.00000  Uiso   1.00
H352   H     0.64847   0.55679   0.57853   0.00000  Uiso   1.00
H353   H     0.58621   0.56940   0.79705   0.00000  Uiso   1.00
H354   H     0.46080   0.55948   0.72029   0.00000  Uiso   1.00
H355   H     0.66200   0.62826   0.65121   0.00000  Uiso   1.00
H356   H     0.64017   0.51130   0.98798   0.00000  Uiso   1.00
H357   H     0.31499   0.56296   0.68501   0.00000  Uiso   1.00
H358   H     0.73925   0.70799   0.53939   0.00000  Uiso   1.00
H359   H     0.69320   0.46134   0.24953   0.00000  Uiso   1.00
O360   O     0.20918   0.60617   0.80591   0.00000  Uiso   1.00
O361   O     0.76579   0.79645   0.61489   0.00000  Uiso   1.00
O362   O     0.70539   0.47285   0.54657   0.00000  Uiso   1.00
N363   N     0.29799   0.63729   0.94713   0.00000  Uiso   1.00
N364   N     0.69463   0.77289   0.81097   0.00000  Uiso   1.00
N365   N     0.65161   0.54230   0.47489   0.00000  Uiso   1.00
N366   N     0.32206   0.58593   0.77010   0.00000  Uiso   1.00
N367   N     0.71871   0.72154   0.63394   0.00000  Uiso   1.00
N368   N     0.67568   0.49095   0.29786   0.00000  Uiso   1.00
