data_job_06888
_audit_creation_date              2018-12-19
_audit_creation_method            'Materials Studio'
_symmetry_space_group_name_H-M    'P1'
_symmetry_Int_Tables_number       1
_symmetry_cell_setting            triclinic
loop_
_symmetry_equiv_pos_as_xyz
  x,y,z
_cell_length_a                    19.8928
_cell_length_b                    22.6157
_cell_length_c                    25.0576
_cell_angle_alpha                 101.9352
_cell_angle_beta                  67.2368
_cell_angle_gamma                 115.0506
loop_
_atom_site_label
_atom_site_type_symbol
_atom_site_fract_x
_atom_site_fract_y
_atom_site_fract_z
_atom_site_U_iso_or_equiv
_atom_site_adp_type
_atom_site_occupancy
C1     C     0.56734   0.11651   0.37545   0.00000  Uiso   1.00
C2     C     0.62682   0.08368   0.34874   0.00000  Uiso   1.00
C3     C     0.62236   0.03224   0.30725   0.00000  Uiso   1.00
C4     C     0.68265   0.00905   0.28835   0.00000  Uiso   1.00
C5     C     0.76549   0.95389   0.24358   0.00000  Uiso   1.00
C6     C     0.53988   0.11136   0.44078   0.00000  Uiso   1.00
C7     C     0.46232   0.08320   0.47668   0.00000  Uiso   1.00
C8     C     0.44942   0.08333   0.53526   0.00000  Uiso   1.00
C9     C     0.39728   0.07118   0.63340   0.00000  Uiso   1.00
C10    C     0.61411   0.18897   0.36437   0.00000  Uiso   1.00
C11    C     0.59895   0.22608   0.33603   0.00000  Uiso   1.00
C12    C     0.64853   0.29156   0.33028   0.00000  Uiso   1.00
C13    C     0.71163   0.39992   0.30977   0.00000  Uiso   1.00
C14    C     0.68233   0.16682   0.41565   0.00000  Uiso   1.00
C15    C     0.68928   0.11100   0.37058   0.00000  Uiso   1.00
C16    C     0.74959   0.08789   0.35173   0.00000  Uiso   1.00
C17    C     0.74522   0.03642   0.31022   0.00000  Uiso   1.00
C18    C     0.60234   0.13868   0.46262   0.00000  Uiso   1.00
C19    C     0.58955   0.13885   0.52116   0.00000  Uiso   1.00
C20    C     0.51199   0.11070   0.55714   0.00000  Uiso   1.00
C21    C     0.67657   0.21630   0.38620   0.00000  Uiso   1.00
C22    C     0.72618   0.28173   0.38051   0.00000  Uiso   1.00
C23    C     0.71110   0.31893   0.35216   0.00000  Uiso   1.00
H24    H     0.51871   0.09524   0.35845   0.00000  Uiso   1.00
H25    H     0.57401   0.01110   0.29037   0.00000  Uiso   1.00
H26    H     0.41399   0.06206   0.45977   0.00000  Uiso   1.00
H27    H     0.55061   0.20492   0.31914   0.00000  Uiso   1.00
H28    H     0.66286   0.92985   0.22453   0.00000  Uiso   1.00
H29    H     0.32545   0.03733   0.58173   0.00000  Uiso   1.00
H30    H     0.61352   0.33856   0.28518   0.00000  Uiso   1.00
H31    H     0.73096   0.18809   0.43265   0.00000  Uiso   1.00
H32    H     0.79792   0.10905   0.36864   0.00000  Uiso   1.00
H33    H     0.63790   0.16001   0.53805   0.00000  Uiso   1.00
H34    H     0.77451   0.30286   0.39741   0.00000  Uiso   1.00
H35    H     0.84459   0.00934   0.28806   0.00000  Uiso   1.00
H36    H     0.50718   0.11682   0.64526   0.00000  Uiso   1.00
H37    H     0.79525   0.41806   0.34871   0.00000  Uiso   1.00
O38    O     0.79393   0.91591   0.21287   0.00000  Uiso   1.00
O39    O     0.35126   0.05693   0.68150   0.00000  Uiso   1.00
O40    O     0.72920   0.45214   0.29242   0.00000  Uiso   1.00
N41    N     0.69645   0.95941   0.24826   0.00000  Uiso   1.00
N42    N     0.38099   0.05989   0.58222   0.00000  Uiso   1.00
N43    N     0.65030   0.34152   0.30498   0.00000  Uiso   1.00
N44    N     0.79424   0.00219   0.28245   0.00000  Uiso   1.00
N45    N     0.47878   0.10267   0.61640   0.00000  Uiso   1.00
N46    N     0.74809   0.38430   0.33917   0.00000  Uiso   1.00
C47    C     0.02489   0.91752   0.42450   0.00000  Uiso   1.00
C48    C     0.06749   0.98288   0.39586   0.00000  Uiso   1.00
C49    C     0.14709   0.00953   0.36369   0.00000  Uiso   1.00
C50    C     0.17475   0.06987   0.34110   0.00000  Uiso   1.00
C51    C     0.24854   0.16643   0.29524   0.00000  Uiso   1.00
C52    C     0.98623   0.93256   0.48858   0.00000  Uiso   1.00
C53    C     0.99751   0.91689   0.53436   0.00000  Uiso   1.00
C54    C     0.95675   0.93486   0.58983   0.00000  Uiso   1.00
C55    C     0.90433   0.95326   0.68792   0.00000  Uiso   1.00
C56    C     0.95760   0.87808   0.40080   0.00000  Uiso   1.00
C57    C     0.94480   0.81659   0.37278   0.00000  Uiso   1.00
C58    C     0.87992   0.78869   0.35435   0.00000  Uiso   1.00
C59    C     0.78307   0.72250   0.31614   0.00000  Uiso   1.00
C60    C     0.93244   0.97728   0.44162   0.00000  Uiso   1.00
C61    C     0.01727   0.01534   0.40516   0.00000  Uiso   1.00
C62    C     0.04481   0.07565   0.38262   0.00000  Uiso   1.00
C63    C     0.12444   0.10238   0.35041   0.00000  Uiso   1.00
C64    C     0.93601   0.96502   0.49788   0.00000  Uiso   1.00
C65    C     0.89522   0.98301   0.55330   0.00000  Uiso   1.00
C66    C     0.90644   0.96738   0.59914   0.00000  Uiso   1.00
C67    C     0.90739   0.91054   0.41009   0.00000  Uiso   1.00
C68    C     0.84251   0.88272   0.39171   0.00000  Uiso   1.00
C69    C     0.82962   0.82120   0.36366   0.00000  Uiso   1.00
H70    H     0.06398   0.89225   0.41727   0.00000  Uiso   1.00
H71    H     0.18594   0.98440   0.35651   0.00000  Uiso   1.00
H72    H     0.03636   0.89177   0.52715   0.00000  Uiso   1.00
H73    H     0.98367   0.79149   0.36559   0.00000  Uiso   1.00
H74    H     0.29901   0.10089   0.29325   0.00000  Uiso   1.00
H75    H     0.98360   0.90555   0.65307   0.00000  Uiso   1.00
H76    H     0.87248   0.69410   0.31239   0.00000  Uiso   1.00
H77    H     0.89334   0.00255   0.44886   0.00000  Uiso   1.00
H78    H     0.00593   0.10076   0.38982   0.00000  Uiso   1.00
H79    H     0.85636   0.00812   0.56047   0.00000  Uiso   1.00
H80    H     0.80367   0.90785   0.39891   0.00000  Uiso   1.00
H81    H     0.15291   0.19533   0.32030   0.00000  Uiso   1.00
H82    H     0.83750   0.99999   0.68012   0.00000  Uiso   1.00
H83    H     0.72639   0.78854   0.33944   0.00000  Uiso   1.00
O84    O     0.30311   0.21073   0.26739   0.00000  Uiso   1.00
O85    O     0.88930   0.95444   0.73945   0.00000  Uiso   1.00
O86    O     0.74352   0.67702   0.29249   0.00000  Uiso   1.00
N87    N     0.24917   0.10963   0.30771   0.00000  Uiso   1.00
N88    N     0.95430   0.92701   0.64412   0.00000  Uiso   1.00
N89    N     0.85040   0.72931   0.32562   0.00000  Uiso   1.00
N90    N     0.17056   0.16045   0.32226   0.00000  Uiso   1.00
N91    N     0.87568   0.97783   0.65867   0.00000  Uiso   1.00
N92    N     0.77178   0.78013   0.34018   0.00000  Uiso   1.00
C93    C     0.30563   0.51122   0.46286   0.00000  Uiso   1.00
C94    C     0.24941   0.51893   0.43973   0.00000  Uiso   1.00
C95    C     0.25327   0.57753   0.42727   0.00000  Uiso   1.00
C96    C     0.19634   0.57425   0.40651   0.00000  Uiso   1.00
C97    C     0.11793   0.59531   0.37185   0.00000  Uiso   1.00
C98    C     0.25423   0.47548   0.51883   0.00000  Uiso   1.00
C99    C     0.26215   0.49753   0.57286   0.00000  Uiso   1.00
C100   C     0.20928   0.45767   0.61868   0.00000  Uiso   1.00
C101   C     0.13839   0.41124   0.70681   0.00000  Uiso   1.00
C102   C     0.33927   0.46387   0.41993   0.00000  Uiso   1.00
C103   C     0.41870   0.47615   0.39082   0.00000  Uiso   1.00
C104   C     0.43743   0.42651   0.35338   0.00000  Uiso   1.00
C105   C     0.49859   0.36206   0.28795   0.00000  Uiso   1.00
C106   C     0.19766   0.40120   0.44814   0.00000  Uiso   1.00
C107   C     0.19076   0.45917   0.43175   0.00000  Uiso   1.00
C108   C     0.13381   0.45580   0.41099   0.00000  Uiso   1.00
C109   C     0.13759   0.51438   0.39850   0.00000  Uiso   1.00
C110   C     0.19558   0.41572   0.51084   0.00000  Uiso   1.00
C111   C     0.14270   0.37581   0.55659   0.00000  Uiso   1.00
C112   C     0.15053   0.39780   0.61068   0.00000  Uiso   1.00
C113   C     0.28063   0.40411   0.41194   0.00000  Uiso   1.00
C114   C     0.29924   0.35443   0.37454   0.00000  Uiso   1.00
C115   C     0.37868   0.36664   0.34537   0.00000  Uiso   1.00
H116   H     0.35129   0.55775   0.46908   0.00000  Uiso   1.00
H117   H     0.29865   0.62376   0.43347   0.00000  Uiso   1.00
H118   H     0.30754   0.54378   0.57903   0.00000  Uiso   1.00
H119   H     0.46406   0.52240   0.39701   0.00000  Uiso   1.00
H120   H     0.21442   0.67060   0.39048   0.00000  Uiso   1.00
H121   H     0.23318   0.50194   0.69741   0.00000  Uiso   1.00
H122   H     0.56324   0.45687   0.31359   0.00000  Uiso   1.00
H123   H     0.15201   0.35468   0.44192   0.00000  Uiso   1.00
H124   H     0.08844   0.40955   0.40481   0.00000  Uiso   1.00
H125   H     0.09732   0.32957   0.55039   0.00000  Uiso   1.00
H126   H     0.25385   0.30819   0.36836   0.00000  Uiso   1.00
H127   H     0.04380   0.49674   0.36722   0.00000  Uiso   1.00
H128   H     0.06256   0.32808   0.67416   0.00000  Uiso   1.00
H129   H     0.39262   0.28300   0.29033   0.00000  Uiso   1.00
O130   O     0.09087   0.62343   0.35495   0.00000  Uiso   1.00
O131   O     0.11549   0.40215   0.75763   0.00000  Uiso   1.00
O132   O     0.54852   0.34302   0.25406   0.00000  Uiso   1.00
N133   N     0.18300   0.62215   0.39009   0.00000  Uiso   1.00
N134   N     0.20053   0.46447   0.67705   0.00000  Uiso   1.00
N135   N     0.50911   0.42232   0.31822   0.00000  Uiso   1.00
N136   N     0.09119   0.52860   0.37757   0.00000  Uiso   1.00
N137   N     0.10872   0.37092   0.66454   0.00000  Uiso   1.00
N138   N     0.41730   0.32877   0.30571   0.00000  Uiso   1.00
C139   C     0.93089   0.67432   0.87331   0.00000  Uiso   1.00
C140   C     0.87342   0.63804   0.84023   0.00000  Uiso   1.00
C141   C     0.88128   0.59097   0.79550   0.00000  Uiso   1.00
C142   C     0.82235   0.56352   0.77082   0.00000  Uiso   1.00
C143   C     0.74289   0.50427   0.71652   0.00000  Uiso   1.00
C144   C     0.88259   0.66199   0.93711   0.00000  Uiso   1.00
C145   C     0.89818   0.63506   0.97384   0.00000  Uiso   1.00
C146   C     0.84698   0.62778   0.03072   0.00000  Uiso   1.00
C147   C     0.78180   0.60576   0.12684   0.00000  Uiso   1.00
C148   C     0.95537   0.74689   0.86709   0.00000  Uiso   1.00
C149   C     0.03214   0.79136   0.84495   0.00000  Uiso   1.00
C150   C     0.04221   0.85556   0.84289   0.00000  Uiso   1.00
C151   C     0.09002   0.96536   0.83029   0.00000  Uiso   1.00
C152   C     0.81226   0.70928   0.90904   0.00000  Uiso   1.00
C153   C     0.80898   0.65703   0.85964   0.00000  Uiso   1.00
C154   C     0.75003   0.62964   0.83502   0.00000  Uiso   1.00
C155   C     0.75780   0.58254   0.79026   0.00000  Uiso   1.00
C156   C     0.81816   0.68097   0.95652   0.00000  Uiso   1.00
C157   C     0.76693   0.67374   0.01336   0.00000  Uiso   1.00
C158   C     0.78243   0.64680   0.05016   0.00000  Uiso   1.00
C159   C     0.89093   0.76588   0.88649   0.00000  Uiso   1.00
C160   C     0.90089   0.83003   0.88447   0.00000  Uiso   1.00
C161   C     0.97766   0.87458   0.86233   0.00000  Uiso   1.00
H162   H     0.98105   0.65954   0.85821   0.00000  Uiso   1.00
H163   H     0.93115   0.57628   0.78050   0.00000  Uiso   1.00
H164   H     0.94805   0.62038   0.95881   0.00000  Uiso   1.00
H165   H     0.08199   0.77664   0.82994   0.00000  Uiso   1.00
H166   H     0.84739   0.49234   0.70291   0.00000  Uiso   1.00
H167   H     0.88304   0.58533   0.07889   0.00000  Uiso   1.00
H168   H     0.16548   0.91485   0.80715   0.00000  Uiso   1.00
H169   H     0.76210   0.72406   0.92415   0.00000  Uiso   1.00
H170   H     0.70017   0.64435   0.85005   0.00000  Uiso   1.00
H171   H     0.71707   0.68844   0.02836   0.00000  Uiso   1.00
H172   H     0.85101   0.84470   0.89949   0.00000  Uiso   1.00
H173   H     0.65992   0.54758   0.75936   0.00000  Uiso   1.00
H174   H     0.69557   0.64057   0.13535   0.00000  Uiso   1.00
H175   H     0.97801   0.97009   0.86360   0.00000  Uiso   1.00
O176   O     0.71686   0.46634   0.68121   0.00000  Uiso   1.00
O177   O     0.76364   0.58836   0.17449   0.00000  Uiso   1.00
O178   O     0.13419   0.02067   0.81797   0.00000  Uiso   1.00
N179   N     0.81177   0.51629   0.72635   0.00000  Uiso   1.00
N180   N     0.84510   0.60322   0.07788   0.00000  Uiso   1.00
N181   N     0.10915   0.91130   0.82383   0.00000  Uiso   1.00
N182   N     0.71090   0.54601   0.75673   0.00000  Uiso   1.00
N183   N     0.74422   0.63295   0.10825   0.00000  Uiso   1.00
N184   N     0.00828   0.94102   0.85421   0.00000  Uiso   1.00
C185   C     0.21125   0.23973   0.89955   0.00000  Uiso   1.00
C186   C     0.23380   0.31044   0.88802   0.00000  Uiso   1.00
C187   C     0.19935   0.33153   0.86098   0.00000  Uiso   1.00
C188   C     0.22834   0.39825   0.85453   0.00000  Uiso   1.00
C189   C     0.25402   0.50136   0.83362   0.00000  Uiso   1.00
C190   C     0.19053   0.23809   0.96467   0.00000  Uiso   1.00
C191   C     0.11970   0.19833   0.00208   0.00000  Uiso   1.00
C192   C     0.11228   0.20414   0.06015   0.00000  Uiso   1.00
C193   C     0.07081   0.19488   0.15824   0.00000  Uiso   1.00
C194   C     0.28667   0.22617   0.87107   0.00000  Uiso   1.00
C195   C     0.29667   0.17638   0.82978   0.00000  Uiso   1.00
C196   C     0.37019   0.17215   0.80906   0.00000  Uiso   1.00
C197   C     0.47798   0.14439   0.76182   0.00000  Uiso   1.00
C198   C     0.32401   0.32073   0.93617   0.00000  Uiso   1.00
C199   C     0.29505   0.35444   0.90791   0.00000  Uiso   1.00
C200   C     0.32411   0.42115   0.90149   0.00000  Uiso   1.00
C201   C     0.28971   0.44233   0.87445   0.00000  Uiso   1.00
C202   C     0.25178   0.28208   0.98456   0.00000  Uiso   1.00
C203   C     0.24447   0.28795   0.04259   0.00000  Uiso   1.00
C204   C     0.17364   0.24822   0.08008   0.00000  Uiso   1.00
C205   C     0.34793   0.27017   0.89095   0.00000  Uiso   1.00
C206   C     0.42144   0.26600   0.87030   0.00000  Uiso   1.00
C207   C     0.43155   0.21623   0.82899   0.00000  Uiso   1.00
H208   H     0.16356   0.20547   0.88407   0.00000  Uiso   1.00
H209   H     0.15194   0.29746   0.84560   0.00000  Uiso   1.00
H210   H     0.07232   0.16428   0.98667   0.00000  Uiso   1.00
H211   H     0.24926   0.14235   0.81440   0.00000  Uiso   1.00
H212   H     0.16606   0.41886   0.81174   0.00000  Uiso   1.00
H213   H     0.99817   0.13803   0.10919   0.00000  Uiso   1.00
H214   H     0.37129   0.09176   0.74593   0.00000  Uiso   1.00
H215   H     0.37170   0.35498   0.95165   0.00000  Uiso   1.00
H216   H     0.37151   0.45518   0.91689   0.00000  Uiso   1.00
H217   H     0.29188   0.32200   0.05796   0.00000  Uiso   1.00
H218   H     0.46882   0.30006   0.88570   0.00000  Uiso   1.00
H219   H     0.34426   0.54687   0.86961   0.00000  Uiso   1.00
H220   H     0.17638   0.26603   0.16706   0.00000  Uiso   1.00
H221   H     0.54950   0.21977   0.80380   0.00000  Uiso   1.00
O222   O     0.25126   0.54608   0.81661   0.00000  Uiso   1.00
O223   O     0.03101   0.17763   0.20685   0.00000  Uiso   1.00
O224   O     0.52053   0.11693   0.73026   0.00000  Uiso   1.00
N225   N     0.20803   0.43523   0.83012   0.00000  Uiso   1.00
N226   N     0.05106   0.17268   0.10822   0.00000  Uiso   1.00
N227   N     0.39989   0.12941   0.76862   0.00000  Uiso   1.00
N228   N     0.30393   0.50411   0.86126   0.00000  Uiso   1.00
N229   N     0.14696   0.24156   0.13936   0.00000  Uiso   1.00
N230   N     0.49579   0.19829   0.79975   0.00000  Uiso   1.00
C231   C     0.61122   0.08363   0.83764   0.00000  Uiso   1.00
C232   C     0.65154   0.06020   0.86492   0.00000  Uiso   1.00
C233   C     0.71504   0.04144   0.83514   0.00000  Uiso   1.00
C234   C     0.74345   0.02156   0.86799   0.00000  Uiso   1.00
C235   C     0.81124   0.98538   0.90116   0.00000  Uiso   1.00
C236   C     0.61495   0.15077   0.86646   0.00000  Uiso   1.00
C237   C     0.64767   0.20816   0.83797   0.00000  Uiso   1.00
C238   C     0.64526   0.26452   0.87212   0.00000  Uiso   1.00
C239   C     0.65618   0.36894   0.90767   0.00000  Uiso   1.00
C240   C     0.52437   0.03858   0.85782   0.00000  Uiso   1.00
C241   C     0.48092   0.00164   0.82206   0.00000  Uiso   1.00
C242   C     0.40224   0.96354   0.84893   0.00000  Uiso   1.00
C243   C     0.27253   0.89376   0.87106   0.00000  Uiso   1.00
C244   C     0.54875   0.08167   0.94895   0.00000  Uiso   1.00
C245   C     0.61761   0.05914   0.92538   0.00000  Uiso   1.00
C246   C     0.64592   0.03927   0.95829   0.00000  Uiso   1.00
C247   C     0.70945   0.02049   0.92856   0.00000  Uiso   1.00
C248   C     0.58102   0.14971   0.92692   0.00000  Uiso   1.00
C249   C     0.57855   0.20599   0.96112   0.00000  Uiso   1.00
C250   C     0.61126   0.26345   0.93268   0.00000  Uiso   1.00
C251   C     0.49043   0.03751   0.91827   0.00000  Uiso   1.00
C252   C     0.41181   0.99947   0.94521   0.00000  Uiso   1.00
C253   C     0.36825   0.96247   0.90950   0.00000  Uiso   1.00
H254   H     0.63764   0.08446   0.79057   0.00000  Uiso   1.00
H255   H     0.74129   0.04228   0.78835   0.00000  Uiso   1.00
H256   H     0.67391   0.20897   0.79118   0.00000  Uiso   1.00
H257   H     0.50720   0.00248   0.77527   0.00000  Uiso   1.00
H258   H     0.84126   0.99507   0.81255   0.00000  Uiso   1.00
H259   H     0.69917   0.34653   0.81852   0.00000  Uiso   1.00
H260   H     0.34761   0.91110   0.78497   0.00000  Uiso   1.00
H261   H     0.52233   0.08084   0.99602   0.00000  Uiso   1.00
H262   H     0.61965   0.03846   0.00507   0.00000  Uiso   1.00
H263   H     0.55228   0.20515   0.00790   0.00000  Uiso   1.00
H264   H     0.38557   0.99865   0.99199   0.00000  Uiso   1.00
H265   H     0.74254   0.99197   0.98845   0.00000  Uiso   1.00
H266   H     0.60045   0.34343   0.99441   0.00000  Uiso   1.00
H267   H     0.24890   0.90800   0.96087   0.00000  Uiso   1.00
O268   O     0.85802   0.96572   0.90275   0.00000  Uiso   1.00
O269   O     0.67160   0.42683   0.91057   0.00000  Uiso   1.00
O270   O     0.21036   0.85555   0.86657   0.00000  Uiso   1.00
N271   N     0.80466   0.00014   0.85271   0.00000  Uiso   1.00
N272   N     0.67183   0.32875   0.85828   0.00000  Uiso   1.00
N273   N     0.34315   0.92167   0.82692   0.00000  Uiso   1.00
N274   N     0.75154   0.99847   0.94736   0.00000  Uiso   1.00
N275   N     0.61871   0.32708   0.95293   0.00000  Uiso   1.00
N276   N     0.29003   0.92000   0.92157   0.00000  Uiso   1.00
C277   C     0.61271   0.80162   0.62292   0.00000  Uiso   1.00
C278   C     0.61976   0.87249   0.63641   0.00000  Uiso   1.00
C279   C     0.68961   0.92693   0.62863   0.00000  Uiso   1.00
C280   C     0.68356   0.98757   0.64356   0.00000  Uiso   1.00
C281   C     0.70565   0.09672   0.66115   0.00000  Uiso   1.00
C282   C     0.56674   0.77308   0.58090   0.00000  Uiso   1.00
C283   C     0.59202   0.74392   0.52647   0.00000  Uiso   1.00
C284   C     0.54133   0.72086   0.49468   0.00000  Uiso   1.00
C285   C     0.48109   0.67563   0.42611   0.00000  Uiso   1.00
C286   C     0.55914   0.76673   0.67908   0.00000  Uiso   1.00
C287   C     0.57802   0.73223   0.70718   0.00000  Uiso   1.00
C288   C     0.52092   0.70381   0.75804   0.00000  Uiso   1.00
C289   C     0.44889   0.64873   0.84191   0.00000  Uiso   1.00
C290   C     0.47773   0.81248   0.66325   0.00000  Uiso   1.00
C291   C     0.54644   0.87839   0.65831   0.00000  Uiso   1.00
C292   C     0.54028   0.93896   0.67326   0.00000  Uiso   1.00
C293   C     0.61011   0.99348   0.66552   0.00000  Uiso   1.00
C294   C     0.49343   0.77898   0.60281   0.00000  Uiso   1.00
C295   C     0.44268   0.75595   0.57110   0.00000  Uiso   1.00
C296   C     0.46788   0.72677   0.51662   0.00000  Uiso   1.00
C297   C     0.48583   0.77263   0.70099   0.00000  Uiso   1.00
C298   C     0.42869   0.74426   0.75181   0.00000  Uiso   1.00
C299   C     0.44748   0.70972   0.77999   0.00000  Uiso   1.00
H300   H     0.66979   0.79702   0.60585   0.00000  Uiso   1.00
H301   H     0.74634   0.92235   0.61167   0.00000  Uiso   1.00
H302   H     0.64876   0.73936   0.50952   0.00000  Uiso   1.00
H303   H     0.63476   0.72767   0.69021   0.00000  Uiso   1.00
H304   H     0.79888   0.06390   0.62776   0.00000  Uiso   1.00
H305   H     0.59311   0.67804   0.41239   0.00000  Uiso   1.00
H306   H     0.56360   0.65339   0.79341   0.00000  Uiso   1.00
H307   H     0.42065   0.81708   0.68031   0.00000  Uiso   1.00
H308   H     0.48353   0.94351   0.69022   0.00000  Uiso   1.00
H309   H     0.38595   0.76052   0.58807   0.00000  Uiso   1.00
H310   H     0.37196   0.74883   0.76876   0.00000  Uiso   1.00
H311   H     0.58558   0.08108   0.69151   0.00000  Uiso   1.00
H312   H     0.37981   0.69521   0.47613   0.00000  Uiso   1.00
H313   H     0.35030   0.67057   0.85715   0.00000  Uiso   1.00
O314   O     0.73809   0.15530   0.66479   0.00000  Uiso   1.00
O315   O     0.46812   0.64905   0.38223   0.00000  Uiso   1.00
O316   O     0.42941   0.61672   0.88212   0.00000  Uiso   1.00
N317   N     0.74005   0.05059   0.64142   0.00000  Uiso   1.00
N318   N     0.54767   0.68984   0.44005   0.00000  Uiso   1.00
N319   N     0.52007   0.66678   0.79626   0.00000  Uiso   1.00
N320   N     0.62527   0.05983   0.67572   0.00000  Uiso   1.00
N321   N     0.43290   0.69909   0.47435   0.00000  Uiso   1.00
N322   N     0.40530   0.67603   0.83057   0.00000  Uiso   1.00
C323   C     0.29183   0.32408   0.63773   0.00000  Uiso   1.00
C324   C     0.24131   0.26936   0.67994   0.00000  Uiso   1.00
C325   C     0.16313   0.25555   0.71456   0.00000  Uiso   1.00
C326   C     0.12729   0.20345   0.75025   0.00000  Uiso   1.00
C327   C     0.04261   0.12409   0.81562   0.00000  Uiso   1.00
C328   C     0.32176   0.29125   0.57882   0.00000  Uiso   1.00
C329   C     0.31123   0.29584   0.52844   0.00000  Uiso   1.00
C330   C     0.34312   0.26216   0.47901   0.00000  Uiso   1.00
C331   C     0.38339   0.21681   0.38739   0.00000  Uiso   1.00
C332   C     0.36408   0.36504   0.65565   0.00000  Uiso   1.00
C333   C     0.38914   0.43168   0.66985   0.00000  Uiso   1.00
C334   C     0.45667   0.46014   0.68509   0.00000  Uiso   1.00
C335   C     0.56263   0.52936   0.71275   0.00000  Uiso   1.00
C336   C     0.36722   0.25610   0.63953   0.00000  Uiso   1.00
C337   C     0.28226   0.23244   0.68091   0.00000  Uiso   1.00
C338   C     0.24653   0.18034   0.71656   0.00000  Uiso   1.00
C339   C     0.16831   0.16646   0.75123   0.00000  Uiso   1.00
C340   C     0.36271   0.25432   0.57980   0.00000  Uiso   1.00
C341   C     0.39463   0.22063   0.53043   0.00000  Uiso   1.00
C342   C     0.38414   0.22517   0.47999   0.00000  Uiso   1.00
C343   C     0.40502   0.32812   0.65663   0.00000  Uiso   1.00
C344   C     0.47253   0.35647   0.67184   0.00000  Uiso   1.00
C345   C     0.49769   0.42315   0.68607   0.00000  Uiso   1.00
H346   H     0.25996   0.35282   0.63696   0.00000  Uiso   1.00
H347   H     0.13146   0.28414   0.71379   0.00000  Uiso   1.00
H348   H     0.27955   0.32443   0.52770   0.00000  Uiso   1.00
H349   H     0.35743   0.46024   0.66909   0.00000  Uiso   1.00
H350   H     0.00705   0.19168   0.79939   0.00000  Uiso   1.00
H351   H     0.31931   0.27665   0.40699   0.00000  Uiso   1.00
H352   H     0.48356   0.56305   0.70514   0.00000  Uiso   1.00
H353   H     0.39910   0.22736   0.64029   0.00000  Uiso   1.00
H354   H     0.27823   0.15178   0.71730   0.00000  Uiso   1.00
H355   H     0.42632   0.19207   0.53120   0.00000  Uiso   1.00
H356   H     0.50421   0.32788   0.67259   0.00000  Uiso   1.00
H357   H     0.12617   0.08426   0.80223   0.00000  Uiso   1.00
H358   H     0.43844   0.16923   0.40983   0.00000  Uiso   1.00
H359   H     0.60269   0.45562   0.70798   0.00000  Uiso   1.00
O360   O     0.98458   0.09051   0.85140   0.00000  Uiso   1.00
O361   O     0.39428   0.20200   0.33659   0.00000  Uiso   1.00
O362   O     0.60976   0.57774   0.72775   0.00000  Uiso   1.00
N363   N     0.05167   0.17678   0.78950   0.00000  Uiso   1.00
N364   N     0.34361   0.25621   0.42263   0.00000  Uiso   1.00
N365   N     0.49718   0.52397   0.70136   0.00000  Uiso   1.00
N366   N     0.11577   0.11898   0.79103   0.00000  Uiso   1.00
N367   N     0.40771   0.19841   0.42416   0.00000  Uiso   1.00
N368   N     0.56129   0.46617   0.70289   0.00000  Uiso   1.00
C369   C     0.01028   0.67755   0.59261   0.00000  Uiso   1.00
C370   C     0.06708   0.67754   0.61959   0.00000  Uiso   1.00
C371   C     0.07942   0.62318   0.62440   0.00000  Uiso   1.00
C372   C     0.13388   0.63336   0.65046   0.00000  Uiso   1.00
C373   C     0.21592   0.62386   0.68922   0.00000  Uiso   1.00
C374   C     0.05972   0.72632   0.54498   0.00000  Uiso   1.00
C375   C     0.06587   0.71296   0.48704   0.00000  Uiso   1.00
C376   C     0.11414   0.76421   0.45030   0.00000  Uiso   1.00
C377   C     0.18471   0.83045   0.37322   0.00000  Uiso   1.00
C378   C     0.95530   0.70744   0.63911   0.00000  Uiso   1.00
C379   C     0.87364   0.67823   0.66032   0.00000  Uiso   1.00
C380   C     0.83399   0.71359   0.70282   0.00000  Uiso   1.00
C381   C     0.74243   0.75053   0.77191   0.00000  Uiso   1.00
C382   C     0.08507   0.79231   0.63036   0.00000  Uiso   1.00
C383   C     0.10770   0.73987   0.64010   0.00000  Uiso   1.00
C384   C     0.16216   0.75014   0.66617   0.00000  Uiso   1.00
C385   C     0.17457   0.69580   0.67101   0.00000  Uiso   1.00
C386   C     0.10034   0.78864   0.56548   0.00000  Uiso   1.00
C387   C     0.14861   0.83992   0.52881   0.00000  Uiso   1.00
C388   C     0.15483   0.82665   0.47084   0.00000  Uiso   1.00
C389   C     0.99592   0.76977   0.65962   0.00000  Uiso   1.00
C390   C     0.95639   0.80519   0.70209   0.00000  Uiso   1.00
C391   C     0.87468   0.77603   0.72336   0.00000  Uiso   1.00
H392   H     0.97866   0.62903   0.57664   0.00000  Uiso   1.00
H393   H     0.04797   0.57495   0.60852   0.00000  Uiso   1.00
H394   H     0.03442   0.66472   0.47119   0.00000  Uiso   1.00
H395   H     0.84223   0.62999   0.64444   0.00000  Uiso   1.00
H396   H     0.14276   0.54248   0.65288   0.00000  Uiso   1.00
H397   H     0.11416   0.73178   0.36332   0.00000  Uiso   1.00
H398   H     0.70888   0.65855   0.72866   0.00000  Uiso   1.00
H399   H     0.11669   0.84084   0.64632   0.00000  Uiso   1.00
H400   H     0.19358   0.79838   0.68203   0.00000  Uiso   1.00
H401   H     0.18003   0.88815   0.54470   0.00000  Uiso   1.00
H402   H     0.98784   0.85342   0.71795   0.00000  Uiso   1.00
H403   H     0.26094   0.72383   0.71255   0.00000  Uiso   1.00
H404   H     0.23234   0.91313   0.42299   0.00000  Uiso   1.00
H405   H     0.82706   0.83990   0.78832   0.00000  Uiso   1.00
O406   O     0.24996   0.60141   0.70493   0.00000  Uiso   1.00
O407   O     0.21242   0.84976   0.32504   0.00000  Uiso   1.00
O408   O     0.68071   0.75368   0.80435   0.00000  Uiso   1.00
N409   N     0.16001   0.59099   0.66203   0.00000  Uiso   1.00
N410   N     0.13328   0.76797   0.39131   0.00000  Uiso   1.00
N411   N     0.75438   0.69951   0.73286   0.00000  Uiso   1.00
N412   N     0.22360   0.68857   0.69414   0.00000  Uiso   1.00
N413   N     0.19687   0.86555   0.42342   0.00000  Uiso   1.00
N414   N     0.81797   0.79709   0.76497   0.00000  Uiso   1.00
C415   C     0.39923   0.55309   0.16578   0.00000  Uiso   1.00
C416   C     0.46153   0.59262   0.19424   0.00000  Uiso   1.00
C417   C     0.46861   0.65225   0.22500   0.00000  Uiso   1.00
C418   C     0.52955   0.68058   0.24767   0.00000  Uiso   1.00
C419   C     0.61840   0.74658   0.29303   0.00000  Uiso   1.00
C420   C     0.44431   0.54259   0.10206   0.00000  Uiso   1.00
C421   C     0.43691   0.56014   0.05532   0.00000  Uiso   1.00
C422   C     0.48336   0.54635   0.00039   0.00000  Uiso   1.00
C423   C     0.54545   0.53463   0.90265   0.00000  Uiso   1.00
C424   C     0.35740   0.48589   0.19113   0.00000  Uiso   1.00
C425   C     0.27692   0.45576   0.21927   0.00000  Uiso   1.00
C426   C     0.25019   0.39423   0.23933   0.00000  Uiso   1.00
C427   C     0.17733   0.29447   0.27988   0.00000  Uiso   1.00
C428   C     0.49487   0.49737   0.15133   0.00000  Uiso   1.00
C429   C     0.51348   0.56235   0.18639   0.00000  Uiso   1.00
C430   C     0.57442   0.59060   0.20902   0.00000  Uiso   1.00
C431   C     0.58159   0.65026   0.23981   0.00000  Uiso   1.00
C432   C     0.49626   0.51232   0.09421   0.00000  Uiso   1.00
C433   C     0.54273   0.49850   0.03934   0.00000  Uiso   1.00
C434   C     0.53541   0.51603   0.99253   0.00000  Uiso   1.00
C435   C     0.40935   0.45562   0.18329   0.00000  Uiso   1.00
C436   C     0.38274   0.39412   0.20330   0.00000  Uiso   1.00
C437   C     0.30224   0.36391   0.23147   0.00000  Uiso   1.00
H438   H     0.35879   0.57665   0.17188   0.00000  Uiso   1.00
H439   H     0.42839   0.67566   0.23106   0.00000  Uiso   1.00
H440   H     0.39670   0.58356   0.06141   0.00000  Uiso   1.00
H441   H     0.23674   0.47920   0.22534   0.00000  Uiso   1.00
H442   H     0.52850   0.77209   0.29318   0.00000  Uiso   1.00
H443   H     0.46164   0.57787   0.93547   0.00000  Uiso   1.00
H444   H     0.12433   0.35781   0.28115   0.00000  Uiso   1.00
H445   H     0.53532   0.47381   0.14522   0.00000  Uiso   1.00
H446   H     0.61462   0.56717   0.20294   0.00000  Uiso   1.00
H447   H     0.58292   0.47507   0.03329   0.00000  Uiso   1.00
H448   H     0.42296   0.37072   0.19722   0.00000  Uiso   1.00
H449   H     0.67964   0.68404   0.27036   0.00000  Uiso   1.00
H450   H     0.61279   0.48982   0.91264   0.00000  Uiso   1.00
H451   H     0.27548   0.26976   0.25832   0.00000  Uiso   1.00
O452   O     0.65307   0.79134   0.32020   0.00000  Uiso   1.00
O453   O     0.56534   0.53653   0.85090   0.00000  Uiso   1.00
O454   O     0.12280   0.24781   0.30442   0.00000  Uiso   1.00
N455   N     0.55318   0.73854   0.27990   0.00000  Uiso   1.00
N456   N     0.49068   0.55697   0.94546   0.00000  Uiso   1.00
N457   N     0.17532   0.35123   0.26863   0.00000  Uiso   1.00
N458   N     0.63451   0.69117   0.26762   0.00000  Uiso   1.00
N459   N     0.57201   0.50960   0.93318   0.00000  Uiso   1.00
N460   N     0.25665   0.30385   0.25635   0.00000  Uiso   1.00
C461   C     0.10155   0.77825   0.18646   0.00000  Uiso   1.00
C462   C     0.04447   0.71238   0.21230   0.00000  Uiso   1.00
C463   C     0.05308   0.68213   0.25077   0.00000  Uiso   1.00
C464   C     0.99442   0.62196   0.26938   0.00000  Uiso   1.00
C465   C     0.91568   0.52405   0.31240   0.00000  Uiso   1.00
C466   C     0.12529   0.76563   0.12086   0.00000  Uiso   1.00
C467   C     0.20184   0.78016   0.08245   0.00000  Uiso   1.00
C468   C     0.21121   0.76481   0.02409   0.00000  Uiso   1.00
C469   C     0.25793   0.74961   0.92516   0.00000  Uiso   1.00
C470   C     0.05304   0.82037   0.20197   0.00000  Uiso   1.00
C471   C     0.06885   0.88094   0.23175   0.00000  Uiso   1.00
C472   C     0.01739   0.91170   0.24166   0.00000  Uiso   1.00
C473   C     0.95194   0.98150   0.26866   0.00000  Uiso   1.00
C474   C     0.98208   0.72518   0.15110   0.00000  Uiso   1.00
C475   C     0.97958   0.68356   0.19309   0.00000  Uiso   1.00
C476   C     0.92089   0.62342   0.21165   0.00000  Uiso   1.00
C477   C     0.92941   0.59308   0.25014   0.00000  Uiso   1.00
C478   C     0.06040   0.73680   0.10166   0.00000  Uiso   1.00
C479   C     0.06965   0.72144   0.04334   0.00000  Uiso   1.00
C480   C     0.14620   0.73593   0.00485   0.00000  Uiso   1.00
C481   C     0.98814   0.79155   0.18277   0.00000  Uiso   1.00
C482   C     0.93666   0.82222   0.19264   0.00000  Uiso   1.00
C483   C     0.95239   0.88282   0.22242   0.00000  Uiso   1.00
H484   H     0.15208   0.80069   0.20140   0.00000  Uiso   1.00
H485   H     0.10331   0.70446   0.26561   0.00000  Uiso   1.00
H486   H     0.25204   0.80247   0.09732   0.00000  Uiso   1.00
H487   H     0.11907   0.90324   0.24660   0.00000  Uiso   1.00
H488   H     0.02063   0.58503   0.32832   0.00000  Uiso   1.00
H489   H     0.33425   0.79172   0.97347   0.00000  Uiso   1.00
H490   H     0.05385   0.00421   0.28825   0.00000  Uiso   1.00
H491   H     0.93156   0.70274   0.13615   0.00000  Uiso   1.00
H492   H     0.87068   0.60112   0.19679   0.00000  Uiso   1.00
H493   H     0.01942   0.69913   0.02850   0.00000  Uiso   1.00
H494   H     0.88645   0.79990   0.17777   0.00000  Uiso   1.00
H495   H     0.83183   0.50116   0.27245   0.00000  Uiso   1.00
H496   H     0.14545   0.70785   0.91761   0.00000  Uiso   1.00
H497   H     0.86505   0.92034   0.23238   0.00000  Uiso   1.00
O498   O     0.89018   0.47801   0.34143   0.00000  Uiso   1.00
O499   O     0.30164   0.74918   0.87589   0.00000  Uiso   1.00
O500   O     0.93376   0.02796   0.28887   0.00000  Uiso   1.00
N501   N     0.98454   0.57925   0.30686   0.00000  Uiso   1.00
N502   N     0.27776   0.77247   0.97510   0.00000  Uiso   1.00
N503   N     0.01562   0.97114   0.26937   0.00000  Uiso   1.00
N504   N     0.88295   0.53411   0.27680   0.00000  Uiso   1.00
N505   N     0.17616   0.72734   0.94504   0.00000  Uiso   1.00
N506   N     0.91403   0.92601   0.23931   0.00000  Uiso   1.00
C507   C     0.78320   0.15779   0.13269   0.00000  Uiso   1.00
C508   C     0.69746   0.15107   0.16134   0.00000  Uiso   1.00
C509   C     0.63366   0.09423   0.18264   0.00000  Uiso   1.00
C510   C     0.55993   0.09817   0.20728   0.00000  Uiso   1.00
C511   C     0.42825   0.07880   0.25126   0.00000  Uiso   1.00
C512   C     0.81122   0.18412   0.07327   0.00000  Uiso   1.00
C513   C     0.84308   0.15506   0.02051   0.00000  Uiso   1.00
C514   C     0.86511   0.18682   0.97101   0.00000  Uiso   1.00
C515   C     0.91009   0.21878   0.87825   0.00000  Uiso   1.00
C516   C     0.82892   0.21224   0.16749   0.00000  Uiso   1.00
C517   C     0.87568   0.20684   0.19394   0.00000  Uiso   1.00
C518   C     0.91263   0.26228   0.22375   0.00000  Uiso   1.00
C519   C     0.98509   0.33791   0.27729   0.00000  Uiso   1.00
C520   C     0.76570   0.26586   0.13859   0.00000  Uiso   1.00
C521   C     0.68796   0.20977   0.16455   0.00000  Uiso   1.00
C522   C     0.61431   0.21380   0.18917   0.00000  Uiso   1.00
C523   C     0.55041   0.15698   0.21049   0.00000  Uiso   1.00
C524   C     0.80172   0.24281   0.07647   0.00000  Uiso   1.00
C525   C     0.82372   0.27463   0.02704   0.00000  Uiso   1.00
C526   C     0.85559   0.24563   0.97422   0.00000  Uiso   1.00
C527   C     0.81942   0.27094   0.17069   0.00000  Uiso   1.00
C528   C     0.85631   0.32640   0.20047   0.00000  Uiso   1.00
C529   C     0.90311   0.32109   0.22696   0.00000  Uiso   1.00
H530   H     0.79060   0.11209   0.13019   0.00000  Uiso   1.00
H531   H     0.64104   0.04881   0.18014   0.00000  Uiso   1.00
H532   H     0.85043   0.10964   0.01804   0.00000  Uiso   1.00
H533   H     0.88302   0.16141   0.19145   0.00000  Uiso   1.00
H534   H     0.47104   0.00454   0.23692   0.00000  Uiso   1.00
H535   H     0.91256   0.13280   0.89512   0.00000  Uiso   1.00
H536   H     0.98129   0.24197   0.26078   0.00000  Uiso   1.00
H537   H     0.75831   0.31156   0.14108   0.00000  Uiso   1.00
H538   H     0.60697   0.25923   0.19164   0.00000  Uiso   1.00
H539   H     0.81636   0.32005   0.02953   0.00000  Uiso   1.00
H540   H     0.84895   0.37182   0.20294   0.00000  Uiso   1.00
H541   H     0.44338   0.17532   0.24625   0.00000  Uiso   1.00
H542   H     0.88492   0.30359   0.90445   0.00000  Uiso   1.00
H543   H     0.95364   0.41275   0.27011   0.00000  Uiso   1.00
O544   O     0.35824   0.05190   0.27463   0.00000  Uiso   1.00
O545   O     0.93752   0.22018   0.82620   0.00000  Uiso   1.00
O546   O     0.02768   0.36340   0.30594   0.00000  Uiso   1.00
N547   N     0.48530   0.05192   0.23219   0.00000  Uiso   1.00
N548   N     0.89809   0.17183   0.91263   0.00000  Uiso   1.00
N549   N     0.96236   0.27389   0.25447   0.00000  Uiso   1.00
N550   N     0.47042   0.14382   0.23721   0.00000  Uiso   1.00
N551   N     0.88321   0.26373   0.91765   0.00000  Uiso   1.00
N552   N     0.94748   0.36579   0.25949   0.00000  Uiso   1.00
