data_job_06769
_audit_creation_date              2018-12-19
_audit_creation_method            'Materials Studio'
_symmetry_space_group_name_H-M    'P1'
_symmetry_Int_Tables_number       1
_symmetry_cell_setting            triclinic
loop_
_symmetry_equiv_pos_as_xyz
  x,y,z
_cell_length_a                    20.4147
_cell_length_b                    21.2287
_cell_length_c                    21.9083
_cell_angle_alpha                 75.0533
_cell_angle_beta                  69.4807
_cell_angle_gamma                 74.8793
loop_
_atom_site_label
_atom_site_type_symbol
_atom_site_fract_x
_atom_site_fract_y
_atom_site_fract_z
_atom_site_U_iso_or_equiv
_atom_site_adp_type
_atom_site_occupancy
C1     C     0.22505   0.18479   0.06380   0.00000  Uiso   1.00
C2     C     0.23889   0.19517   0.98916   0.00000  Uiso   1.00
C3     C     0.29904   0.21431   0.94060   0.00000  Uiso   1.00
C4     C     0.30160   0.22111   0.87509   0.00000  Uiso   1.00
C5     C     0.33154   0.23907   0.76166   0.00000  Uiso   1.00
C6     C     0.15426   0.23015   0.09022   0.00000  Uiso   1.00
C7     C     0.14325   0.27869   0.12663   0.00000  Uiso   1.00
C8     C     0.07456   0.31492   0.14621   0.00000  Uiso   1.00
C9     C     0.97310   0.38715   0.18971   0.00000  Uiso   1.00
C10    C     0.21181   0.11402   0.09149   0.00000  Uiso   1.00
C11    C     0.24916   0.06491   0.12900   0.00000  Uiso   1.00
C12    C     0.22891   0.00337   0.14966   0.00000  Uiso   1.00
C13    C     0.21680   0.89530   0.19515   0.00000  Uiso   1.00
C14    C     0.12265   0.16284   0.03382   0.00000  Uiso   1.00
C15    C     0.18327   0.18325   0.97288   0.00000  Uiso   1.00
C16    C     0.18574   0.19001   0.90743   0.00000  Uiso   1.00
C17    C     0.24588   0.20916   0.85878   0.00000  Uiso   1.00
C18    C     0.09864   0.21822   0.07393   0.00000  Uiso   1.00
C19    C     0.02995   0.25439   0.09346   0.00000  Uiso   1.00
C20    C     0.01884   0.30298   0.12989   0.00000  Uiso   1.00
C21    C     0.15619   0.10209   0.07521   0.00000  Uiso   1.00
C22    C     0.13587   0.04062   0.09582   0.00000  Uiso   1.00
C23    C     0.17319   0.99143   0.13335   0.00000  Uiso   1.00
H24    H     0.26835   0.19408   0.07648   0.00000  Uiso   1.00
H25    H     0.34207   0.22354   0.95322   0.00000  Uiso   1.00
H26    H     0.18630   0.28790   0.13923   0.00000  Uiso   1.00
H27    H     0.29220   0.07416   0.14159   0.00000  Uiso   1.00
H28    H     0.39926   0.25096   0.80937   0.00000  Uiso   1.00
H29    H     0.07081   0.38666   0.20161   0.00000  Uiso   1.00
H30    H     0.29412   0.93594   0.20659   0.00000  Uiso   1.00
H31    H     0.07934   0.15355   0.02115   0.00000  Uiso   1.00
H32    H     0.14269   0.18078   0.89484   0.00000  Uiso   1.00
H33    H     0.98692   0.24515   0.08086   0.00000  Uiso   1.00
H34    H     0.09282   0.03141   0.08321   0.00000  Uiso   1.00
H35    H     0.23744   0.21626   0.76199   0.00000  Uiso   1.00
H36    H     0.90899   0.35196   0.15423   0.00000  Uiso   1.00
H37    H     0.13230   0.90124   0.15921   0.00000  Uiso   1.00
O38    O     0.36342   0.25228   0.70359   0.00000  Uiso   1.00
O39    O     0.93251   0.43030   0.21821   0.00000  Uiso   1.00
O40    O     0.22549   0.83897   0.22473   0.00000  Uiso   1.00
N41    N     0.35249   0.23905   0.81556   0.00000  Uiso   1.00
N42    N     0.04541   0.36592   0.18227   0.00000  Uiso   1.00
N43    N     0.25417   0.94454   0.18693   0.00000  Uiso   1.00
N44    N     0.26541   0.22037   0.79006   0.00000  Uiso   1.00
N45    N     0.95834   0.34725   0.15677   0.00000  Uiso   1.00
N46    N     0.16710   0.92587   0.16144   0.00000  Uiso   1.00
C47    C     0.21660   0.56903   0.08461   0.00000  Uiso   1.00
C48    C     0.24533   0.60613   0.11775   0.00000  Uiso   1.00
C49    C     0.28707   0.57712   0.15954   0.00000  Uiso   1.00
C50    C     0.30795   0.61963   0.18483   0.00000  Uiso   1.00
C51    C     0.35560   0.66673   0.23873   0.00000  Uiso   1.00
C52    C     0.13601   0.59236   0.10557   0.00000  Uiso   1.00
C53    C     0.08583   0.55177   0.13711   0.00000  Uiso   1.00
C54    C     0.01469   0.58269   0.15213   0.00000  Uiso   1.00
C55    C     0.89262   0.60841   0.18708   0.00000  Uiso   1.00
C56    C     0.24299   0.59570   0.01039   0.00000  Uiso   1.00
C57    C     0.28276   0.55792   0.96190   0.00000  Uiso   1.00
C58    C     0.30168   0.59167   0.89679   0.00000  Uiso   1.00
C59    C     0.34572   0.62258   0.78396   0.00000  Uiso   1.00
C60    C     0.17945   0.69612   0.05522   0.00000  Uiso   1.00
C61    C     0.22515   0.67516   0.10178   0.00000  Uiso   1.00
C62    C     0.24597   0.71773   0.12701   0.00000  Uiso   1.00
C63    C     0.28774   0.68879   0.16883   0.00000  Uiso   1.00
C64    C     0.11583   0.66139   0.08960   0.00000  Uiso   1.00
C65    C     0.04474   0.69238   0.10458   0.00000  Uiso   1.00
C66    C     0.99448   0.65185   0.13614   0.00000  Uiso   1.00
C67    C     0.22282   0.66473   0.99442   0.00000  Uiso   1.00
C68    C     0.24167   0.69854   0.92938   0.00000  Uiso   1.00
C69    C     0.28147   0.66082   0.88080   0.00000  Uiso   1.00
H70    H     0.23230   0.51529   0.09705   0.00000  Uiso   1.00
H71    H     0.30266   0.52369   0.17189   0.00000  Uiso   1.00
H72    H     0.10146   0.49835   0.14945   0.00000  Uiso   1.00
H73    H     0.29836   0.50451   0.97427   0.00000  Uiso   1.00
H74    H     0.37176   0.56345   0.24784   0.00000  Uiso   1.00
H75    H     0.94752   0.51001   0.20051   0.00000  Uiso   1.00
H76    H     0.36272   0.52299   0.83111   0.00000  Uiso   1.00
H77    H     0.16375   0.74987   0.04279   0.00000  Uiso   1.00
H78    H     0.23035   0.77115   0.11465   0.00000  Uiso   1.00
H79    H     0.02915   0.74580   0.09221   0.00000  Uiso   1.00
H80    H     0.22605   0.75196   0.91704   0.00000  Uiso   1.00
H81    H     0.31307   0.76430   0.20139   0.00000  Uiso   1.00
H82    H     0.88882   0.71085   0.15405   0.00000  Uiso   1.00
H83    H     0.30403   0.72384   0.78466   0.00000  Uiso   1.00
O84    O     0.38744   0.67364   0.27289   0.00000  Uiso   1.00
O85    O     0.83086   0.60352   0.21078   0.00000  Uiso   1.00
O86    O     0.37560   0.62056   0.72614   0.00000  Uiso   1.00
N87    N     0.34882   0.60780   0.22703   0.00000  Uiso   1.00
N88    N     0.95217   0.55784   0.18279   0.00000  Uiso   1.00
N89    N     0.34034   0.56997   0.83744   0.00000  Uiso   1.00
N90    N     0.31723   0.71587   0.20204   0.00000  Uiso   1.00
N91    N     0.92059   0.66591   0.15780   0.00000  Uiso   1.00
N92    N     0.30876   0.67805   0.81244   0.00000  Uiso   1.00
C93    C     0.27264   0.15501   0.47945   0.00000  Uiso   1.00
C94    C     0.28220   0.08768   0.52479   0.00000  Uiso   1.00
C95    C     0.29216   0.02646   0.50786   0.00000  Uiso   1.00
C96    C     0.29983   0.97065   0.55635   0.00000  Uiso   1.00
C97    C     0.31497   0.86531   0.61716   0.00000  Uiso   1.00
C98    C     0.20225   0.19485   0.51580   0.00000  Uiso   1.00
C99    C     0.14501   0.22375   0.49130   0.00000  Uiso   1.00
C100   C     0.08538   0.25816   0.53222   0.00000  Uiso   1.00
C101   C     0.97643   0.31924   0.57904   0.00000  Uiso   1.00
C102   C     0.33066   0.18917   0.47743   0.00000  Uiso   1.00
C103   C     0.38136   0.21330   0.42066   0.00000  Uiso   1.00
C104   C     0.42984   0.24293   0.42928   0.00000  Uiso   1.00
C105   C     0.52026   0.29519   0.41653   0.00000  Uiso   1.00
C106   C     0.26855   0.16475   0.59569   0.00000  Uiso   1.00
C107   C     0.27997   0.09298   0.58792   0.00000  Uiso   1.00
C108   C     0.28763   0.03724   0.63646   0.00000  Uiso   1.00
C109   C     0.29761   0.97595   0.61960   0.00000  Uiso   1.00
C110   C     0.20003   0.20015   0.57893   0.00000  Uiso   1.00
C111   C     0.14048   0.23453   0.61989   0.00000  Uiso   1.00
C112   C     0.08316   0.26346   0.59546   0.00000  Uiso   1.00
C113   C     0.32844   0.19446   0.54056   0.00000  Uiso   1.00
C114   C     0.37684   0.22407   0.54926   0.00000  Uiso   1.00
C115   C     0.42761   0.24824   0.49253   0.00000  Uiso   1.00
H116   H     0.27436   0.15089   0.43030   0.00000  Uiso   1.00
H117   H     0.29387   0.02239   0.45900   0.00000  Uiso   1.00
H118   H     0.14674   0.21965   0.44244   0.00000  Uiso   1.00
H119   H     0.38307   0.20919   0.37182   0.00000  Uiso   1.00
H120   H     0.31449   0.88226   0.51866   0.00000  Uiso   1.00
H121   H     0.00427   0.29821   0.48373   0.00000  Uiso   1.00
H122   H     0.50261   0.27616   0.33481   0.00000  Uiso   1.00
H123   H     0.26682   0.16887   0.64484   0.00000  Uiso   1.00
H124   H     0.28591   0.04135   0.68531   0.00000  Uiso   1.00
H125   H     0.13878   0.23861   0.66874   0.00000  Uiso   1.00
H126   H     0.37511   0.22816   0.59813   0.00000  Uiso   1.00
H127   H     0.30802   0.89765   0.70234   0.00000  Uiso   1.00
H128   H     0.99781   0.31360   0.66741   0.00000  Uiso   1.00
H129   H     0.49614   0.29155   0.51850   0.00000  Uiso   1.00
O130   O     0.32393   0.80574   0.63326   0.00000  Uiso   1.00
O131   O     0.91695   0.35146   0.58742   0.00000  Uiso   1.00
O132   O     0.57075   0.32254   0.39205   0.00000  Uiso   1.00
N133   N     0.31036   0.90338   0.55633   0.00000  Uiso   1.00
N134   N     0.02032   0.29226   0.52368   0.00000  Uiso   1.00
N135   N     0.48621   0.27166   0.38445   0.00000  Uiso   1.00
N136   N     0.30688   0.91166   0.65517   0.00000  Uiso   1.00
N137   N     0.01685   0.30054   0.62251   0.00000  Uiso   1.00
N138   N     0.48274   0.27995   0.48329   0.00000  Uiso   1.00
C139   C     0.72957   0.65723   0.59599   0.00000  Uiso   1.00
C140   C     0.73339   0.58239   0.61708   0.00000  Uiso   1.00
C141   C     0.77370   0.53976   0.65593   0.00000  Uiso   1.00
C142   C     0.76996   0.47296   0.66974   0.00000  Uiso   1.00
C143   C     0.78234   0.36030   0.70621   0.00000  Uiso   1.00
C144   C     0.65096   0.68856   0.61989   0.00000  Uiso   1.00
C145   C     0.62197   0.73520   0.66109   0.00000  Uiso   1.00
C146   C     0.54884   0.75777   0.67726   0.00000  Uiso   1.00
C147   C     0.43325   0.80998   0.71805   0.00000  Uiso   1.00
C148   C     0.75066   0.67139   0.52046   0.00000  Uiso   1.00
C149   C     0.80549   0.70360   0.47805   0.00000  Uiso   1.00
C150   C     0.81628   0.71173   0.41051   0.00000  Uiso   1.00
C151   C     0.85549   0.73727   0.29691   0.00000  Uiso   1.00
C152   C     0.65123   0.61440   0.55143   0.00000  Uiso   1.00
C153   C     0.69084   0.55913   0.59288   0.00000  Uiso   1.00
C154   C     0.68704   0.49238   0.60663   0.00000  Uiso   1.00
C155   C     0.72734   0.44965   0.64549   0.00000  Uiso   1.00
C156   C     0.60841   0.66530   0.59569   0.00000  Uiso   1.00
C157   C     0.53531   0.68782   0.61179   0.00000  Uiso   1.00
C158   C     0.50621   0.73447   0.65302   0.00000  Uiso   1.00
C159   C     0.70811   0.64813   0.49625   0.00000  Uiso   1.00
C160   C     0.71882   0.65621   0.42876   0.00000  Uiso   1.00
C161   C     0.77365   0.68843   0.38626   0.00000  Uiso   1.00
H162   H     0.76269   0.67535   0.61483   0.00000  Uiso   1.00
H163   H     0.80662   0.55778   0.67466   0.00000  Uiso   1.00
H164   H     0.65491   0.75320   0.67981   0.00000  Uiso   1.00
H165   H     0.83840   0.72160   0.49680   0.00000  Uiso   1.00
H166   H     0.83654   0.41719   0.73033   0.00000  Uiso   1.00
H167   H     0.51666   0.82925   0.74118   0.00000  Uiso   1.00
H168   H     0.90358   0.76262   0.35527   0.00000  Uiso   1.00
H169   H     0.61811   0.59629   0.53258   0.00000  Uiso   1.00
H170   H     0.65411   0.47439   0.58790   0.00000  Uiso   1.00
H171   H     0.50240   0.66980   0.59305   0.00000  Uiso   1.00
H172   H     0.68589   0.63820   0.41004   0.00000  Uiso   1.00
H173   H     0.71275   0.34950   0.65992   0.00000  Uiso   1.00
H174   H     0.39287   0.76156   0.67077   0.00000  Uiso   1.00
H175   H     0.77979   0.69493   0.28486   0.00000  Uiso   1.00
O176   O     0.80092   0.30459   0.73301   0.00000  Uiso   1.00
O177   O     0.38125   0.84520   0.74724   0.00000  Uiso   1.00
O178   O     0.88888   0.75778   0.24094   0.00000  Uiso   1.00
N179   N     0.80248   0.41799   0.70616   0.00000  Uiso   1.00
N180   N     0.50341   0.80323   0.71631   0.00000  Uiso   1.00
N181   N     0.86513   0.74095   0.35552   0.00000  Uiso   1.00
N182   N     0.73587   0.38157   0.66827   0.00000  Uiso   1.00
N183   N     0.43680   0.76681   0.67842   0.00000  Uiso   1.00
N184   N     0.79853   0.70453   0.31763   0.00000  Uiso   1.00
C185   C     0.74832   0.69518   0.96580   0.00000  Uiso   1.00
C186   C     0.77148   0.72765   0.00739   0.00000  Uiso   1.00
C187   C     0.81538   0.77436   0.98288   0.00000  Uiso   1.00
C188   C     0.83029   0.79807   0.02905   0.00000  Uiso   1.00
C189   C     0.87048   0.85190   0.08326   0.00000  Uiso   1.00
C190   C     0.66712   0.70931   0.98962   0.00000  Uiso   1.00
C191   C     0.62327   0.74059   0.95015   0.00000  Uiso   1.00
C192   C     0.55032   0.74885   0.98136   0.00000  Uiso   1.00
C193   C     0.42848   0.77417   0.00796   0.00000  Uiso   1.00
C194   C     0.77101   0.62052   0.98645   0.00000  Uiso   1.00
C195   C     0.81450   0.57713   0.94432   0.00000  Uiso   1.00
C196   C     0.82902   0.51063   0.97286   0.00000  Uiso   1.00
C197   C     0.86850   0.39808   0.99455   0.00000  Uiso   1.00
C198   C     0.69674   0.65424   0.09139   0.00000  Uiso   1.00
C199   C     0.74346   0.70542   0.07561   0.00000  Uiso   1.00
C200   C     0.75831   0.72906   0.12183   0.00000  Uiso   1.00
C201   C     0.80222   0.77579   0.09739   0.00000  Uiso   1.00
C202   C     0.63910   0.68708   0.05783   0.00000  Uiso   1.00
C203   C     0.56620   0.69529   0.08910   0.00000  Uiso   1.00
C204   C     0.52225   0.72658   0.04970   0.00000  Uiso   1.00
C205   C     0.74300   0.59828   0.05467   0.00000  Uiso   1.00
C206   C     0.75744   0.53184   0.08328   0.00000  Uiso   1.00
C207   C     0.80095   0.48835   0.04120   0.00000  Uiso   1.00
H208   H     0.77013   0.71249   0.91269   0.00000  Uiso   1.00
H209   H     0.83704   0.79156   0.93008   0.00000  Uiso   1.00
H210   H     0.64496   0.75778   0.89736   0.00000  Uiso   1.00
H211   H     0.83618   0.59435   0.89153   0.00000  Uiso   1.00
H212   H     0.89886   0.86943   0.97945   0.00000  Uiso   1.00
H213   H     0.49384   0.79820   0.91045   0.00000  Uiso   1.00
H214   H     0.89705   0.45357   0.89816   0.00000  Uiso   1.00
H215   H     0.67493   0.63693   0.14450   0.00000  Uiso   1.00
H216   H     0.73662   0.71185   0.17462   0.00000  Uiso   1.00
H217   H     0.54454   0.67808   0.14189   0.00000  Uiso   1.00
H218   H     0.73575   0.51465   0.13607   0.00000  Uiso   1.00
H219   H     0.81735   0.80473   0.17792   0.00000  Uiso   1.00
H220   H     0.41233   0.73350   0.10892   0.00000  Uiso   1.00
H221   H     0.81554   0.38888   0.09664   0.00000  Uiso   1.00
O222   O     0.90038   0.88775   0.09431   0.00000  Uiso   1.00
O223   O     0.36902   0.79428   0.00379   0.00000  Uiso   1.00
O224   O     0.89802   0.34214   0.98767   0.00000  Uiso   1.00
N225   N     0.87122   0.84391   0.02203   0.00000  Uiso   1.00
N226   N     0.49255   0.77732   0.95752   0.00000  Uiso   1.00
N227   N     0.86950   0.45512   0.94603   0.00000  Uiso   1.00
N228   N     0.82736   0.80910   0.12882   0.00000  Uiso   1.00
N229   N     0.44869   0.74251   0.06432   0.00000  Uiso   1.00
N230   N     0.82564   0.42031   0.05283   0.00000  Uiso   1.00
C231   C     0.76654   0.11733   0.49735   0.00000  Uiso   1.00
C232   C     0.77187   0.17164   0.43568   0.00000  Uiso   1.00
C233   C     0.79915   0.16166   0.37059   0.00000  Uiso   1.00
C234   C     0.79935   0.21782   0.32116   0.00000  Uiso   1.00
C235   C     0.81158   0.29245   0.22309   0.00000  Uiso   1.00
C236   C     0.68828   0.12726   0.53870   0.00000  Uiso   1.00
C237   C     0.64529   0.07996   0.56024   0.00000  Uiso   1.00
C238   C     0.57514   0.09876   0.59754   0.00000  Uiso   1.00
C239   C     0.45761   0.10448   0.65947   0.00000  Uiso   1.00
C240   C     0.80645   0.13358   0.53681   0.00000  Uiso   1.00
C241   C     0.86281   0.09160   0.55678   0.00000  Uiso   1.00
C242   C     0.89213   0.11571   0.59250   0.00000  Uiso   1.00
C243   C     0.95808   0.13124   0.65148   0.00000  Uiso   1.00
C244   C     0.71839   0.23481   0.52529   0.00000  Uiso   1.00
C245   C     0.74572   0.23545   0.45086   0.00000  Uiso   1.00
C246   C     0.74589   0.29164   0.40151   0.00000  Uiso   1.00
C247   C     0.77316   0.28174   0.33636   0.00000  Uiso   1.00
C248   C     0.66213   0.19107   0.55388   0.00000  Uiso   1.00
C249   C     0.59203   0.20994   0.59116   0.00000  Uiso   1.00
C250   C     0.54894   0.16269   0.61275   0.00000  Uiso   1.00
C251   C     0.78031   0.19740   0.55199   0.00000  Uiso   1.00
C252   C     0.80954   0.22158   0.58769   0.00000  Uiso   1.00
C253   C     0.86593   0.17964   0.60771   0.00000  Uiso   1.00
H254   H     0.78689   0.06765   0.48553   0.00000  Uiso   1.00
H255   H     0.81937   0.11227   0.35887   0.00000  Uiso   1.00
H256   H     0.66555   0.03059   0.54850   0.00000  Uiso   1.00
H257   H     0.88303   0.04222   0.54502   0.00000  Uiso   1.00
H258   H     0.84384   0.18988   0.22513   0.00000  Uiso   1.00
H259   H     0.51948   0.01764   0.62499   0.00000  Uiso   1.00
H260   H     0.97808   0.04217   0.61767   0.00000  Uiso   1.00
H261   H     0.69803   0.28449   0.53711   0.00000  Uiso   1.00
H262   H     0.72565   0.34101   0.41327   0.00000  Uiso   1.00
H263   H     0.57181   0.25933   0.60290   0.00000  Uiso   1.00
H264   H     0.78929   0.27096   0.59943   0.00000  Uiso   1.00
H265   H     0.76776   0.37554   0.26928   0.00000  Uiso   1.00
H266   H     0.44340   0.20330   0.66915   0.00000  Uiso   1.00
H267   H     0.90201   0.22783   0.66183   0.00000  Uiso   1.00
O268   O     0.82554   0.31598   0.16481   0.00000  Uiso   1.00
O269   O     0.40001   0.09000   0.68942   0.00000  Uiso   1.00
O270   O     0.00168   0.12218   0.67982   0.00000  Uiso   1.00
N271   N     0.82215   0.22582   0.25251   0.00000  Uiso   1.00
N272   N     0.51890   0.06479   0.62635   0.00000  Uiso   1.00
N273   N     0.94764   0.08771   0.61953   0.00000  Uiso   1.00
N274   N     0.78122   0.32572   0.27627   0.00000  Uiso   1.00
N275   N     0.47796   0.16469   0.65011   0.00000  Uiso   1.00
N276   N     0.90671   0.18761   0.64329   0.00000  Uiso   1.00
C277   C     0.71672   0.94516   0.84611   0.00000  Uiso   1.00
C278   C     0.69114   0.93681   0.92151   0.00000  Uiso   1.00
C279   C     0.63533   0.90586   0.96391   0.00000  Uiso   1.00
C280   C     0.62023   0.90330   0.03132   0.00000  Uiso   1.00
C281   C     0.57455   0.88612   0.14474   0.00000  Uiso   1.00
C282   C     0.79564   0.91380   0.82737   0.00000  Uiso   1.00
C283   C     0.82770   0.86351   0.79060   0.00000  Uiso   1.00
C284   C     0.90057   0.84159   0.77876   0.00000  Uiso   1.00
C285   C     0.01714   0.78872   0.74597   0.00000  Uiso   1.00
C286   C     0.71301   0.01947   0.81984   0.00000  Uiso   1.00
C287   C     0.67561   0.05804   0.77673   0.00000  Uiso   1.00
C288   C     0.67894   0.12509   0.75853   0.00000  Uiso   1.00
C289   C     0.66721   0.23630   0.71406   0.00000  Uiso   1.00
C290   C     0.78914   0.99563   0.89045   0.00000  Uiso   1.00
C291   C     0.73047   0.96422   0.94560   0.00000  Uiso   1.00
C292   C     0.71545   0.96170   0.01297   0.00000  Uiso   1.00
C293   C     0.65963   0.93076   0.05545   0.00000  Uiso   1.00
C294   C     0.83498   0.94121   0.85145   0.00000  Uiso   1.00
C295   C     0.90782   0.91935   0.83966   0.00000  Uiso   1.00
C296   C     0.93998   0.86905   0.80288   0.00000  Uiso   1.00
C297   C     0.75235   0.04689   0.84393   0.00000  Uiso   1.00
C298   C     0.75573   0.11388   0.82579   0.00000  Uiso   1.00
C299   C     0.71834   0.15255   0.78266   0.00000  Uiso   1.00
H300   H     0.68610   0.92382   0.82736   0.00000  Uiso   1.00
H301   H     0.60491   0.88465   0.94525   0.00000  Uiso   1.00
H302   H     0.79725   0.84232   0.77196   0.00000  Uiso   1.00
H303   H     0.64518   0.03681   0.75810   0.00000  Uiso   1.00
H304   H     0.53225   0.85329   0.08657   0.00000  Uiso   1.00
H305   H     0.93781   0.76404   0.72117   0.00000  Uiso   1.00
H306   H     0.61716   0.17418   0.69193   0.00000  Uiso   1.00
H307   H     0.81976   0.01698   0.90921   0.00000  Uiso   1.00
H308   H     0.74590   0.98292   0.03159   0.00000  Uiso   1.00
H309   H     0.93824   0.94058   0.85830   0.00000  Uiso   1.00
H310   H     0.78618   0.13508   0.84444   0.00000  Uiso   1.00
H311   H     0.64670   0.93304   0.15666   0.00000  Uiso   1.00
H312   H     0.05226   0.84380   0.79124   0.00000  Uiso   1.00
H313   H     0.73160   0.25393   0.76201   0.00000  Uiso   1.00
O314   O     0.53849   0.86906   0.20065   0.00000  Uiso   1.00
O315   O     0.07057   0.75198   0.72124   0.00000  Uiso   1.00
O316   O     0.64987   0.29007   0.68289   0.00000  Uiso   1.00
N317   N     0.56931   0.87674   0.08627   0.00000  Uiso   1.00
N318   N     0.94849   0.79329   0.74465   0.00000  Uiso   1.00
N319   N     0.64871   0.17673   0.71730   0.00000  Uiso   1.00
N320   N     0.63089   0.91966   0.12398   0.00000  Uiso   1.00
N321   N     0.01007   0.83621   0.78236   0.00000  Uiso   1.00
N322   N     0.71029   0.21965   0.75501   0.00000  Uiso   1.00
C323   C     0.57901   0.59449   0.85595   0.00000  Uiso   1.00
C324   C     0.56981   0.54571   0.82058   0.00000  Uiso   1.00
C325   C     0.52241   0.55842   0.78445   0.00000  Uiso   1.00
C326   C     0.52212   0.50729   0.75586   0.00000  Uiso   1.00
C327   C     0.50095   0.44093   0.69980   0.00000  Uiso   1.00
C328   C     0.65748   0.59985   0.82825   0.00000  Uiso   1.00
C329   C     0.68378   0.65808   0.79858   0.00000  Uiso   1.00
C330   C     0.75729   0.65251   0.77646   0.00000  Uiso   1.00
C331   C     0.87222   0.67021   0.73235   0.00000  Uiso   1.00
C332   C     0.56714   0.56019   0.92824   0.00000  Uiso   1.00
C333   C     0.51750   0.58509   0.98265   0.00000  Uiso   1.00
C334   C     0.51495   0.54614   0.04471   0.00000  Uiso   1.00
C335   C     0.48962   0.50227   0.15585   0.00000  Uiso   1.00
C336   C     0.66277   0.48107   0.86941   0.00000  Uiso   1.00
C337   C     0.61531   0.48411   0.82789   0.00000  Uiso   1.00
C338   C     0.61509   0.43294   0.79934   0.00000  Uiso   1.00
C339   C     0.56770   0.44557   0.76319   0.00000  Uiso   1.00
C340   C     0.70298   0.53824   0.83556   0.00000  Uiso   1.00
C341   C     0.77646   0.53259   0.81347   0.00000  Uiso   1.00
C342   C     0.80287   0.59080   0.78378   0.00000  Uiso   1.00
C343   C     0.61264   0.49859   0.93555   0.00000  Uiso   1.00
C344   C     0.61017   0.45960   0.99754   0.00000  Uiso   1.00
C345   C     0.56054   0.48443   0.05203   0.00000  Uiso   1.00
H346   H     0.54359   0.64245   0.85026   0.00000  Uiso   1.00
H347   H     0.48722   0.60611   0.77880   0.00000  Uiso   1.00
H348   H     0.64856   0.70575   0.79294   0.00000  Uiso   1.00
H349   H     0.48230   0.63276   0.97697   0.00000  Uiso   1.00
H350   H     0.44480   0.53865   0.70279   0.00000  Uiso   1.00
H351   H     0.78500   0.74875   0.73261   0.00000  Uiso   1.00
H352   H     0.43441   0.59485   0.12069   0.00000  Uiso   1.00
H353   H     0.69820   0.43311   0.87510   0.00000  Uiso   1.00
H354   H     0.65031   0.38527   0.80501   0.00000  Uiso   1.00
H355   H     0.81165   0.48491   0.81914   0.00000  Uiso   1.00
H356   H     0.64539   0.41193   0.00318   0.00000  Uiso   1.00
H357   H     0.57717   0.35941   0.72405   0.00000  Uiso   1.00
H358   H     0.91738   0.56951   0.75388   0.00000  Uiso   1.00
H359   H     0.56678   0.41561   0.14196   0.00000  Uiso   1.00
O360   O     0.47671   0.42134   0.66685   0.00000  Uiso   1.00
O361   O     0.92304   0.69699   0.70599   0.00000  Uiso   1.00
O362   O     0.46306   0.49508   0.21513   0.00000  Uiso   1.00
N363   N     0.48252   0.50303   0.71742   0.00000  Uiso   1.00
N364   N     0.80059   0.69945   0.74530   0.00000  Uiso   1.00
N365   N     0.47282   0.55558   0.10812   0.00000  Uiso   1.00
N366   N     0.55374   0.40658   0.72887   0.00000  Uiso   1.00
N367   N     0.87181   0.60301   0.75674   0.00000  Uiso   1.00
N368   N     0.54405   0.45914   0.11956   0.00000  Uiso   1.00
C369   C     0.66352   0.03431   0.38409   0.00000  Uiso   1.00
C370   C     0.66219   0.09540   0.32928   0.00000  Uiso   1.00
C371   C     0.64443   0.16089   0.33795   0.00000  Uiso   1.00
C372   C     0.64644   0.20967   0.28154   0.00000  Uiso   1.00
C373   C     0.64150   0.30698   0.20598   0.00000  Uiso   1.00
C374   C     0.73842   0.99309   0.36412   0.00000  Uiso   1.00
C375   C     0.78474   0.97257   0.40210   0.00000  Uiso   1.00
C376   C     0.85092   0.93522   0.37502   0.00000  Uiso   1.00
C377   C     0.96431   0.87367   0.35359   0.00000  Uiso   1.00
C378   C     0.61405   0.99399   0.37964   0.00000  Uiso   1.00
C379   C     0.55582   0.97420   0.43066   0.00000  Uiso   1.00
C380   C     0.51730   0.93759   0.41665   0.00000  Uiso   1.00
C381   C     0.43759   0.87742   0.41931   0.00000  Uiso   1.00
C382   C     0.69867   0.00446   0.26848   0.00000  Uiso   1.00
C383   C     0.68128   0.07918   0.26648   0.00000  Uiso   1.00
C384   C     0.68332   0.12787   0.21005   0.00000  Uiso   1.00
C385   C     0.66556   0.19343   0.21863   0.00000  Uiso   1.00
C386   C     0.75751   0.97688   0.30133   0.00000  Uiso   1.00
C387   C     0.82363   0.93954   0.27420   0.00000  Uiso   1.00
C388   C     0.87005   0.91897   0.31212   0.00000  Uiso   1.00
C389   C     0.63314   0.97777   0.31684   0.00000  Uiso   1.00
C390   C     0.59471   0.94118   0.30276   0.00000  Uiso   1.00
C391   C     0.53643   0.92134   0.35375   0.00000  Uiso   1.00
H392   H     0.64866   0.04693   0.43297   0.00000  Uiso   1.00
H393   H     0.62966   0.17342   0.38655   0.00000  Uiso   1.00
H394   H     0.76995   0.98512   0.45069   0.00000  Uiso   1.00
H395   H     0.54106   0.98676   0.47925   0.00000  Uiso   1.00
H396   H     0.61704   0.30651   0.30739   0.00000  Uiso   1.00
H397   H     0.91284   0.90945   0.44265   0.00000  Uiso   1.00
H398   H     0.43018   0.91289   0.50286   0.00000  Uiso   1.00
H399   H     0.71354   0.99183   0.21959   0.00000  Uiso   1.00
H400   H     0.69810   0.11530   0.16146   0.00000  Uiso   1.00
H401   H     0.83839   0.92700   0.22561   0.00000  Uiso   1.00
H402   H     0.60950   0.92864   0.25416   0.00000  Uiso   1.00
H403   H     0.67259   0.25934   0.12470   0.00000  Uiso   1.00
H404   H     0.96839   0.86227   0.25996   0.00000  Uiso   1.00
H405   H     0.48573   0.86572   0.32017   0.00000  Uiso   1.00
O406   O     0.63352   0.36514   0.18165   0.00000  Uiso   1.00
O407   O     0.02158   0.84420   0.35911   0.00000  Uiso   1.00
O408   O     0.38834   0.84872   0.43811   0.00000  Uiso   1.00
N409   N     0.63222   0.27846   0.27237   0.00000  Uiso   1.00
N410   N     0.90878   0.90724   0.39883   0.00000  Uiso   1.00
N411   N     0.45754   0.91045   0.45513   0.00000  Uiso   1.00
N412   N     0.66211   0.25308   0.17407   0.00000  Uiso   1.00
N413   N     0.93867   0.88186   0.30052   0.00000  Uiso   1.00
N414   N     0.48743   0.88506   0.35682   0.00000  Uiso   1.00
C415   C     0.07924   0.50407   0.37186   0.00000  Uiso   1.00
C416   C     0.09002   0.57479   0.33894   0.00000  Uiso   1.00
C417   C     0.05205   0.61901   0.29885   0.00000  Uiso   1.00
C418   C     0.06995   0.68140   0.27344   0.00000  Uiso   1.00
C419   C     0.07852   0.78855   0.22013   0.00000  Uiso   1.00
C420   C     0.15147   0.45939   0.34870   0.00000  Uiso   1.00
C421   C     0.16516   0.40658   0.31684   0.00000  Uiso   1.00
C422   C     0.23479   0.37182   0.29967   0.00000  Uiso   1.00
C423   C     0.33874   0.29978   0.26156   0.00000  Uiso   1.00
C424   C     0.06430   0.50007   0.44587   0.00000  Uiso   1.00
C425   C     0.00470   0.48144   0.49571   0.00000  Uiso   1.00
C426   C     0.00095   0.48092   0.56035   0.00000  Uiso   1.00
C427   C     0.96955   0.47203   0.67312   0.00000  Uiso   1.00
C428   C     0.17857   0.53625   0.39803   0.00000  Uiso   1.00
C429   C     0.14398   0.59227   0.35315   0.00000  Uiso   1.00
C430   C     0.16194   0.65462   0.32780   0.00000  Uiso   1.00
C431   C     0.12400   0.69892   0.28769   0.00000  Uiso   1.00
C432   C     0.20542   0.47687   0.36292   0.00000  Uiso   1.00
C433   C     0.27505   0.44218   0.34579   0.00000  Uiso   1.00
C434   C     0.28884   0.38933   0.31391   0.00000  Uiso   1.00
C435   C     0.11825   0.51755   0.46009   0.00000  Uiso   1.00
C436   C     0.11460   0.51705   0.52467   0.00000  Uiso   1.00
C437   C     0.05500   0.49843   0.57459   0.00000  Uiso   1.00
H438   H     0.03724   0.49045   0.36079   0.00000  Uiso   1.00
H439   H     0.01030   0.60546   0.28785   0.00000  Uiso   1.00
H440   H     0.12339   0.39306   0.30585   0.00000  Uiso   1.00
H441   H     0.96296   0.46791   0.48469   0.00000  Uiso   1.00
H442   H     0.00425   0.74067   0.21324   0.00000  Uiso   1.00
H443   H     0.24270   0.29279   0.25120   0.00000  Uiso   1.00
H444   H     0.90439   0.45064   0.62833   0.00000  Uiso   1.00
H445   H     0.22058   0.54986   0.40910   0.00000  Uiso   1.00
H446   H     0.20370   0.66813   0.33881   0.00000  Uiso   1.00
H447   H     0.31679   0.45572   0.35681   0.00000  Uiso   1.00
H448   H     0.15636   0.53058   0.53565   0.00000  Uiso   1.00
H449   H     0.16122   0.79153   0.25459   0.00000  Uiso   1.00
H450   H     0.39967   0.34365   0.29256   0.00000  Uiso   1.00
H451   H     0.06136   0.50150   0.66969   0.00000  Uiso   1.00
O452   O     0.06834   0.84282   0.18679   0.00000  Uiso   1.00
O453   O     0.38117   0.25521   0.23661   0.00000  Uiso   1.00
O454   O     0.93732   0.46231   0.73139   0.00000  Uiso   1.00
N455   N     0.04350   0.73641   0.23263   0.00000  Uiso   1.00
N456   N     0.26644   0.31768   0.26811   0.00000  Uiso   1.00
N457   N     0.95016   0.46524   0.62070   0.00000  Uiso   1.00
N458   N     0.12796   0.76378   0.25488   0.00000  Uiso   1.00
N459   N     0.35090   0.34505   0.29037   0.00000  Uiso   1.00
N460   N     0.03462   0.49261   0.64295   0.00000  Uiso   1.00
C461   C     0.14244   0.43887   0.93624   0.00000  Uiso   1.00
C462   C     0.12287   0.41463   0.88630   0.00000  Uiso   1.00
C463   C     0.07212   0.37577   0.90158   0.00000  Uiso   1.00
C464   C     0.06208   0.35881   0.84881   0.00000  Uiso   1.00
C465   C     0.02572   0.31792   0.78127   0.00000  Uiso   1.00
C466   C     0.22243   0.41441   0.92328   0.00000  Uiso   1.00
C467   C     0.25540   0.37538   0.96966   0.00000  Uiso   1.00
C468   C     0.32917   0.35825   0.94801   0.00000  Uiso   1.00
C469   C     0.44740   0.31707   0.93789   0.00000  Uiso   1.00
C470   C     0.13164   0.51428   0.91628   0.00000  Uiso   1.00
C471   C     0.08830   0.55922   0.95677   0.00000  Uiso   1.00
C472   C     0.08564   0.62618   0.92923   0.00000  Uiso   1.00
C473   C     0.06291   0.74007   0.90823   0.00000  Uiso   1.00
C474   C     0.21483   0.47787   0.81534   0.00000  Uiso   1.00
C475   C     0.16219   0.43581   0.82064   0.00000  Uiso   1.00
C476   C     0.15221   0.41891   0.76783   0.00000  Uiso   1.00
C477   C     0.10146   0.38004   0.78303   0.00000  Uiso   1.00
C478   C     0.26175   0.43559   0.85762   0.00000  Uiso   1.00
C479   C     0.33549   0.41852   0.83590   0.00000  Uiso   1.00
C480   C     0.36856   0.37947   0.88223   0.00000  Uiso   1.00
C481   C     0.17096   0.53547   0.85061   0.00000  Uiso   1.00
C482   C     0.16838   0.60237   0.82301   0.00000  Uiso   1.00
C483   C     0.12503   0.64740   0.86345   0.00000  Uiso   1.00
H484   H     0.11184   0.42237   0.98736   0.00000  Uiso   1.00
H485   H     0.04171   0.35938   0.95241   0.00000  Uiso   1.00
H486   H     0.22496   0.35900   0.02047   0.00000  Uiso   1.00
H487   H     0.05788   0.54281   0.00758   0.00000  Uiso   1.00
H488   H     0.98132   0.29886   0.88470   0.00000  Uiso   1.00
H489   H     0.36772   0.29807   0.02822   0.00000  Uiso   1.00
H490   H     0.01539   0.68569   0.00104   0.00000  Uiso   1.00
H491   H     0.24545   0.49436   0.76421   0.00000  Uiso   1.00
H492   H     0.18265   0.43531   0.71702   0.00000  Uiso   1.00
H493   H     0.36590   0.43493   0.78508   0.00000  Uiso   1.00
H494   H     0.19882   0.61874   0.77219   0.00000  Uiso   1.00
H495   H     0.09572   0.36048   0.69365   0.00000  Uiso   1.00
H496   H     0.48211   0.35970   0.83717   0.00000  Uiso   1.00
H497   H     0.12978   0.74731   0.80999   0.00000  Uiso   1.00
O498   O     0.99482   0.28951   0.76216   0.00000  Uiso   1.00
O499   O     0.50175   0.28849   0.95045   0.00000  Uiso   1.00
O500   O     0.03950   0.79703   0.91479   0.00000  Uiso   1.00
N501   N     0.01685   0.32148   0.84621   0.00000  Uiso   1.00
N502   N     0.37811   0.32073   0.98039   0.00000  Uiso   1.00
N503   N     0.04872   0.68312   0.95499   0.00000  Uiso   1.00
N504   N     0.07841   0.35464   0.74341   0.00000  Uiso   1.00
N505   N     0.43966   0.35389   0.87759   0.00000  Uiso   1.00
N506   N     0.11028   0.71628   0.85218   0.00000  Uiso   1.00
C507   C     0.16371   0.08885   0.38399   0.00000  Uiso   1.00
C508   C     0.15266   0.04123   0.45051   0.00000  Uiso   1.00
C509   C     0.13049   0.05923   0.51222   0.00000  Uiso   1.00
C510   C     0.12360   0.00826   0.56714   0.00000  Uiso   1.00
C511   C     0.10422   0.94443   0.67144   0.00000  Uiso   1.00
C512   C     0.24037   0.06664   0.34302   0.00000  Uiso   1.00
C513   C     0.29194   0.10602   0.31434   0.00000  Uiso   1.00
C514   C     0.35889   0.07643   0.27877   0.00000  Uiso   1.00
C515   C     0.47566   0.05208   0.21615   0.00000  Uiso   1.00
C516   C     0.11677   0.07471   0.35007   0.00000  Uiso   1.00
C517   C     0.06442   0.12087   0.32730   0.00000  Uiso   1.00
C518   C     0.02732   0.09808   0.29765   0.00000  Uiso   1.00
C519   C     0.95219   0.08626   0.24598   0.00000  Uiso   1.00
C520   C     0.19092   0.96631   0.37179   0.00000  Uiso   1.00
C521   C     0.16744   0.97467   0.44388   0.00000  Uiso   1.00
C522   C     0.16058   0.92366   0.49872   0.00000  Uiso   1.00
C523   C     0.13840   0.94158   0.56050   0.00000  Uiso   1.00
C524   C     0.25515   0.00009   0.33639   0.00000  Uiso   1.00
C525   C     0.32203   0.97044   0.30085   0.00000  Uiso   1.00
C526   C     0.37369   0.00976   0.27213   0.00000  Uiso   1.00
C527   C     0.13154   0.00815   0.34344   0.00000  Uiso   1.00
C528   C     0.09452   0.98529   0.31381   0.00000  Uiso   1.00
C529   C     0.04212   0.03141   0.29101   0.00000  Uiso   1.00
H530   H     0.15221   0.14067   0.38914   0.00000  Uiso   1.00
H531   H     0.11906   0.11075   0.51732   0.00000  Uiso   1.00
H532   H     0.28048   0.15752   0.31947   0.00000  Uiso   1.00
H533   H     0.05300   0.17237   0.33244   0.00000  Uiso   1.00
H534   H     0.08885   0.04821   0.65651   0.00000  Uiso   1.00
H535   H     0.42921   0.14685   0.23932   0.00000  Uiso   1.00
H536   H     0.94952   0.17817   0.26666   0.00000  Uiso   1.00
H537   H     0.20242   0.91449   0.36663   0.00000  Uiso   1.00
H538   H     0.17202   0.87215   0.49358   0.00000  Uiso   1.00
H539   H     0.33345   0.91893   0.29573   0.00000  Uiso   1.00
H540   H     0.10597   0.93378   0.30870   0.00000  Uiso   1.00
H541   H     0.13184   0.85456   0.63724   0.00000  Uiso   1.00
H542   H     0.47220   0.95320   0.22005   0.00000  Uiso   1.00
H543   H     0.99251   0.98452   0.24739   0.00000  Uiso   1.00
O544   O     0.08946   0.92761   0.73080   0.00000  Uiso   1.00
O545   O     0.53600   0.05703   0.18345   0.00000  Uiso   1.00
O546   O     0.90665   0.09812   0.21932   0.00000  Uiso   1.00
N547   N     0.10312   0.00845   0.63456   0.00000  Uiso   1.00
N548   N     0.42135   0.10067   0.24452   0.00000  Uiso   1.00
N549   N     0.97289   0.12995   0.27006   0.00000  Uiso   1.00
N550   N     0.12625   0.90425   0.62419   0.00000  Uiso   1.00
N551   N     0.44448   0.99647   0.23415   0.00000  Uiso   1.00
N552   N     0.99602   0.02575   0.25969   0.00000  Uiso   1.00
