data_job_06187
_audit_creation_date              2018-12-19
_audit_creation_method            'Materials Studio'
_symmetry_space_group_name_H-M    'P1'
_symmetry_Int_Tables_number       1
_symmetry_cell_setting            triclinic
loop_
_symmetry_equiv_pos_as_xyz
  x,y,z
_cell_length_a                    16.3901
_cell_length_b                    15.0335
_cell_length_c                    14.6221
_cell_angle_alpha                 93.3819
_cell_angle_beta                  92.0440
_cell_angle_gamma                 92.9924
loop_
_atom_site_label
_atom_site_type_symbol
_atom_site_fract_x
_atom_site_fract_y
_atom_site_fract_z
_atom_site_U_iso_or_equiv
_atom_site_adp_type
_atom_site_occupancy
C1     C     0.33900   0.74331   0.86269   0.00000  Uiso   1.00
C2     C     0.38503   0.80097   0.79697   0.00000  Uiso   1.00
C3     C     0.44032   0.77118   0.73389   0.00000  Uiso   1.00
C4     C     0.47596   0.83440   0.68004   0.00000  Uiso   1.00
C5     C     0.55035   0.91028   0.57666   0.00000  Uiso   1.00
C6     C     0.35954   0.78578   0.95859   0.00000  Uiso   1.00
C7     C     0.39339   0.74321   0.03139   0.00000  Uiso   1.00
C8     C     0.40757   0.79364   0.11360   0.00000  Uiso   1.00
C9     C     0.44233   0.84592   0.26115   0.00000  Uiso   1.00
C10    C     0.24845   0.75644   0.84385   0.00000  Uiso   1.00
C11    C     0.18890   0.68919   0.82020   0.00000  Uiso   1.00
C12    C     0.10954   0.71491   0.80583   0.00000  Uiso   1.00
C13    C     0.97183   0.72163   0.77523   0.00000  Uiso   1.00
C14    C     0.30398   0.90857   0.87923   0.00000  Uiso   1.00
C15    C     0.36600   0.89073   0.80596   0.00000  Uiso   1.00
C16    C     0.40157   0.95401   0.75219   0.00000  Uiso   1.00
C17    C     0.45691   0.92432   0.68904   0.00000  Uiso   1.00
C18    C     0.34052   0.87554   0.96757   0.00000  Uiso   1.00
C19    C     0.35464   0.92604   0.04969   0.00000  Uiso   1.00
C20    C     0.38851   0.88356   0.12260   0.00000  Uiso   1.00
C21    C     0.22943   0.84620   0.85283   0.00000  Uiso   1.00
C22    C     0.15015   0.87203   0.83850   0.00000  Uiso   1.00
C23    C     0.09049   0.80483   0.81483   0.00000  Uiso   1.00
H24    H     0.35382   0.67344   0.85570   0.00000  Uiso   1.00
H25    H     0.45503   0.70171   0.72696   0.00000  Uiso   1.00
H26    H     0.40810   0.67375   0.02442   0.00000  Uiso   1.00
H27    H     0.20364   0.61974   0.81326   0.00000  Uiso   1.00
H28    H     0.55888   0.77265   0.58822   0.00000  Uiso   1.00
H29    H     0.45989   0.71367   0.21544   0.00000  Uiso   1.00
H30    H     0.02876   0.59979   0.77017   0.00000  Uiso   1.00
H31    H     0.28917   0.97845   0.88622   0.00000  Uiso   1.00
H32    H     0.38684   0.02347   0.75915   0.00000  Uiso   1.00
H33    H     0.33991   0.99550   0.05662   0.00000  Uiso   1.00
H34    H     0.13545   0.94149   0.84545   0.00000  Uiso   1.00
H35    H     0.50354   0.03380   0.61435   0.00000  Uiso   1.00
H36    H     0.40455   0.97482   0.24157   0.00000  Uiso   1.00
H37    H     0.97341   0.86093   0.79630   0.00000  Uiso   1.00
O38    O     0.59664   0.92734   0.51717   0.00000  Uiso   1.00
O39    O     0.46676   0.84996   0.34005   0.00000  Uiso   1.00
O40    O     0.90113   0.70054   0.75587   0.00000  Uiso   1.00
N41    N     0.53244   0.82793   0.61180   0.00000  Uiso   1.00
N42    N     0.43991   0.77279   0.19820   0.00000  Uiso   1.00
N43    N     0.03682   0.66632   0.78193   0.00000  Uiso   1.00
N44    N     0.50266   0.96845   0.62586   0.00000  Uiso   1.00
N45    N     0.41013   0.91332   0.21226   0.00000  Uiso   1.00
N46    N     0.00704   0.80684   0.79599   0.00000  Uiso   1.00
C47    C     0.86388   0.33745   0.73851   0.00000  Uiso   1.00
C48    C     0.80716   0.38858   0.80035   0.00000  Uiso   1.00
C49    C     0.75280   0.45025   0.77236   0.00000  Uiso   1.00
C50    C     0.70630   0.48980   0.83942   0.00000  Uiso   1.00
C51    C     0.61709   0.57248   0.92150   0.00000  Uiso   1.00
C52    C     0.95006   0.35797   0.77973   0.00000  Uiso   1.00
C53    C     0.01585   0.39388   0.73439   0.00000  Uiso   1.00
C54    C     0.08966   0.40765   0.78409   0.00000  Uiso   1.00
C55    C     0.22233   0.44274   0.83413   0.00000  Uiso   1.00
C56    C     0.84410   0.23881   0.75117   0.00000  Uiso   1.00
C57    C     0.82081   0.17452   0.68182   0.00000  Uiso   1.00
C58    C     0.80542   0.08796   0.70748   0.00000  Uiso   1.00
C59    C     0.77355   0.93804   0.71318   0.00000  Uiso   1.00
C60    C     0.87798   0.29803   0.90737   0.00000  Uiso   1.00
C61    C     0.81482   0.36717   0.89207   0.00000  Uiso   1.00
C62    C     0.76839   0.40664   0.95919   0.00000  Uiso   1.00
C63    C     0.71397   0.46835   0.93130   0.00000  Uiso   1.00
C64    C     0.95772   0.33656   0.87144   0.00000  Uiso   1.00
C65    C     0.03145   0.35027   0.92122   0.00000  Uiso   1.00
C66    C     0.09733   0.38620   0.87598   0.00000  Uiso   1.00
C67    C     0.85175   0.21739   0.84289   0.00000  Uiso   1.00
C68    C     0.83640   0.13091   0.86866   0.00000  Uiso   1.00
C69    C     0.81309   0.06651   0.79937   0.00000  Uiso   1.00
H70    H     0.85793   0.35412   0.66710   0.00000  Uiso   1.00
H71    H     0.74689   0.46681   0.70137   0.00000  Uiso   1.00
H72    H     0.00991   0.41044   0.66341   0.00000  Uiso   1.00
H73    H     0.81489   0.19112   0.61085   0.00000  Uiso   1.00
H74    H     0.62719   0.58232   0.77982   0.00000  Uiso   1.00
H75    H     0.18178   0.46343   0.69977   0.00000  Uiso   1.00
H76    H     0.77055   0.00095   0.58894   0.00000  Uiso   1.00
H77    H     0.88395   0.28136   0.97878   0.00000  Uiso   1.00
H78    H     0.77433   0.39005   0.03016   0.00000  Uiso   1.00
H79    H     0.03736   0.33369   0.99220   0.00000  Uiso   1.00
H80    H     0.84233   0.11437   0.93964   0.00000  Uiso   1.00
H81    H     0.64946   0.52003   0.04668   0.00000  Uiso   1.00
H82    H     0.20406   0.40114   0.96663   0.00000  Uiso   1.00
H83    H     0.79282   0.93866   0.85580   0.00000  Uiso   1.00
O84    O     0.56577   0.62401   0.94143   0.00000  Uiso   1.00
O85    O     0.29338   0.46802   0.83640   0.00000  Uiso   1.00
O86    O     0.75385   0.86126   0.69100   0.00000  Uiso   1.00
N87    N     0.64746   0.55273   0.83558   0.00000  Uiso   1.00
N88    N     0.16598   0.44159   0.76073   0.00000  Uiso   1.00
N89    N     0.78152   0.00920   0.65712   0.00000  Uiso   1.00
N90    N     0.65945   0.51921   0.97917   0.00000  Uiso   1.00
N91    N     0.17796   0.40807   0.90433   0.00000  Uiso   1.00
N92    N     0.79351   0.97568   0.80071   0.00000  Uiso   1.00
C93    C     0.75983   0.86537   0.34200   0.00000  Uiso   1.00
C94    C     0.81311   0.80205   0.39193   0.00000  Uiso   1.00
C95    C     0.78658   0.74284   0.45530   0.00000  Uiso   1.00
C96    C     0.84481   0.69066   0.49335   0.00000  Uiso   1.00
C97    C     0.91512   0.59132   0.57464   0.00000  Uiso   1.00
C98    C     0.79950   0.95868   0.36321   0.00000  Uiso   1.00
C99    C     0.76151   0.03115   0.40241   0.00000  Uiso   1.00
C100   C     0.80828   0.11082   0.41626   0.00000  Uiso   1.00
C101   C     0.85743   0.25467   0.45289   0.00000  Uiso   1.00
C102   C     0.77009   0.84406   0.23994   0.00000  Uiso   1.00
C103   C     0.70737   0.82018   0.17549   0.00000  Uiso   1.00
C104   C     0.72938   0.80337   0.08555   0.00000  Uiso   1.00
C105   C     0.73286   0.76925   0.93079   0.00000  Uiso   1.00
C106   C     0.91044   0.87800   0.29686   0.00000  Uiso   1.00
C107   C     0.89492   0.80891   0.36742   0.00000  Uiso   1.00
C108   C     0.95322   0.75680   0.40537   0.00000  Uiso   1.00
C109   C     0.92677   0.69752   0.46878   0.00000  Uiso   1.00
C110   C     0.88130   0.96554   0.33869   0.00000  Uiso   1.00
C111   C     0.92815   0.04512   0.35248   0.00000  Uiso   1.00
C112   C     0.89024   0.11769   0.39170   0.00000  Uiso   1.00
C113   C     0.85190   0.85091   0.21542   0.00000  Uiso   1.00
C114   C     0.87401   0.83415   0.12556   0.00000  Uiso   1.00
C115   C     0.81134   0.81025   0.06099   0.00000  Uiso   1.00
H116   H     0.69614   0.86004   0.36109   0.00000  Uiso   1.00
H117   H     0.72326   0.73755   0.47427   0.00000  Uiso   1.00
H118   H     0.69820   0.02583   0.42137   0.00000  Uiso   1.00
H119   H     0.64407   0.81488   0.19449   0.00000  Uiso   1.00
H120   H     0.78942   0.60480   0.58896   0.00000  Uiso   1.00
H121   H     0.73656   0.21265   0.47740   0.00000  Uiso   1.00
H122   H     0.62242   0.76784   0.99897   0.00000  Uiso   1.00
H123   H     0.97414   0.88334   0.27778   0.00000  Uiso   1.00
H124   H     0.01652   0.76213   0.38638   0.00000  Uiso   1.00
H125   H     0.99145   0.05040   0.33349   0.00000  Uiso   1.00
H126   H     0.93732   0.83946   0.10661   0.00000  Uiso   1.00
H127   H     0.02744   0.62475   0.51763   0.00000  Uiso   1.00
H128   H     0.97457   0.23260   0.40607   0.00000  Uiso   1.00
H129   H     0.86043   0.78778   0.92765   0.00000  Uiso   1.00
O130   O     0.93130   0.53464   0.62627   0.00000  Uiso   1.00
O131   O     0.86194   0.33211   0.47988   0.00000  Uiso   1.00
O132   O     0.71219   0.74853   0.85221   0.00000  Uiso   1.00
N133   N     0.83962   0.62612   0.55725   0.00000  Uiso   1.00
N134   N     0.79020   0.19442   0.45296   0.00000  Uiso   1.00
N135   N     0.68348   0.77858   0.00567   0.00000  Uiso   1.00
N136   N     0.96769   0.63685   0.51887   0.00000  Uiso   1.00
N137   N     0.91827   0.20515   0.41458   0.00000  Uiso   1.00
N138   N     0.81156   0.78931   0.96729   0.00000  Uiso   1.00
C139   C     0.66100   0.25669   0.13731   0.00000  Uiso   1.00
C140   C     0.61497   0.19903   0.20303   0.00000  Uiso   1.00
C141   C     0.55968   0.22882   0.26611   0.00000  Uiso   1.00
C142   C     0.52404   0.16560   0.31996   0.00000  Uiso   1.00
C143   C     0.44965   0.08972   0.42334   0.00000  Uiso   1.00
C144   C     0.64046   0.21422   0.04141   0.00000  Uiso   1.00
C145   C     0.60661   0.25679   0.96861   0.00000  Uiso   1.00
C146   C     0.59243   0.20636   0.88640   0.00000  Uiso   1.00
C147   C     0.55767   0.15408   0.73885   0.00000  Uiso   1.00
C148   C     0.75155   0.24356   0.15615   0.00000  Uiso   1.00
C149   C     0.81110   0.31081   0.17980   0.00000  Uiso   1.00
C150   C     0.89046   0.28509   0.19417   0.00000  Uiso   1.00
C151   C     0.02817   0.27837   0.22477   0.00000  Uiso   1.00
C152   C     0.69602   0.09143   0.12077   0.00000  Uiso   1.00
C153   C     0.63400   0.10927   0.19404   0.00000  Uiso   1.00
C154   C     0.59843   0.04599   0.24781   0.00000  Uiso   1.00
C155   C     0.54309   0.07568   0.31096   0.00000  Uiso   1.00
C156   C     0.65948   0.12446   0.03243   0.00000  Uiso   1.00
C157   C     0.64536   0.07396   0.95031   0.00000  Uiso   1.00
C158   C     0.61149   0.11644   0.87740   0.00000  Uiso   1.00
C159   C     0.77057   0.15380   0.14717   0.00000  Uiso   1.00
C160   C     0.84985   0.12797   0.16150   0.00000  Uiso   1.00
C161   C     0.90951   0.19517   0.18517   0.00000  Uiso   1.00
H162   H     0.64619   0.32656   0.14430   0.00000  Uiso   1.00
H163   H     0.54497   0.29829   0.27304   0.00000  Uiso   1.00
H164   H     0.59190   0.32625   0.97558   0.00000  Uiso   1.00
H165   H     0.79636   0.38026   0.18674   0.00000  Uiso   1.00
H166   H     0.44112   0.22735   0.41178   0.00000  Uiso   1.00
H167   H     0.54011   0.28633   0.78456   0.00000  Uiso   1.00
H168   H     0.97124   0.40021   0.22983   0.00000  Uiso   1.00
H169   H     0.71083   0.02155   0.11378   0.00000  Uiso   1.00
H170   H     0.61316   0.97653   0.24085   0.00000  Uiso   1.00
H171   H     0.66009   0.00450   0.94338   0.00000  Uiso   1.00
H172   H     0.86455   0.05851   0.15455   0.00000  Uiso   1.00
H173   H     0.49646   0.96620   0.38565   0.00000  Uiso   1.00
H174   H     0.59545   0.02518   0.75843   0.00000  Uiso   1.00
H175   H     0.02659   0.13907   0.20370   0.00000  Uiso   1.00
O176   O     0.40336   0.07266   0.48283   0.00000  Uiso   1.00
O177   O     0.53324   0.15004   0.65995   0.00000  Uiso   1.00
O178   O     0.09887   0.29946   0.24413   0.00000  Uiso   1.00
N179   N     0.46756   0.17207   0.38820   0.00000  Uiso   1.00
N180   N     0.56009   0.22721   0.80180   0.00000  Uiso   1.00
N181   N     0.96318   0.33368   0.21807   0.00000  Uiso   1.00
N182   N     0.49734   0.03155   0.37414   0.00000  Uiso   1.00
N183   N     0.58987   0.08668   0.78774   0.00000  Uiso   1.00
N184   N     0.99296   0.19316   0.20401   0.00000  Uiso   1.00
C185   C     0.13612   0.66255   0.26149   0.00000  Uiso   1.00
C186   C     0.19284   0.61142   0.19965   0.00000  Uiso   1.00
C187   C     0.24720   0.54975   0.22764   0.00000  Uiso   1.00
C188   C     0.29370   0.51020   0.16058   0.00000  Uiso   1.00
C189   C     0.38291   0.42752   0.07850   0.00000  Uiso   1.00
C190   C     0.04994   0.64203   0.22027   0.00000  Uiso   1.00
C191   C     0.98415   0.60612   0.26561   0.00000  Uiso   1.00
C192   C     0.91034   0.59235   0.21591   0.00000  Uiso   1.00
C193   C     0.77768   0.55726   0.16587   0.00000  Uiso   1.00
C194   C     0.15590   0.76119   0.24883   0.00000  Uiso   1.00
C195   C     0.17919   0.82548   0.31818   0.00000  Uiso   1.00
C196   C     0.19458   0.91204   0.29252   0.00000  Uiso   1.00
C197   C     0.22645   0.06196   0.28682   0.00000  Uiso   1.00
C198   C     0.12202   0.70197   0.09263   0.00000  Uiso   1.00
C199   C     0.18518   0.63283   0.10793   0.00000  Uiso   1.00
C200   C     0.23161   0.59336   0.04081   0.00000  Uiso   1.00
C201   C     0.28603   0.53165   0.06870   0.00000  Uiso   1.00
C202   C     0.04228   0.66344   0.12856   0.00000  Uiso   1.00
C203   C     0.96855   0.64973   0.07878   0.00000  Uiso   1.00
C204   C     0.90267   0.61380   0.12402   0.00000  Uiso   1.00
C205   C     0.14825   0.78261   0.15711   0.00000  Uiso   1.00
C206   C     0.16360   0.86909   0.13134   0.00000  Uiso   1.00
C207   C     0.18691   0.93349   0.20063   0.00000  Uiso   1.00
H208   H     0.14207   0.64588   0.33290   0.00000  Uiso   1.00
H209   H     0.25311   0.53319   0.29863   0.00000  Uiso   1.00
H210   H     0.99009   0.58956   0.33659   0.00000  Uiso   1.00
H211   H     0.18511   0.80888   0.38915   0.00000  Uiso   1.00
H212   H     0.37281   0.41768   0.22018   0.00000  Uiso   1.00
H213   H     0.81822   0.53657   0.30023   0.00000  Uiso   1.00
H214   H     0.22945   0.99905   0.41106   0.00000  Uiso   1.00
H215   H     0.11605   0.71864   0.02122   0.00000  Uiso   1.00
H216   H     0.22567   0.60995   0.96984   0.00000  Uiso   1.00
H217   H     0.96264   0.66631   0.00780   0.00000  Uiso   1.00
H218   H     0.15767   0.88563   0.06036   0.00000  Uiso   1.00
H219   H     0.35054   0.47997   0.95332   0.00000  Uiso   1.00
H220   H     0.79594   0.59886   0.03337   0.00000  Uiso   1.00
H221   H     0.20718   0.06134   0.14420   0.00000  Uiso   1.00
O222   O     0.43423   0.37599   0.05857   0.00000  Uiso   1.00
O223   O     0.70662   0.53198   0.16360   0.00000  Uiso   1.00
O224   O     0.24615   0.13874   0.30900   0.00000  Uiso   1.00
N225   N     0.35254   0.44727   0.16442   0.00000  Uiso   1.00
N226   N     0.83403   0.55841   0.23927   0.00000  Uiso   1.00
N227   N     0.21848   0.99080   0.34288   0.00000  Uiso   1.00
N228   N     0.34055   0.48079   0.02083   0.00000  Uiso   1.00
N229   N     0.82204   0.59193   0.09567   0.00000  Uiso   1.00
N230   N     0.20649   0.02432   0.19929   0.00000  Uiso   1.00
C231   C     0.24017   0.13463   0.65800   0.00000  Uiso   1.00
C232   C     0.18689   0.19795   0.60807   0.00000  Uiso   1.00
C233   C     0.21342   0.25716   0.54470   0.00000  Uiso   1.00
C234   C     0.15519   0.30934   0.50665   0.00000  Uiso   1.00
C235   C     0.08488   0.40868   0.42536   0.00000  Uiso   1.00
C236   C     0.20050   0.04132   0.63679   0.00000  Uiso   1.00
C237   C     0.23849   0.96885   0.59759   0.00000  Uiso   1.00
C238   C     0.19172   0.88918   0.58374   0.00000  Uiso   1.00
C239   C     0.14257   0.74533   0.54711   0.00000  Uiso   1.00
C240   C     0.22991   0.15594   0.76006   0.00000  Uiso   1.00
C241   C     0.29263   0.17982   0.82451   0.00000  Uiso   1.00
C242   C     0.27062   0.19663   0.91445   0.00000  Uiso   1.00
C243   C     0.26714   0.23075   0.06921   0.00000  Uiso   1.00
C244   C     0.08956   0.12200   0.70314   0.00000  Uiso   1.00
C245   C     0.10508   0.19109   0.63258   0.00000  Uiso   1.00
C246   C     0.04678   0.24320   0.59463   0.00000  Uiso   1.00
C247   C     0.07323   0.30248   0.53122   0.00000  Uiso   1.00
C248   C     0.11870   0.03446   0.66131   0.00000  Uiso   1.00
C249   C     0.07185   0.95488   0.64752   0.00000  Uiso   1.00
C250   C     0.10976   0.88231   0.60830   0.00000  Uiso   1.00
C251   C     0.14810   0.14909   0.78458   0.00000  Uiso   1.00
C252   C     0.12599   0.16585   0.87444   0.00000  Uiso   1.00
C253   C     0.18866   0.18976   0.93901   0.00000  Uiso   1.00
H254   H     0.30386   0.13996   0.63891   0.00000  Uiso   1.00
H255   H     0.27674   0.26245   0.52573   0.00000  Uiso   1.00
H256   H     0.30180   0.97417   0.57863   0.00000  Uiso   1.00
H257   H     0.35593   0.18512   0.80551   0.00000  Uiso   1.00
H258   H     0.21058   0.39520   0.41104   0.00000  Uiso   1.00
H259   H     0.26344   0.78735   0.52260   0.00000  Uiso   1.00
H260   H     0.37758   0.23216   0.00103   0.00000  Uiso   1.00
H261   H     0.02586   0.11666   0.72222   0.00000  Uiso   1.00
H262   H     0.98348   0.23787   0.61362   0.00000  Uiso   1.00
H263   H     0.00855   0.94960   0.66651   0.00000  Uiso   1.00
H264   H     0.06268   0.16054   0.89339   0.00000  Uiso   1.00
H265   H     0.97256   0.37525   0.48237   0.00000  Uiso   1.00
H266   H     0.02543   0.76740   0.59393   0.00000  Uiso   1.00
H267   H     0.13957   0.21222   0.07235   0.00000  Uiso   1.00
O268   O     0.06870   0.46536   0.37373   0.00000  Uiso   1.00
O269   O     0.13806   0.66789   0.52012   0.00000  Uiso   1.00
O270   O     0.28781   0.25147   0.14779   0.00000  Uiso   1.00
N271   N     0.16038   0.37388   0.44275   0.00000  Uiso   1.00
N272   N     0.20980   0.80558   0.54704   0.00000  Uiso   1.00
N273   N     0.31652   0.22142   0.99433   0.00000  Uiso   1.00
N274   N     0.03231   0.36315   0.48113   0.00000  Uiso   1.00
N275   N     0.08173   0.79485   0.58542   0.00000  Uiso   1.00
N276   N     0.18844   0.21069   0.03271   0.00000  Uiso   1.00
