data_job_02749
_audit_creation_date              2018-12-19
_audit_creation_method            'Materials Studio'
_symmetry_space_group_name_H-M    'P1'
_symmetry_Int_Tables_number       1
_symmetry_cell_setting            triclinic
loop_
_symmetry_equiv_pos_as_xyz
  x,y,z
_cell_length_a                    26.3045
_cell_length_b                    14.0325
_cell_length_c                    31.8074
_cell_angle_alpha                 90.0000
_cell_angle_beta                  147.6980
_cell_angle_gamma                 90.0000
loop_
_atom_site_label
_atom_site_type_symbol
_atom_site_fract_x
_atom_site_fract_y
_atom_site_fract_z
_atom_site_U_iso_or_equiv
_atom_site_adp_type
_atom_site_occupancy
C1     C     0.82299   0.23152   0.95750   0.00000  Uiso   1.00
C2     C     0.82395   0.18743   0.91435   0.00000  Uiso   1.00
C3     C     0.74711   0.14452   0.84084   0.00000  Uiso   1.00
C4     C     0.76248   0.10848   0.81150   0.00000  Uiso   1.00
C5     C     0.75044   0.03897   0.73802   0.00000  Uiso   1.00
C6     C     0.90134   0.18127   0.03693   0.00000  Uiso   1.00
C7     C     0.88956   0.13319   0.06648   0.00000  Uiso   1.00
C8     C     0.97008   0.09198   0.14033   0.00000  Uiso   1.00
C9     C     0.07819   0.01296   0.25718   0.00000  Uiso   1.00
C10    C     0.85603   0.33427   0.97511   0.00000  Uiso   1.00
C11    C     0.80617   0.41485   0.95269   0.00000  Uiso   1.00
C12    C     0.84855   0.50246   0.97451   0.00000  Uiso   1.00
C13    C     0.88631   0.66100   0.99537   0.00000  Uiso   1.00
C14    C     0.98692   0.24382   0.03613   0.00000  Uiso   1.00
C15    C     0.91299   0.19411   0.95706   0.00000  Uiso   1.00
C16    C     0.92848   0.15813   0.92783   0.00000  Uiso   1.00
C17    C     0.85168   0.11518   0.85428   0.00000  Uiso   1.00
C18    C     0.99037   0.18795   0.07964   0.00000  Uiso   1.00
C19    C     0.07093   0.14680   0.15347   0.00000  Uiso   1.00
C20    C     0.05928   0.09867   0.18311   0.00000  Uiso   1.00
C21    C     0.94506   0.34095   0.01781   0.00000  Uiso   1.00
C22    C     0.98753   0.42845   0.03968   0.00000  Uiso   1.00
C23    C     0.93775   0.50915   0.01730   0.00000  Uiso   1.00
H24    H     0.75367   0.22631   0.92426   0.00000  Uiso   1.00
H25    H     0.67822   0.13936   0.80781   0.00000  Uiso   1.00
H26    H     0.82065   0.12804   0.03342   0.00000  Uiso   1.00
H27    H     0.73727   0.40965   0.91965   0.00000  Uiso   1.00
H28    H     0.63384   0.04587   0.69755   0.00000  Uiso   1.00
H29    H     0.93417   0.02204   0.17327   0.00000  Uiso   1.00
H30    H     0.75835   0.61587   0.93336   0.00000  Uiso   1.00
H31    H     0.05624   0.24902   0.06938   0.00000  Uiso   1.00
H32    H     0.99739   0.16331   0.96089   0.00000  Uiso   1.00
H33    H     0.13982   0.15199   0.18650   0.00000  Uiso   1.00
H34    H     0.05644   0.43360   0.07273   0.00000  Uiso   1.00
H35    H     0.89289   0.06530   0.82180   0.00000  Uiso   1.00
H36    H     0.19322   0.04147   0.29752   0.00000  Uiso   1.00
H37    H     0.01740   0.63530   0.05761   0.00000  Uiso   1.00
O38    O     0.71920   0.99877   0.68570   0.00000  Uiso   1.00
O39    O     0.11322   0.96752   0.30982   0.00000  Uiso   1.00
O40    O     0.88254   0.74660   0.99507   0.00000  Uiso   1.00
N41    N     0.70288   0.06222   0.74168   0.00000  Uiso   1.00
N42    N     0.98367   0.03993   0.18643   0.00000  Uiso   1.00
N43    N     0.81930   0.59511   0.96216   0.00000  Uiso   1.00
N44    N     0.84227   0.07268   0.80853   0.00000  Uiso   1.00
N45    N     0.12306   0.05038   0.25329   0.00000  Uiso   1.00
N46    N     0.95869   0.60556   0.02902   0.00000  Uiso   1.00
C47    C     0.32299   0.73152   0.95750   0.00000  Uiso   1.00
C48    C     0.32395   0.68743   0.91435   0.00000  Uiso   1.00
C49    C     0.24711   0.64452   0.84084   0.00000  Uiso   1.00
C50    C     0.26248   0.60848   0.81150   0.00000  Uiso   1.00
C51    C     0.25044   0.53897   0.73802   0.00000  Uiso   1.00
C52    C     0.40134   0.68127   0.03693   0.00000  Uiso   1.00
C53    C     0.38956   0.63319   0.06648   0.00000  Uiso   1.00
C54    C     0.47008   0.59198   0.14033   0.00000  Uiso   1.00
C55    C     0.57819   0.51296   0.25718   0.00000  Uiso   1.00
C56    C     0.35603   0.83427   0.97511   0.00000  Uiso   1.00
C57    C     0.30617   0.91485   0.95269   0.00000  Uiso   1.00
C58    C     0.34855   0.00246   0.97451   0.00000  Uiso   1.00
C59    C     0.38631   0.16100   0.99537   0.00000  Uiso   1.00
C60    C     0.48692   0.74382   0.03613   0.00000  Uiso   1.00
C61    C     0.41299   0.69411   0.95706   0.00000  Uiso   1.00
C62    C     0.42848   0.65813   0.92783   0.00000  Uiso   1.00
C63    C     0.35168   0.61518   0.85428   0.00000  Uiso   1.00
C64    C     0.49037   0.68795   0.07964   0.00000  Uiso   1.00
C65    C     0.57093   0.64680   0.15347   0.00000  Uiso   1.00
C66    C     0.55928   0.59867   0.18311   0.00000  Uiso   1.00
C67    C     0.44506   0.84095   0.01781   0.00000  Uiso   1.00
C68    C     0.48753   0.92845   0.03968   0.00000  Uiso   1.00
C69    C     0.43775   0.00915   0.01730   0.00000  Uiso   1.00
H70    H     0.25367   0.72631   0.92426   0.00000  Uiso   1.00
H71    H     0.17822   0.63936   0.80781   0.00000  Uiso   1.00
H72    H     0.32065   0.62804   0.03342   0.00000  Uiso   1.00
H73    H     0.23727   0.90965   0.91965   0.00000  Uiso   1.00
H74    H     0.13384   0.54587   0.69755   0.00000  Uiso   1.00
H75    H     0.43417   0.52204   0.17327   0.00000  Uiso   1.00
H76    H     0.25835   0.11587   0.93336   0.00000  Uiso   1.00
H77    H     0.55624   0.74902   0.06938   0.00000  Uiso   1.00
H78    H     0.49739   0.66331   0.96089   0.00000  Uiso   1.00
H79    H     0.63982   0.65199   0.18650   0.00000  Uiso   1.00
H80    H     0.55644   0.93360   0.07273   0.00000  Uiso   1.00
H81    H     0.39289   0.56530   0.82180   0.00000  Uiso   1.00
H82    H     0.69322   0.54147   0.29752   0.00000  Uiso   1.00
H83    H     0.51740   0.13530   0.05761   0.00000  Uiso   1.00
O84    O     0.21920   0.49877   0.68570   0.00000  Uiso   1.00
O85    O     0.61322   0.46752   0.30982   0.00000  Uiso   1.00
O86    O     0.38254   0.24660   0.99507   0.00000  Uiso   1.00
N87    N     0.20288   0.56222   0.74168   0.00000  Uiso   1.00
N88    N     0.48367   0.53993   0.18643   0.00000  Uiso   1.00
N89    N     0.31930   0.09511   0.96216   0.00000  Uiso   1.00
N90    N     0.34227   0.57268   0.80853   0.00000  Uiso   1.00
N91    N     0.62306   0.55038   0.25329   0.00000  Uiso   1.00
N92    N     0.45869   0.10556   0.02902   0.00000  Uiso   1.00
C93    C     0.17701   0.23152   0.54250   0.00000  Uiso   1.00
C94    C     0.17605   0.18743   0.58565   0.00000  Uiso   1.00
C95    C     0.25289   0.14452   0.65916   0.00000  Uiso   1.00
C96    C     0.23752   0.10848   0.68850   0.00000  Uiso   1.00
C97    C     0.24956   0.03897   0.76198   0.00000  Uiso   1.00
C98    C     0.09866   0.18127   0.46307   0.00000  Uiso   1.00
C99    C     0.11044   0.13319   0.43352   0.00000  Uiso   1.00
C100   C     0.02992   0.09198   0.35967   0.00000  Uiso   1.00
C101   C     0.92181   0.01296   0.24282   0.00000  Uiso   1.00
C102   C     0.14397   0.33427   0.52489   0.00000  Uiso   1.00
C103   C     0.19383   0.41485   0.54731   0.00000  Uiso   1.00
C104   C     0.15145   0.50246   0.52549   0.00000  Uiso   1.00
C105   C     0.11369   0.66100   0.50463   0.00000  Uiso   1.00
C106   C     0.01308   0.24382   0.46387   0.00000  Uiso   1.00
C107   C     0.08701   0.19411   0.54294   0.00000  Uiso   1.00
C108   C     0.07152   0.15813   0.57217   0.00000  Uiso   1.00
C109   C     0.14832   0.11518   0.64572   0.00000  Uiso   1.00
C110   C     0.00963   0.18795   0.42036   0.00000  Uiso   1.00
C111   C     0.92907   0.14680   0.34653   0.00000  Uiso   1.00
C112   C     0.94072   0.09867   0.31689   0.00000  Uiso   1.00
C113   C     0.05494   0.34095   0.48219   0.00000  Uiso   1.00
C114   C     0.01247   0.42845   0.46032   0.00000  Uiso   1.00
C115   C     0.06225   0.50915   0.48270   0.00000  Uiso   1.00
H116   H     0.24633   0.22631   0.57574   0.00000  Uiso   1.00
H117   H     0.32178   0.13936   0.69219   0.00000  Uiso   1.00
H118   H     0.17935   0.12804   0.46658   0.00000  Uiso   1.00
H119   H     0.26273   0.40965   0.58035   0.00000  Uiso   1.00
H120   H     0.36616   0.04587   0.80245   0.00000  Uiso   1.00
H121   H     0.06583   0.02204   0.32673   0.00000  Uiso   1.00
H122   H     0.24165   0.61587   0.56664   0.00000  Uiso   1.00
H123   H     0.94376   0.24902   0.43062   0.00000  Uiso   1.00
H124   H     0.00261   0.16331   0.53911   0.00000  Uiso   1.00
H125   H     0.86018   0.15199   0.31350   0.00000  Uiso   1.00
H126   H     0.94356   0.43360   0.42727   0.00000  Uiso   1.00
H127   H     0.10711   0.06530   0.67820   0.00000  Uiso   1.00
H128   H     0.80678   0.04147   0.20248   0.00000  Uiso   1.00
H129   H     0.98260   0.63530   0.44239   0.00000  Uiso   1.00
O130   O     0.28080   0.99877   0.81430   0.00000  Uiso   1.00
O131   O     0.88678   0.96752   0.19018   0.00000  Uiso   1.00
O132   O     0.11746   0.74660   0.50493   0.00000  Uiso   1.00
N133   N     0.29712   0.06222   0.75832   0.00000  Uiso   1.00
N134   N     0.01633   0.03993   0.31357   0.00000  Uiso   1.00
N135   N     0.18070   0.59511   0.53784   0.00000  Uiso   1.00
N136   N     0.15773   0.07268   0.69147   0.00000  Uiso   1.00
N137   N     0.87694   0.05038   0.24671   0.00000  Uiso   1.00
N138   N     0.04131   0.60556   0.47098   0.00000  Uiso   1.00
C139   C     0.67701   0.73152   0.54250   0.00000  Uiso   1.00
C140   C     0.67605   0.68743   0.58565   0.00000  Uiso   1.00
C141   C     0.75289   0.64452   0.65916   0.00000  Uiso   1.00
C142   C     0.73752   0.60848   0.68850   0.00000  Uiso   1.00
C143   C     0.74956   0.53897   0.76198   0.00000  Uiso   1.00
C144   C     0.59866   0.68127   0.46307   0.00000  Uiso   1.00
C145   C     0.61044   0.63319   0.43352   0.00000  Uiso   1.00
C146   C     0.52992   0.59198   0.35967   0.00000  Uiso   1.00
C147   C     0.42181   0.51296   0.24282   0.00000  Uiso   1.00
C148   C     0.64397   0.83427   0.52489   0.00000  Uiso   1.00
C149   C     0.69383   0.91485   0.54731   0.00000  Uiso   1.00
C150   C     0.65145   0.00246   0.52549   0.00000  Uiso   1.00
C151   C     0.61369   0.16100   0.50463   0.00000  Uiso   1.00
C152   C     0.51308   0.74382   0.46387   0.00000  Uiso   1.00
C153   C     0.58701   0.69411   0.54294   0.00000  Uiso   1.00
C154   C     0.57152   0.65813   0.57217   0.00000  Uiso   1.00
C155   C     0.64832   0.61518   0.64572   0.00000  Uiso   1.00
C156   C     0.50963   0.68795   0.42036   0.00000  Uiso   1.00
C157   C     0.42907   0.64680   0.34653   0.00000  Uiso   1.00
C158   C     0.44072   0.59867   0.31689   0.00000  Uiso   1.00
C159   C     0.55494   0.84095   0.48219   0.00000  Uiso   1.00
C160   C     0.51247   0.92845   0.46032   0.00000  Uiso   1.00
C161   C     0.56225   0.00915   0.48270   0.00000  Uiso   1.00
H162   H     0.74633   0.72631   0.57574   0.00000  Uiso   1.00
H163   H     0.82178   0.63936   0.69219   0.00000  Uiso   1.00
H164   H     0.67935   0.62804   0.46658   0.00000  Uiso   1.00
H165   H     0.76273   0.90965   0.58035   0.00000  Uiso   1.00
H166   H     0.86616   0.54587   0.80245   0.00000  Uiso   1.00
H167   H     0.56583   0.52204   0.32673   0.00000  Uiso   1.00
H168   H     0.74165   0.11587   0.56664   0.00000  Uiso   1.00
H169   H     0.44376   0.74902   0.43062   0.00000  Uiso   1.00
H170   H     0.50261   0.66331   0.53911   0.00000  Uiso   1.00
H171   H     0.36018   0.65199   0.31350   0.00000  Uiso   1.00
H172   H     0.44356   0.93360   0.42727   0.00000  Uiso   1.00
H173   H     0.60711   0.56530   0.67820   0.00000  Uiso   1.00
H174   H     0.30678   0.54147   0.20248   0.00000  Uiso   1.00
H175   H     0.48260   0.13530   0.44239   0.00000  Uiso   1.00
O176   O     0.78080   0.49877   0.81430   0.00000  Uiso   1.00
O177   O     0.38678   0.46752   0.19018   0.00000  Uiso   1.00
O178   O     0.61746   0.24660   0.50493   0.00000  Uiso   1.00
N179   N     0.79712   0.56222   0.75832   0.00000  Uiso   1.00
N180   N     0.51633   0.53993   0.31357   0.00000  Uiso   1.00
N181   N     0.68070   0.09511   0.53784   0.00000  Uiso   1.00
N182   N     0.65773   0.57268   0.69147   0.00000  Uiso   1.00
N183   N     0.37694   0.55038   0.24671   0.00000  Uiso   1.00
N184   N     0.54131   0.10556   0.47098   0.00000  Uiso   1.00
C185   C     0.17701   0.76848   0.04250   0.00000  Uiso   1.00
C186   C     0.17605   0.81257   0.08565   0.00000  Uiso   1.00
C187   C     0.25289   0.85548   0.15916   0.00000  Uiso   1.00
C188   C     0.23752   0.89152   0.18850   0.00000  Uiso   1.00
C189   C     0.24956   0.96103   0.26198   0.00000  Uiso   1.00
C190   C     0.09866   0.81873   0.96307   0.00000  Uiso   1.00
C191   C     0.11044   0.86681   0.93352   0.00000  Uiso   1.00
C192   C     0.02992   0.90802   0.85967   0.00000  Uiso   1.00
C193   C     0.92181   0.98704   0.74282   0.00000  Uiso   1.00
C194   C     0.14397   0.66573   0.02489   0.00000  Uiso   1.00
C195   C     0.19383   0.58515   0.04731   0.00000  Uiso   1.00
C196   C     0.15145   0.49754   0.02549   0.00000  Uiso   1.00
C197   C     0.11369   0.33900   0.00463   0.00000  Uiso   1.00
C198   C     0.01308   0.75618   0.96387   0.00000  Uiso   1.00
C199   C     0.08701   0.80589   0.04294   0.00000  Uiso   1.00
C200   C     0.07152   0.84187   0.07217   0.00000  Uiso   1.00
C201   C     0.14832   0.88482   0.14572   0.00000  Uiso   1.00
C202   C     0.00963   0.81205   0.92036   0.00000  Uiso   1.00
C203   C     0.92907   0.85320   0.84653   0.00000  Uiso   1.00
C204   C     0.94072   0.90133   0.81689   0.00000  Uiso   1.00
C205   C     0.05494   0.65905   0.98219   0.00000  Uiso   1.00
C206   C     0.01247   0.57155   0.96032   0.00000  Uiso   1.00
C207   C     0.06225   0.49085   0.98270   0.00000  Uiso   1.00
H208   H     0.24633   0.77369   0.07574   0.00000  Uiso   1.00
H209   H     0.32178   0.86064   0.19219   0.00000  Uiso   1.00
H210   H     0.17935   0.87196   0.96658   0.00000  Uiso   1.00
H211   H     0.26273   0.59035   0.08035   0.00000  Uiso   1.00
H212   H     0.36616   0.95413   0.30245   0.00000  Uiso   1.00
H213   H     0.06583   0.97796   0.82673   0.00000  Uiso   1.00
H214   H     0.24165   0.38413   0.06664   0.00000  Uiso   1.00
H215   H     0.94376   0.75098   0.93062   0.00000  Uiso   1.00
H216   H     0.00261   0.83669   0.03911   0.00000  Uiso   1.00
H217   H     0.86018   0.84801   0.81350   0.00000  Uiso   1.00
H218   H     0.94356   0.56640   0.92727   0.00000  Uiso   1.00
H219   H     0.10711   0.93470   0.17820   0.00000  Uiso   1.00
H220   H     0.80678   0.95853   0.70248   0.00000  Uiso   1.00
H221   H     0.98260   0.36470   0.94239   0.00000  Uiso   1.00
O222   O     0.28080   0.00123   0.31430   0.00000  Uiso   1.00
O223   O     0.88678   0.03248   0.69018   0.00000  Uiso   1.00
O224   O     0.11746   0.25340   0.00493   0.00000  Uiso   1.00
N225   N     0.29712   0.93778   0.25832   0.00000  Uiso   1.00
N226   N     0.01633   0.96007   0.81357   0.00000  Uiso   1.00
N227   N     0.18070   0.40489   0.03784   0.00000  Uiso   1.00
N228   N     0.15773   0.92732   0.19147   0.00000  Uiso   1.00
N229   N     0.87694   0.94962   0.74671   0.00000  Uiso   1.00
N230   N     0.04131   0.39444   0.97098   0.00000  Uiso   1.00
C231   C     0.67701   0.26848   0.04250   0.00000  Uiso   1.00
C232   C     0.67605   0.31257   0.08565   0.00000  Uiso   1.00
C233   C     0.75289   0.35548   0.15916   0.00000  Uiso   1.00
C234   C     0.73752   0.39152   0.18850   0.00000  Uiso   1.00
C235   C     0.74956   0.46103   0.26198   0.00000  Uiso   1.00
C236   C     0.59866   0.31873   0.96307   0.00000  Uiso   1.00
C237   C     0.61044   0.36681   0.93352   0.00000  Uiso   1.00
C238   C     0.52992   0.40802   0.85967   0.00000  Uiso   1.00
C239   C     0.42181   0.48704   0.74282   0.00000  Uiso   1.00
C240   C     0.64397   0.16573   0.02489   0.00000  Uiso   1.00
C241   C     0.69383   0.08515   0.04731   0.00000  Uiso   1.00
C242   C     0.65145   0.99754   0.02549   0.00000  Uiso   1.00
C243   C     0.61369   0.83900   0.00463   0.00000  Uiso   1.00
C244   C     0.51308   0.25618   0.96387   0.00000  Uiso   1.00
C245   C     0.58701   0.30589   0.04294   0.00000  Uiso   1.00
C246   C     0.57152   0.34187   0.07217   0.00000  Uiso   1.00
C247   C     0.64832   0.38482   0.14572   0.00000  Uiso   1.00
C248   C     0.50963   0.31205   0.92036   0.00000  Uiso   1.00
C249   C     0.42907   0.35320   0.84653   0.00000  Uiso   1.00
C250   C     0.44072   0.40133   0.81689   0.00000  Uiso   1.00
C251   C     0.55494   0.15905   0.98219   0.00000  Uiso   1.00
C252   C     0.51247   0.07155   0.96032   0.00000  Uiso   1.00
C253   C     0.56225   0.99085   0.98270   0.00000  Uiso   1.00
H254   H     0.74633   0.27369   0.07574   0.00000  Uiso   1.00
H255   H     0.82178   0.36064   0.19219   0.00000  Uiso   1.00
H256   H     0.67935   0.37196   0.96658   0.00000  Uiso   1.00
H257   H     0.76273   0.09035   0.08035   0.00000  Uiso   1.00
H258   H     0.86616   0.45413   0.30245   0.00000  Uiso   1.00
H259   H     0.56583   0.47796   0.82673   0.00000  Uiso   1.00
H260   H     0.74165   0.88413   0.06664   0.00000  Uiso   1.00
H261   H     0.44376   0.25098   0.93062   0.00000  Uiso   1.00
H262   H     0.50261   0.33669   0.03911   0.00000  Uiso   1.00
H263   H     0.36018   0.34801   0.81350   0.00000  Uiso   1.00
H264   H     0.44356   0.06640   0.92727   0.00000  Uiso   1.00
H265   H     0.60711   0.43470   0.17820   0.00000  Uiso   1.00
H266   H     0.30678   0.45853   0.70248   0.00000  Uiso   1.00
H267   H     0.48260   0.86470   0.94239   0.00000  Uiso   1.00
O268   O     0.78080   0.50123   0.31430   0.00000  Uiso   1.00
O269   O     0.38678   0.53248   0.69018   0.00000  Uiso   1.00
O270   O     0.61746   0.75340   0.00493   0.00000  Uiso   1.00
N271   N     0.79712   0.43778   0.25832   0.00000  Uiso   1.00
N272   N     0.51633   0.46007   0.81357   0.00000  Uiso   1.00
N273   N     0.68070   0.90489   0.03784   0.00000  Uiso   1.00
N274   N     0.65773   0.42732   0.19147   0.00000  Uiso   1.00
N275   N     0.37694   0.44962   0.74671   0.00000  Uiso   1.00
N276   N     0.54131   0.89444   0.97098   0.00000  Uiso   1.00
C277   C     0.82299   0.76848   0.45750   0.00000  Uiso   1.00
C278   C     0.82395   0.81257   0.41435   0.00000  Uiso   1.00
C279   C     0.74711   0.85548   0.34084   0.00000  Uiso   1.00
C280   C     0.76248   0.89152   0.31150   0.00000  Uiso   1.00
C281   C     0.75044   0.96103   0.23802   0.00000  Uiso   1.00
C282   C     0.90134   0.81873   0.53693   0.00000  Uiso   1.00
C283   C     0.88956   0.86681   0.56648   0.00000  Uiso   1.00
C284   C     0.97008   0.90802   0.64033   0.00000  Uiso   1.00
C285   C     0.07819   0.98704   0.75718   0.00000  Uiso   1.00
C286   C     0.85603   0.66573   0.47511   0.00000  Uiso   1.00
C287   C     0.80617   0.58515   0.45269   0.00000  Uiso   1.00
C288   C     0.84855   0.49754   0.47451   0.00000  Uiso   1.00
C289   C     0.88631   0.33900   0.49537   0.00000  Uiso   1.00
C290   C     0.98692   0.75618   0.53613   0.00000  Uiso   1.00
C291   C     0.91299   0.80589   0.45706   0.00000  Uiso   1.00
C292   C     0.92848   0.84187   0.42783   0.00000  Uiso   1.00
C293   C     0.85168   0.88482   0.35428   0.00000  Uiso   1.00
C294   C     0.99037   0.81205   0.57964   0.00000  Uiso   1.00
C295   C     0.07093   0.85320   0.65347   0.00000  Uiso   1.00
C296   C     0.05928   0.90133   0.68311   0.00000  Uiso   1.00
C297   C     0.94506   0.65905   0.51781   0.00000  Uiso   1.00
C298   C     0.98753   0.57155   0.53968   0.00000  Uiso   1.00
C299   C     0.93775   0.49085   0.51730   0.00000  Uiso   1.00
H300   H     0.75367   0.77369   0.42426   0.00000  Uiso   1.00
H301   H     0.67822   0.86064   0.30781   0.00000  Uiso   1.00
H302   H     0.82065   0.87196   0.53342   0.00000  Uiso   1.00
H303   H     0.73727   0.59035   0.41965   0.00000  Uiso   1.00
H304   H     0.63384   0.95413   0.19755   0.00000  Uiso   1.00
H305   H     0.93417   0.97796   0.67327   0.00000  Uiso   1.00
H306   H     0.75835   0.38413   0.43336   0.00000  Uiso   1.00
H307   H     0.05624   0.75098   0.56938   0.00000  Uiso   1.00
H308   H     0.99739   0.83669   0.46089   0.00000  Uiso   1.00
H309   H     0.13982   0.84801   0.68650   0.00000  Uiso   1.00
H310   H     0.05644   0.56640   0.57273   0.00000  Uiso   1.00
H311   H     0.89289   0.93470   0.32180   0.00000  Uiso   1.00
H312   H     0.19322   0.95853   0.79752   0.00000  Uiso   1.00
H313   H     0.01740   0.36470   0.55761   0.00000  Uiso   1.00
O314   O     0.71920   0.00123   0.18570   0.00000  Uiso   1.00
O315   O     0.11322   0.03248   0.80982   0.00000  Uiso   1.00
O316   O     0.88254   0.25340   0.49507   0.00000  Uiso   1.00
N317   N     0.70288   0.93778   0.24168   0.00000  Uiso   1.00
N318   N     0.98367   0.96007   0.68643   0.00000  Uiso   1.00
N319   N     0.81930   0.40489   0.46216   0.00000  Uiso   1.00
N320   N     0.84227   0.92732   0.30853   0.00000  Uiso   1.00
N321   N     0.12306   0.94962   0.75329   0.00000  Uiso   1.00
N322   N     0.95869   0.39444   0.52902   0.00000  Uiso   1.00
C323   C     0.32299   0.26848   0.45750   0.00000  Uiso   1.00
C324   C     0.32395   0.31257   0.41435   0.00000  Uiso   1.00
C325   C     0.24711   0.35548   0.34084   0.00000  Uiso   1.00
C326   C     0.26248   0.39152   0.31150   0.00000  Uiso   1.00
C327   C     0.25044   0.46103   0.23802   0.00000  Uiso   1.00
C328   C     0.40134   0.31873   0.53693   0.00000  Uiso   1.00
C329   C     0.38956   0.36681   0.56648   0.00000  Uiso   1.00
C330   C     0.47008   0.40802   0.64033   0.00000  Uiso   1.00
C331   C     0.57819   0.48704   0.75718   0.00000  Uiso   1.00
C332   C     0.35603   0.16573   0.47511   0.00000  Uiso   1.00
C333   C     0.30617   0.08515   0.45269   0.00000  Uiso   1.00
C334   C     0.34855   0.99754   0.47451   0.00000  Uiso   1.00
C335   C     0.38631   0.83900   0.49537   0.00000  Uiso   1.00
C336   C     0.48692   0.25618   0.53613   0.00000  Uiso   1.00
C337   C     0.41299   0.30589   0.45706   0.00000  Uiso   1.00
C338   C     0.42848   0.34187   0.42783   0.00000  Uiso   1.00
C339   C     0.35168   0.38482   0.35428   0.00000  Uiso   1.00
C340   C     0.49037   0.31205   0.57964   0.00000  Uiso   1.00
C341   C     0.57093   0.35320   0.65347   0.00000  Uiso   1.00
C342   C     0.55928   0.40133   0.68311   0.00000  Uiso   1.00
C343   C     0.44506   0.15905   0.51781   0.00000  Uiso   1.00
C344   C     0.48753   0.07155   0.53968   0.00000  Uiso   1.00
C345   C     0.43775   0.99085   0.51730   0.00000  Uiso   1.00
H346   H     0.25367   0.27369   0.42426   0.00000  Uiso   1.00
H347   H     0.17822   0.36064   0.30781   0.00000  Uiso   1.00
H348   H     0.32065   0.37196   0.53342   0.00000  Uiso   1.00
H349   H     0.23727   0.09035   0.41965   0.00000  Uiso   1.00
H350   H     0.13384   0.45413   0.19755   0.00000  Uiso   1.00
H351   H     0.43417   0.47796   0.67327   0.00000  Uiso   1.00
H352   H     0.25835   0.88413   0.43336   0.00000  Uiso   1.00
H353   H     0.55624   0.25098   0.56938   0.00000  Uiso   1.00
H354   H     0.49739   0.33669   0.46089   0.00000  Uiso   1.00
H355   H     0.63982   0.34801   0.68650   0.00000  Uiso   1.00
H356   H     0.55644   0.06640   0.57273   0.00000  Uiso   1.00
H357   H     0.39289   0.43470   0.32180   0.00000  Uiso   1.00
H358   H     0.69322   0.45853   0.79752   0.00000  Uiso   1.00
H359   H     0.51740   0.86470   0.55761   0.00000  Uiso   1.00
O360   O     0.21920   0.50123   0.18570   0.00000  Uiso   1.00
O361   O     0.61322   0.53248   0.80982   0.00000  Uiso   1.00
O362   O     0.38254   0.75340   0.49507   0.00000  Uiso   1.00
N363   N     0.20288   0.43778   0.24168   0.00000  Uiso   1.00
N364   N     0.48367   0.46007   0.68643   0.00000  Uiso   1.00
N365   N     0.31930   0.90489   0.46216   0.00000  Uiso   1.00
N366   N     0.34227   0.42732   0.30853   0.00000  Uiso   1.00
N367   N     0.62306   0.44962   0.75329   0.00000  Uiso   1.00
N368   N     0.45869   0.89444   0.52902   0.00000  Uiso   1.00
