data_job_02105
_audit_creation_date              2018-12-19
_audit_creation_method            'Materials Studio'
_symmetry_space_group_name_H-M    'P1'
_symmetry_Int_Tables_number       1
_symmetry_cell_setting            triclinic
loop_
_symmetry_equiv_pos_as_xyz
  x,y,z
_cell_length_a                    13.7616
_cell_length_b                    14.2276
_cell_length_c                    14.6619
_cell_angle_alpha                 90.0000
_cell_angle_beta                  90.0000
_cell_angle_gamma                 90.0000
loop_
_atom_site_label
_atom_site_type_symbol
_atom_site_fract_x
_atom_site_fract_y
_atom_site_fract_z
_atom_site_U_iso_or_equiv
_atom_site_adp_type
_atom_site_occupancy
C1     C     0.51404   0.13953   0.70343   0.00000  Uiso   1.00
C2     C     0.48885   0.17393   0.60781   0.00000  Uiso   1.00
C3     C     0.41131   0.14306   0.55522   0.00000  Uiso   1.00
C4     C     0.40068   0.18321   0.46950   0.00000  Uiso   1.00
C5     C     0.35176   0.22616   0.32585   0.00000  Uiso   1.00
C6     C     0.61857   0.10433   0.69849   0.00000  Uiso   1.00
C7     C     0.65011   0.01494   0.72216   0.00000  Uiso   1.00
C8     C     0.74868   0.99651   0.71279   0.00000  Uiso   1.00
C9     C     0.90117   0.93143   0.71000   0.00000  Uiso   1.00
C10    C     0.51625   0.22682   0.76374   0.00000  Uiso   1.00
C11    C     0.46177   0.24041   0.84230   0.00000  Uiso   1.00
C12    C     0.47422   0.32511   0.88787   0.00000  Uiso   1.00
C13    C     0.46784   0.45021   0.98639   0.00000  Uiso   1.00
C14    C     0.63303   0.26574   0.64470   0.00000  Uiso   1.00
C15    C     0.55348   0.24248   0.57591   0.00000  Uiso   1.00
C16    C     0.54296   0.28270   0.49024   0.00000  Uiso   1.00
C17    C     0.46542   0.25189   0.43754   0.00000  Uiso   1.00
C18    C     0.68321   0.17288   0.66659   0.00000  Uiso   1.00
C19    C     0.78176   0.15458   0.65719   0.00000  Uiso   1.00
C20    C     0.81343   0.06519   0.68083   0.00000  Uiso   1.00
C21    C     0.58088   0.29537   0.73184   0.00000  Uiso   1.00
C22    C     0.59342   0.38006   0.77731   0.00000  Uiso   1.00
C23    C     0.53897   0.39379   0.85592   0.00000  Uiso   1.00
H24    H     0.46373   0.08615   0.72827   0.00000  Uiso   1.00
H25    H     0.36132   0.08999   0.57993   0.00000  Uiso   1.00
H26    H     0.60007   0.96191   0.74686   0.00000  Uiso   1.00
H27    H     0.41177   0.18735   0.86696   0.00000  Uiso   1.00
H28    H     0.27630   0.12446   0.40139   0.00000  Uiso   1.00
H29    H     0.77974   0.85439   0.75339   0.00000  Uiso   1.00
H30    H     0.38265   0.32977   0.00666   0.00000  Uiso   1.00
H31    H     0.68336   0.31912   0.61986   0.00000  Uiso   1.00
H32    H     0.59299   0.33575   0.46557   0.00000  Uiso   1.00
H33    H     0.83175   0.20765   0.63250   0.00000  Uiso   1.00
H34    H     0.64344   0.43310   0.75261   0.00000  Uiso   1.00
H35    H     0.46434   0.32392   0.30857   0.00000  Uiso   1.00
H36    H     0.96778   0.05385   0.66058   0.00000  Uiso   1.00
H37    H     0.57069   0.52923   0.91385   0.00000  Uiso   1.00
O38    O     0.30693   0.23090   0.25543   0.00000  Uiso   1.00
O39    O     0.96742   0.87658   0.71726   0.00000  Uiso   1.00
O40    O     0.44646   0.50028   0.04954   0.00000  Uiso   1.00
N41    N     0.33294   0.16914   0.40072   0.00000  Uiso   1.00
N42    N     0.80362   0.91663   0.72981   0.00000  Uiso   1.00
N43    N     0.43241   0.36106   0.96662   0.00000  Uiso   1.00
N44    N     0.43412   0.27647   0.35078   0.00000  Uiso   1.00
N45    N     0.90481   0.02396   0.67987   0.00000  Uiso   1.00
N46    N     0.53359   0.46839   0.91667   0.00000  Uiso   1.00
C47    C     0.48596   0.86047   0.20343   0.00000  Uiso   1.00
C48    C     0.51115   0.82607   0.10781   0.00000  Uiso   1.00
C49    C     0.58869   0.85694   0.05522   0.00000  Uiso   1.00
C50    C     0.59932   0.81679   0.96950   0.00000  Uiso   1.00
C51    C     0.64824   0.77384   0.82585   0.00000  Uiso   1.00
C52    C     0.38143   0.89567   0.19849   0.00000  Uiso   1.00
C53    C     0.34989   0.98506   0.22216   0.00000  Uiso   1.00
C54    C     0.25132   0.00349   0.21279   0.00000  Uiso   1.00
C55    C     0.09883   0.06857   0.21000   0.00000  Uiso   1.00
C56    C     0.48375   0.77318   0.26374   0.00000  Uiso   1.00
C57    C     0.53823   0.75959   0.34230   0.00000  Uiso   1.00
C58    C     0.52578   0.67489   0.38787   0.00000  Uiso   1.00
C59    C     0.53216   0.54979   0.48639   0.00000  Uiso   1.00
C60    C     0.36697   0.73426   0.14470   0.00000  Uiso   1.00
C61    C     0.44652   0.75752   0.07591   0.00000  Uiso   1.00
C62    C     0.45704   0.71730   0.99024   0.00000  Uiso   1.00
C63    C     0.53458   0.74811   0.93754   0.00000  Uiso   1.00
C64    C     0.31679   0.82712   0.16659   0.00000  Uiso   1.00
C65    C     0.21824   0.84542   0.15719   0.00000  Uiso   1.00
C66    C     0.18657   0.93481   0.18083   0.00000  Uiso   1.00
C67    C     0.41912   0.70463   0.23184   0.00000  Uiso   1.00
C68    C     0.40658   0.61994   0.27731   0.00000  Uiso   1.00
C69    C     0.46103   0.60621   0.35592   0.00000  Uiso   1.00
H70    H     0.53627   0.91385   0.22827   0.00000  Uiso   1.00
H71    H     0.63868   0.91001   0.07993   0.00000  Uiso   1.00
H72    H     0.39993   0.03809   0.24686   0.00000  Uiso   1.00
H73    H     0.58823   0.81265   0.36696   0.00000  Uiso   1.00
H74    H     0.72370   0.87554   0.90139   0.00000  Uiso   1.00
H75    H     0.22026   0.14561   0.25339   0.00000  Uiso   1.00
H76    H     0.61735   0.67023   0.50666   0.00000  Uiso   1.00
H77    H     0.31664   0.68088   0.11986   0.00000  Uiso   1.00
H78    H     0.40701   0.66425   0.96557   0.00000  Uiso   1.00
H79    H     0.16825   0.79235   0.13250   0.00000  Uiso   1.00
H80    H     0.35656   0.56690   0.25261   0.00000  Uiso   1.00
H81    H     0.53566   0.67608   0.80857   0.00000  Uiso   1.00
H82    H     0.03222   0.94615   0.16058   0.00000  Uiso   1.00
H83    H     0.42931   0.47077   0.41385   0.00000  Uiso   1.00
O84    O     0.69307   0.76910   0.75543   0.00000  Uiso   1.00
O85    O     0.03258   0.12342   0.21726   0.00000  Uiso   1.00
O86    O     0.55354   0.49972   0.54954   0.00000  Uiso   1.00
N87    N     0.66706   0.83086   0.90072   0.00000  Uiso   1.00
N88    N     0.19638   0.08337   0.22981   0.00000  Uiso   1.00
N89    N     0.56759   0.63894   0.46662   0.00000  Uiso   1.00
N90    N     0.56588   0.72353   0.85078   0.00000  Uiso   1.00
N91    N     0.09519   0.97604   0.17987   0.00000  Uiso   1.00
N92    N     0.46641   0.53161   0.41667   0.00000  Uiso   1.00
C93    C     0.01404   0.36047   0.70343   0.00000  Uiso   1.00
C94    C     0.98885   0.32607   0.60781   0.00000  Uiso   1.00
C95    C     0.91131   0.35694   0.55522   0.00000  Uiso   1.00
C96    C     0.90068   0.31679   0.46950   0.00000  Uiso   1.00
C97    C     0.85176   0.27384   0.32585   0.00000  Uiso   1.00
C98    C     0.11857   0.39567   0.69849   0.00000  Uiso   1.00
C99    C     0.15011   0.48506   0.72216   0.00000  Uiso   1.00
C100   C     0.24868   0.50349   0.71279   0.00000  Uiso   1.00
C101   C     0.40117   0.56857   0.71000   0.00000  Uiso   1.00
C102   C     0.01625   0.27318   0.76374   0.00000  Uiso   1.00
C103   C     0.96177   0.25959   0.84230   0.00000  Uiso   1.00
C104   C     0.97422   0.17489   0.88787   0.00000  Uiso   1.00
C105   C     0.96784   0.04979   0.98639   0.00000  Uiso   1.00
C106   C     0.13303   0.23426   0.64470   0.00000  Uiso   1.00
C107   C     0.05348   0.25752   0.57591   0.00000  Uiso   1.00
C108   C     0.04296   0.21730   0.49024   0.00000  Uiso   1.00
C109   C     0.96542   0.24811   0.43754   0.00000  Uiso   1.00
C110   C     0.18321   0.32712   0.66659   0.00000  Uiso   1.00
C111   C     0.28176   0.34542   0.65719   0.00000  Uiso   1.00
C112   C     0.31343   0.43481   0.68083   0.00000  Uiso   1.00
C113   C     0.08088   0.20463   0.73184   0.00000  Uiso   1.00
C114   C     0.09342   0.11994   0.77731   0.00000  Uiso   1.00
C115   C     0.03897   0.10621   0.85592   0.00000  Uiso   1.00
H116   H     0.96373   0.41385   0.72827   0.00000  Uiso   1.00
H117   H     0.86132   0.41001   0.57993   0.00000  Uiso   1.00
H118   H     0.10007   0.53809   0.74686   0.00000  Uiso   1.00
H119   H     0.91177   0.31265   0.86696   0.00000  Uiso   1.00
H120   H     0.77630   0.37554   0.40139   0.00000  Uiso   1.00
H121   H     0.27974   0.64561   0.75339   0.00000  Uiso   1.00
H122   H     0.88265   0.17023   0.00666   0.00000  Uiso   1.00
H123   H     0.18336   0.18088   0.61986   0.00000  Uiso   1.00
H124   H     0.09299   0.16425   0.46557   0.00000  Uiso   1.00
H125   H     0.33175   0.29235   0.63250   0.00000  Uiso   1.00
H126   H     0.14344   0.06690   0.75261   0.00000  Uiso   1.00
H127   H     0.96434   0.17608   0.30857   0.00000  Uiso   1.00
H128   H     0.46778   0.44615   0.66058   0.00000  Uiso   1.00
H129   H     0.07069   0.97077   0.91385   0.00000  Uiso   1.00
O130   O     0.80693   0.26910   0.25543   0.00000  Uiso   1.00
O131   O     0.46742   0.62342   0.71726   0.00000  Uiso   1.00
O132   O     0.94646   0.99972   0.04954   0.00000  Uiso   1.00
N133   N     0.83294   0.33086   0.40072   0.00000  Uiso   1.00
N134   N     0.30362   0.58337   0.72981   0.00000  Uiso   1.00
N135   N     0.93241   0.13894   0.96662   0.00000  Uiso   1.00
N136   N     0.93412   0.22353   0.35078   0.00000  Uiso   1.00
N137   N     0.40481   0.47604   0.67987   0.00000  Uiso   1.00
N138   N     0.03359   0.03161   0.91667   0.00000  Uiso   1.00
C139   C     0.98596   0.63953   0.20343   0.00000  Uiso   1.00
C140   C     0.01115   0.67393   0.10781   0.00000  Uiso   1.00
C141   C     0.08869   0.64306   0.05522   0.00000  Uiso   1.00
C142   C     0.09932   0.68321   0.96950   0.00000  Uiso   1.00
C143   C     0.14824   0.72616   0.82585   0.00000  Uiso   1.00
C144   C     0.88143   0.60433   0.19849   0.00000  Uiso   1.00
C145   C     0.84989   0.51494   0.22216   0.00000  Uiso   1.00
C146   C     0.75132   0.49651   0.21279   0.00000  Uiso   1.00
C147   C     0.59883   0.43143   0.21000   0.00000  Uiso   1.00
C148   C     0.98375   0.72682   0.26374   0.00000  Uiso   1.00
C149   C     0.03823   0.74041   0.34230   0.00000  Uiso   1.00
C150   C     0.02578   0.82511   0.38787   0.00000  Uiso   1.00
C151   C     0.03216   0.95021   0.48639   0.00000  Uiso   1.00
C152   C     0.86697   0.76574   0.14470   0.00000  Uiso   1.00
C153   C     0.94652   0.74248   0.07591   0.00000  Uiso   1.00
C154   C     0.95704   0.78270   0.99024   0.00000  Uiso   1.00
C155   C     0.03458   0.75189   0.93754   0.00000  Uiso   1.00
C156   C     0.81679   0.67288   0.16659   0.00000  Uiso   1.00
C157   C     0.71824   0.65458   0.15719   0.00000  Uiso   1.00
C158   C     0.68657   0.56519   0.18083   0.00000  Uiso   1.00
C159   C     0.91912   0.79537   0.23184   0.00000  Uiso   1.00
C160   C     0.90658   0.88006   0.27731   0.00000  Uiso   1.00
C161   C     0.96103   0.89379   0.35592   0.00000  Uiso   1.00
H162   H     0.03627   0.58615   0.22827   0.00000  Uiso   1.00
H163   H     0.13868   0.58999   0.07993   0.00000  Uiso   1.00
H164   H     0.89993   0.46191   0.24686   0.00000  Uiso   1.00
H165   H     0.08823   0.68735   0.36696   0.00000  Uiso   1.00
H166   H     0.22370   0.62446   0.90139   0.00000  Uiso   1.00
H167   H     0.72026   0.35439   0.25339   0.00000  Uiso   1.00
H168   H     0.11735   0.82977   0.50666   0.00000  Uiso   1.00
H169   H     0.81664   0.81912   0.11986   0.00000  Uiso   1.00
H170   H     0.90701   0.83575   0.96557   0.00000  Uiso   1.00
H171   H     0.66825   0.70765   0.13250   0.00000  Uiso   1.00
H172   H     0.85656   0.93310   0.25261   0.00000  Uiso   1.00
H173   H     0.03566   0.82392   0.80857   0.00000  Uiso   1.00
H174   H     0.53222   0.55385   0.16058   0.00000  Uiso   1.00
H175   H     0.92931   0.02923   0.41385   0.00000  Uiso   1.00
O176   O     0.19307   0.73090   0.75543   0.00000  Uiso   1.00
O177   O     0.53258   0.37658   0.21726   0.00000  Uiso   1.00
O178   O     0.05354   0.00028   0.54954   0.00000  Uiso   1.00
N179   N     0.16706   0.66914   0.90072   0.00000  Uiso   1.00
N180   N     0.69638   0.41663   0.22981   0.00000  Uiso   1.00
N181   N     0.06759   0.86106   0.46662   0.00000  Uiso   1.00
N182   N     0.06588   0.77647   0.85078   0.00000  Uiso   1.00
N183   N     0.59519   0.52396   0.17987   0.00000  Uiso   1.00
N184   N     0.96641   0.96839   0.41667   0.00000  Uiso   1.00
