data_job_04026
_audit_creation_date              2018-12-19
_audit_creation_method            'Materials Studio'
_symmetry_space_group_name_H-M    'P1'
_symmetry_Int_Tables_number       1
_symmetry_cell_setting            triclinic
loop_
_symmetry_equiv_pos_as_xyz
  x,y,z
_cell_length_a                    17.2900
_cell_length_b                    17.2900
_cell_length_c                    19.1419
_cell_angle_alpha                 90.0000
_cell_angle_beta                  90.0000
_cell_angle_gamma                 90.0000
loop_
_atom_site_label
_atom_site_type_symbol
_atom_site_fract_x
_atom_site_fract_y
_atom_site_fract_z
_atom_site_U_iso_or_equiv
_atom_site_adp_type
_atom_site_occupancy
C1     C     0.20474   0.71279   0.75709   0.00000  Uiso   1.00
C2     C     0.18363   0.63278   0.78466   0.00000  Uiso   1.00
C3     C     0.22012   0.56402   0.76700   0.00000  Uiso   1.00
C4     C     0.19218   0.49693   0.79785   0.00000  Uiso   1.00
C5     C     0.16884   0.37243   0.83352   0.00000  Uiso   1.00
C6     C     0.13114   0.74526   0.72444   0.00000  Uiso   1.00
C7     C     0.12350   0.77109   0.65614   0.00000  Uiso   1.00
C8     C     0.05136   0.79871   0.63630   0.00000  Uiso   1.00
C9     C     0.94654   0.84890   0.57848   0.00000  Uiso   1.00
C10    C     0.22096   0.76247   0.82125   0.00000  Uiso   1.00
C11    C     0.28884   0.80279   0.83435   0.00000  Uiso   1.00
C12    C     0.29232   0.84492   0.89603   0.00000  Uiso   1.00
C13    C     0.32697   0.92183   0.98853   0.00000  Uiso   1.00
C14    C     0.09022   0.71593   0.84332   0.00000  Uiso   1.00
C15    C     0.12143   0.63449   0.83150   0.00000  Uiso   1.00
C16    C     0.09342   0.56749   0.86239   0.00000  Uiso   1.00
C17    C     0.12987   0.49864   0.84478   0.00000  Uiso   1.00
C18    C     0.06893   0.74697   0.77127   0.00000  Uiso   1.00
C19    C     0.99679   0.77457   0.75153   0.00000  Uiso   1.00
C20    C     0.98904   0.80042   0.68322   0.00000  Uiso   1.00
C21    C     0.15876   0.76418   0.86809   0.00000  Uiso   1.00
C22    C     0.16214   0.80626   0.92975   0.00000  Uiso   1.00
C23    C     0.23001   0.84663   0.94294   0.00000  Uiso   1.00
H24    H     0.25316   0.71146   0.72063   0.00000  Uiso   1.00
H25    H     0.26825   0.56272   0.73074   0.00000  Uiso   1.00
H26    H     0.17164   0.76977   0.61991   0.00000  Uiso   1.00
H27    H     0.33696   0.80145   0.79810   0.00000  Uiso   1.00
H28    H     0.25754   0.39856   0.76260   0.00000  Uiso   1.00
H29    H     0.05384   0.83516   0.52890   0.00000  Uiso   1.00
H30    H     0.40244   0.90198   0.90464   0.00000  Uiso   1.00
H31    H     0.04179   0.71726   0.87978   0.00000  Uiso   1.00
H32    H     0.04528   0.56883   0.89863   0.00000  Uiso   1.00
H33    H     0.94867   0.77588   0.78779   0.00000  Uiso   1.00
H34    H     0.11399   0.80757   0.96598   0.00000  Uiso   1.00
H35    H     0.07656   0.40352   0.89886   0.00000  Uiso   1.00
H36    H     0.87287   0.84013   0.66516   0.00000  Uiso   1.00
H37    H     0.22147   0.90694   0.04091   0.00000  Uiso   1.00
O38    O     0.17315   0.30329   0.84024   0.00000  Uiso   1.00
O39    O     0.90591   0.87611   0.53364   0.00000  Uiso   1.00
O40    O     0.36327   0.96377   0.02661   0.00000  Uiso   1.00
N41    N     0.21447   0.42010   0.79209   0.00000  Uiso   1.00
N42    N     0.02402   0.82828   0.57359   0.00000  Uiso   1.00
N43    N     0.34993   0.89077   0.92487   0.00000  Uiso   1.00
N44    N     0.11710   0.42277   0.86541   0.00000  Uiso   1.00
N45    N     0.92665   0.83095   0.64691   0.00000  Uiso   1.00
N46    N     0.25255   0.89344   0.99820   0.00000  Uiso   1.00
C47    C     0.79526   0.28721   0.75709   0.00000  Uiso   1.00
C48    C     0.81637   0.36722   0.78466   0.00000  Uiso   1.00
C49    C     0.77988   0.43598   0.76700   0.00000  Uiso   1.00
C50    C     0.80782   0.50307   0.79785   0.00000  Uiso   1.00
C51    C     0.83116   0.62757   0.83352   0.00000  Uiso   1.00
C52    C     0.86886   0.25474   0.72444   0.00000  Uiso   1.00
C53    C     0.87650   0.22891   0.65614   0.00000  Uiso   1.00
C54    C     0.94864   0.20129   0.63630   0.00000  Uiso   1.00
C55    C     0.05346   0.15110   0.57848   0.00000  Uiso   1.00
C56    C     0.77904   0.23753   0.82125   0.00000  Uiso   1.00
C57    C     0.71116   0.19721   0.83435   0.00000  Uiso   1.00
C58    C     0.70768   0.15508   0.89603   0.00000  Uiso   1.00
C59    C     0.67303   0.07817   0.98853   0.00000  Uiso   1.00
C60    C     0.90978   0.28407   0.84332   0.00000  Uiso   1.00
C61    C     0.87857   0.36551   0.83150   0.00000  Uiso   1.00
C62    C     0.90658   0.43251   0.86239   0.00000  Uiso   1.00
C63    C     0.87013   0.50136   0.84478   0.00000  Uiso   1.00
C64    C     0.93107   0.25303   0.77127   0.00000  Uiso   1.00
C65    C     0.00321   0.22543   0.75153   0.00000  Uiso   1.00
C66    C     0.01096   0.19958   0.68322   0.00000  Uiso   1.00
C67    C     0.84124   0.23582   0.86809   0.00000  Uiso   1.00
C68    C     0.83786   0.19374   0.92975   0.00000  Uiso   1.00
C69    C     0.76999   0.15337   0.94294   0.00000  Uiso   1.00
H70    H     0.74684   0.28854   0.72063   0.00000  Uiso   1.00
H71    H     0.73175   0.43728   0.73074   0.00000  Uiso   1.00
H72    H     0.82836   0.23023   0.61991   0.00000  Uiso   1.00
H73    H     0.66304   0.19855   0.79810   0.00000  Uiso   1.00
H74    H     0.74246   0.60144   0.76260   0.00000  Uiso   1.00
H75    H     0.94616   0.16484   0.52890   0.00000  Uiso   1.00
H76    H     0.59756   0.09802   0.90464   0.00000  Uiso   1.00
H77    H     0.95821   0.28274   0.87978   0.00000  Uiso   1.00
H78    H     0.95472   0.43117   0.89863   0.00000  Uiso   1.00
H79    H     0.05133   0.22412   0.78779   0.00000  Uiso   1.00
H80    H     0.88601   0.19243   0.96598   0.00000  Uiso   1.00
H81    H     0.92344   0.59648   0.89886   0.00000  Uiso   1.00
H82    H     0.12713   0.15987   0.66516   0.00000  Uiso   1.00
H83    H     0.77853   0.09306   0.04091   0.00000  Uiso   1.00
O84    O     0.82685   0.69671   0.84024   0.00000  Uiso   1.00
O85    O     0.09409   0.12389   0.53364   0.00000  Uiso   1.00
O86    O     0.63673   0.03623   0.02661   0.00000  Uiso   1.00
N87    N     0.78553   0.57990   0.79209   0.00000  Uiso   1.00
N88    N     0.97598   0.17172   0.57359   0.00000  Uiso   1.00
N89    N     0.65007   0.10923   0.92487   0.00000  Uiso   1.00
N90    N     0.88290   0.57723   0.86541   0.00000  Uiso   1.00
N91    N     0.07335   0.16905   0.64691   0.00000  Uiso   1.00
N92    N     0.74745   0.10656   0.99820   0.00000  Uiso   1.00
C93    C     0.71279   0.79526   0.24291   0.00000  Uiso   1.00
C94    C     0.63278   0.81637   0.21534   0.00000  Uiso   1.00
C95    C     0.56402   0.77988   0.23300   0.00000  Uiso   1.00
C96    C     0.49693   0.80782   0.20215   0.00000  Uiso   1.00
C97    C     0.37243   0.83116   0.16648   0.00000  Uiso   1.00
C98    C     0.74526   0.86886   0.27556   0.00000  Uiso   1.00
C99    C     0.77109   0.87650   0.34386   0.00000  Uiso   1.00
C100   C     0.79871   0.94864   0.36370   0.00000  Uiso   1.00
C101   C     0.84890   0.05346   0.42152   0.00000  Uiso   1.00
C102   C     0.76247   0.77904   0.17875   0.00000  Uiso   1.00
C103   C     0.80279   0.71116   0.16565   0.00000  Uiso   1.00
C104   C     0.84492   0.70768   0.10397   0.00000  Uiso   1.00
C105   C     0.92183   0.67303   0.01147   0.00000  Uiso   1.00
C106   C     0.71593   0.90978   0.15668   0.00000  Uiso   1.00
C107   C     0.63449   0.87857   0.16850   0.00000  Uiso   1.00
C108   C     0.56749   0.90658   0.13761   0.00000  Uiso   1.00
C109   C     0.49864   0.87013   0.15522   0.00000  Uiso   1.00
C110   C     0.74697   0.93107   0.22873   0.00000  Uiso   1.00
C111   C     0.77457   0.00321   0.24847   0.00000  Uiso   1.00
C112   C     0.80042   0.01096   0.31678   0.00000  Uiso   1.00
C113   C     0.76418   0.84124   0.13191   0.00000  Uiso   1.00
C114   C     0.80626   0.83786   0.07025   0.00000  Uiso   1.00
C115   C     0.84663   0.76999   0.05706   0.00000  Uiso   1.00
H116   H     0.71146   0.74684   0.27937   0.00000  Uiso   1.00
H117   H     0.56272   0.73175   0.26926   0.00000  Uiso   1.00
H118   H     0.76977   0.82836   0.38009   0.00000  Uiso   1.00
H119   H     0.80145   0.66304   0.20190   0.00000  Uiso   1.00
H120   H     0.39856   0.74246   0.23740   0.00000  Uiso   1.00
H121   H     0.83516   0.94616   0.47110   0.00000  Uiso   1.00
H122   H     0.90198   0.59756   0.09536   0.00000  Uiso   1.00
H123   H     0.71726   0.95821   0.12022   0.00000  Uiso   1.00
H124   H     0.56883   0.95472   0.10137   0.00000  Uiso   1.00
H125   H     0.77588   0.05133   0.21221   0.00000  Uiso   1.00
H126   H     0.80757   0.88601   0.03402   0.00000  Uiso   1.00
H127   H     0.40352   0.92344   0.10114   0.00000  Uiso   1.00
H128   H     0.84013   0.12713   0.33484   0.00000  Uiso   1.00
H129   H     0.90694   0.77853   0.95909   0.00000  Uiso   1.00
O130   O     0.30329   0.82685   0.15976   0.00000  Uiso   1.00
O131   O     0.87611   0.09409   0.46636   0.00000  Uiso   1.00
O132   O     0.96377   0.63673   0.97339   0.00000  Uiso   1.00
N133   N     0.42010   0.78553   0.20791   0.00000  Uiso   1.00
N134   N     0.82828   0.97598   0.42641   0.00000  Uiso   1.00
N135   N     0.89077   0.65007   0.07513   0.00000  Uiso   1.00
N136   N     0.42277   0.88290   0.13459   0.00000  Uiso   1.00
N137   N     0.83095   0.07335   0.35309   0.00000  Uiso   1.00
N138   N     0.89344   0.74745   0.00180   0.00000  Uiso   1.00
C139   C     0.28721   0.20474   0.24291   0.00000  Uiso   1.00
C140   C     0.36722   0.18363   0.21534   0.00000  Uiso   1.00
C141   C     0.43598   0.22012   0.23300   0.00000  Uiso   1.00
C142   C     0.50307   0.19218   0.20215   0.00000  Uiso   1.00
C143   C     0.62757   0.16884   0.16648   0.00000  Uiso   1.00
C144   C     0.25474   0.13114   0.27556   0.00000  Uiso   1.00
C145   C     0.22891   0.12350   0.34386   0.00000  Uiso   1.00
C146   C     0.20129   0.05136   0.36370   0.00000  Uiso   1.00
C147   C     0.15110   0.94654   0.42152   0.00000  Uiso   1.00
C148   C     0.23753   0.22096   0.17875   0.00000  Uiso   1.00
C149   C     0.19721   0.28884   0.16565   0.00000  Uiso   1.00
C150   C     0.15508   0.29232   0.10397   0.00000  Uiso   1.00
C151   C     0.07817   0.32697   0.01147   0.00000  Uiso   1.00
C152   C     0.28407   0.09022   0.15668   0.00000  Uiso   1.00
C153   C     0.36551   0.12143   0.16850   0.00000  Uiso   1.00
C154   C     0.43251   0.09342   0.13761   0.00000  Uiso   1.00
C155   C     0.50136   0.12987   0.15522   0.00000  Uiso   1.00
C156   C     0.25303   0.06893   0.22873   0.00000  Uiso   1.00
C157   C     0.22543   0.99679   0.24847   0.00000  Uiso   1.00
C158   C     0.19958   0.98904   0.31678   0.00000  Uiso   1.00
C159   C     0.23582   0.15876   0.13191   0.00000  Uiso   1.00
C160   C     0.19374   0.16214   0.07025   0.00000  Uiso   1.00
C161   C     0.15337   0.23001   0.05706   0.00000  Uiso   1.00
H162   H     0.28854   0.25316   0.27937   0.00000  Uiso   1.00
H163   H     0.43728   0.26825   0.26926   0.00000  Uiso   1.00
H164   H     0.23023   0.17164   0.38009   0.00000  Uiso   1.00
H165   H     0.19855   0.33696   0.20190   0.00000  Uiso   1.00
H166   H     0.60144   0.25754   0.23740   0.00000  Uiso   1.00
H167   H     0.16484   0.05384   0.47110   0.00000  Uiso   1.00
H168   H     0.09802   0.40244   0.09536   0.00000  Uiso   1.00
H169   H     0.28274   0.04179   0.12022   0.00000  Uiso   1.00
H170   H     0.43117   0.04528   0.10137   0.00000  Uiso   1.00
H171   H     0.22412   0.94867   0.21221   0.00000  Uiso   1.00
H172   H     0.19243   0.11399   0.03402   0.00000  Uiso   1.00
H173   H     0.59648   0.07656   0.10114   0.00000  Uiso   1.00
H174   H     0.15987   0.87287   0.33484   0.00000  Uiso   1.00
H175   H     0.09306   0.22147   0.95909   0.00000  Uiso   1.00
O176   O     0.69671   0.17315   0.15976   0.00000  Uiso   1.00
O177   O     0.12389   0.90591   0.46636   0.00000  Uiso   1.00
O178   O     0.03623   0.36327   0.97339   0.00000  Uiso   1.00
N179   N     0.57990   0.21447   0.20791   0.00000  Uiso   1.00
N180   N     0.17172   0.02402   0.42641   0.00000  Uiso   1.00
N181   N     0.10923   0.34993   0.07513   0.00000  Uiso   1.00
N182   N     0.57723   0.11710   0.13459   0.00000  Uiso   1.00
N183   N     0.16905   0.92665   0.35309   0.00000  Uiso   1.00
N184   N     0.10656   0.25255   0.00180   0.00000  Uiso   1.00
C185   C     0.29526   0.21279   0.74291   0.00000  Uiso   1.00
C186   C     0.31637   0.13278   0.71534   0.00000  Uiso   1.00
C187   C     0.27988   0.06402   0.73300   0.00000  Uiso   1.00
C188   C     0.30782   0.99693   0.70215   0.00000  Uiso   1.00
C189   C     0.33116   0.87243   0.66648   0.00000  Uiso   1.00
C190   C     0.36886   0.24526   0.77556   0.00000  Uiso   1.00
C191   C     0.37650   0.27109   0.84386   0.00000  Uiso   1.00
C192   C     0.44864   0.29871   0.86370   0.00000  Uiso   1.00
C193   C     0.55346   0.34890   0.92152   0.00000  Uiso   1.00
C194   C     0.27904   0.26247   0.67875   0.00000  Uiso   1.00
C195   C     0.21116   0.30279   0.66565   0.00000  Uiso   1.00
C196   C     0.20768   0.34492   0.60397   0.00000  Uiso   1.00
C197   C     0.17303   0.42183   0.51147   0.00000  Uiso   1.00
C198   C     0.40978   0.21593   0.65668   0.00000  Uiso   1.00
C199   C     0.37857   0.13449   0.66850   0.00000  Uiso   1.00
C200   C     0.40658   0.06749   0.63761   0.00000  Uiso   1.00
C201   C     0.37013   0.99864   0.65522   0.00000  Uiso   1.00
C202   C     0.43107   0.24697   0.72873   0.00000  Uiso   1.00
C203   C     0.50321   0.27457   0.74847   0.00000  Uiso   1.00
C204   C     0.51096   0.30042   0.81678   0.00000  Uiso   1.00
C205   C     0.34124   0.26418   0.63191   0.00000  Uiso   1.00
C206   C     0.33786   0.30626   0.57025   0.00000  Uiso   1.00
C207   C     0.26999   0.34663   0.55706   0.00000  Uiso   1.00
H208   H     0.24684   0.21146   0.77937   0.00000  Uiso   1.00
H209   H     0.23175   0.06272   0.76926   0.00000  Uiso   1.00
H210   H     0.32836   0.26977   0.88009   0.00000  Uiso   1.00
H211   H     0.16304   0.30145   0.70190   0.00000  Uiso   1.00
H212   H     0.24246   0.89856   0.73740   0.00000  Uiso   1.00
H213   H     0.44616   0.33516   0.97110   0.00000  Uiso   1.00
H214   H     0.09756   0.40198   0.59536   0.00000  Uiso   1.00
H215   H     0.45821   0.21726   0.62022   0.00000  Uiso   1.00
H216   H     0.45472   0.06883   0.60137   0.00000  Uiso   1.00
H217   H     0.55133   0.27588   0.71221   0.00000  Uiso   1.00
H218   H     0.38601   0.30757   0.53402   0.00000  Uiso   1.00
H219   H     0.42344   0.90352   0.60114   0.00000  Uiso   1.00
H220   H     0.62713   0.34013   0.83484   0.00000  Uiso   1.00
H221   H     0.27853   0.40694   0.45909   0.00000  Uiso   1.00
O222   O     0.32685   0.80329   0.65976   0.00000  Uiso   1.00
O223   O     0.59409   0.37611   0.96636   0.00000  Uiso   1.00
O224   O     0.13673   0.46377   0.47339   0.00000  Uiso   1.00
N225   N     0.28553   0.92010   0.70791   0.00000  Uiso   1.00
N226   N     0.47598   0.32828   0.92641   0.00000  Uiso   1.00
N227   N     0.15007   0.39077   0.57513   0.00000  Uiso   1.00
N228   N     0.38290   0.92277   0.63459   0.00000  Uiso   1.00
N229   N     0.57335   0.33095   0.85309   0.00000  Uiso   1.00
N230   N     0.24745   0.39344   0.50180   0.00000  Uiso   1.00
C231   C     0.70474   0.78721   0.74291   0.00000  Uiso   1.00
C232   C     0.68363   0.86722   0.71534   0.00000  Uiso   1.00
C233   C     0.72012   0.93598   0.73300   0.00000  Uiso   1.00
C234   C     0.69218   0.00307   0.70215   0.00000  Uiso   1.00
C235   C     0.66884   0.12757   0.66648   0.00000  Uiso   1.00
C236   C     0.63114   0.75474   0.77556   0.00000  Uiso   1.00
C237   C     0.62350   0.72891   0.84386   0.00000  Uiso   1.00
C238   C     0.55136   0.70129   0.86370   0.00000  Uiso   1.00
C239   C     0.44654   0.65110   0.92152   0.00000  Uiso   1.00
C240   C     0.72096   0.73753   0.67875   0.00000  Uiso   1.00
C241   C     0.78884   0.69721   0.66565   0.00000  Uiso   1.00
C242   C     0.79232   0.65508   0.60397   0.00000  Uiso   1.00
C243   C     0.82697   0.57817   0.51147   0.00000  Uiso   1.00
C244   C     0.59022   0.78407   0.65668   0.00000  Uiso   1.00
C245   C     0.62143   0.86551   0.66850   0.00000  Uiso   1.00
C246   C     0.59342   0.93251   0.63761   0.00000  Uiso   1.00
C247   C     0.62987   0.00136   0.65522   0.00000  Uiso   1.00
C248   C     0.56893   0.75303   0.72873   0.00000  Uiso   1.00
C249   C     0.49679   0.72543   0.74847   0.00000  Uiso   1.00
C250   C     0.48904   0.69958   0.81678   0.00000  Uiso   1.00
C251   C     0.65876   0.73582   0.63191   0.00000  Uiso   1.00
C252   C     0.66214   0.69374   0.57025   0.00000  Uiso   1.00
C253   C     0.73001   0.65337   0.55706   0.00000  Uiso   1.00
H254   H     0.75316   0.78854   0.77937   0.00000  Uiso   1.00
H255   H     0.76825   0.93728   0.76926   0.00000  Uiso   1.00
H256   H     0.67164   0.73023   0.88009   0.00000  Uiso   1.00
H257   H     0.83696   0.69855   0.70190   0.00000  Uiso   1.00
H258   H     0.75754   0.10144   0.73740   0.00000  Uiso   1.00
H259   H     0.55384   0.66484   0.97110   0.00000  Uiso   1.00
H260   H     0.90244   0.59802   0.59536   0.00000  Uiso   1.00
H261   H     0.54179   0.78274   0.62022   0.00000  Uiso   1.00
H262   H     0.54528   0.93117   0.60137   0.00000  Uiso   1.00
H263   H     0.44867   0.72412   0.71221   0.00000  Uiso   1.00
H264   H     0.61399   0.69243   0.53402   0.00000  Uiso   1.00
H265   H     0.57656   0.09648   0.60114   0.00000  Uiso   1.00
H266   H     0.37287   0.65987   0.83484   0.00000  Uiso   1.00
H267   H     0.72147   0.59306   0.45909   0.00000  Uiso   1.00
O268   O     0.67315   0.19671   0.65976   0.00000  Uiso   1.00
O269   O     0.40591   0.62389   0.96636   0.00000  Uiso   1.00
O270   O     0.86327   0.53623   0.47339   0.00000  Uiso   1.00
N271   N     0.71447   0.07990   0.70791   0.00000  Uiso   1.00
N272   N     0.52402   0.67172   0.92641   0.00000  Uiso   1.00
N273   N     0.84993   0.60923   0.57513   0.00000  Uiso   1.00
N274   N     0.61710   0.07723   0.63459   0.00000  Uiso   1.00
N275   N     0.42665   0.66905   0.85309   0.00000  Uiso   1.00
N276   N     0.75255   0.60656   0.50180   0.00000  Uiso   1.00
C277   C     0.78721   0.29526   0.25709   0.00000  Uiso   1.00
C278   C     0.86722   0.31637   0.28466   0.00000  Uiso   1.00
C279   C     0.93598   0.27988   0.26700   0.00000  Uiso   1.00
C280   C     0.00307   0.30782   0.29785   0.00000  Uiso   1.00
C281   C     0.12757   0.33116   0.33352   0.00000  Uiso   1.00
C282   C     0.75474   0.36886   0.22444   0.00000  Uiso   1.00
C283   C     0.72891   0.37650   0.15614   0.00000  Uiso   1.00
C284   C     0.70129   0.44864   0.13630   0.00000  Uiso   1.00
C285   C     0.65110   0.55346   0.07848   0.00000  Uiso   1.00
C286   C     0.73753   0.27904   0.32125   0.00000  Uiso   1.00
C287   C     0.69721   0.21116   0.33435   0.00000  Uiso   1.00
C288   C     0.65508   0.20768   0.39603   0.00000  Uiso   1.00
C289   C     0.57817   0.17303   0.48853   0.00000  Uiso   1.00
C290   C     0.78407   0.40978   0.34332   0.00000  Uiso   1.00
C291   C     0.86551   0.37857   0.33150   0.00000  Uiso   1.00
C292   C     0.93251   0.40658   0.36239   0.00000  Uiso   1.00
C293   C     0.00136   0.37013   0.34478   0.00000  Uiso   1.00
C294   C     0.75303   0.43107   0.27127   0.00000  Uiso   1.00
C295   C     0.72543   0.50321   0.25153   0.00000  Uiso   1.00
C296   C     0.69958   0.51096   0.18322   0.00000  Uiso   1.00
C297   C     0.73582   0.34124   0.36809   0.00000  Uiso   1.00
C298   C     0.69374   0.33786   0.42975   0.00000  Uiso   1.00
C299   C     0.65337   0.26999   0.44294   0.00000  Uiso   1.00
H300   H     0.78854   0.24684   0.22063   0.00000  Uiso   1.00
H301   H     0.93728   0.23175   0.23074   0.00000  Uiso   1.00
H302   H     0.73023   0.32836   0.11991   0.00000  Uiso   1.00
H303   H     0.69855   0.16304   0.29810   0.00000  Uiso   1.00
H304   H     0.10144   0.24246   0.26260   0.00000  Uiso   1.00
H305   H     0.66484   0.44616   0.02890   0.00000  Uiso   1.00
H306   H     0.59802   0.09756   0.40464   0.00000  Uiso   1.00
H307   H     0.78274   0.45821   0.37978   0.00000  Uiso   1.00
H308   H     0.93117   0.45472   0.39863   0.00000  Uiso   1.00
H309   H     0.72412   0.55133   0.28779   0.00000  Uiso   1.00
H310   H     0.69243   0.38601   0.46598   0.00000  Uiso   1.00
H311   H     0.09648   0.42344   0.39886   0.00000  Uiso   1.00
H312   H     0.65987   0.62713   0.16516   0.00000  Uiso   1.00
H313   H     0.59306   0.27853   0.54091   0.00000  Uiso   1.00
O314   O     0.19671   0.32685   0.34024   0.00000  Uiso   1.00
O315   O     0.62389   0.59409   0.03364   0.00000  Uiso   1.00
O316   O     0.53623   0.13673   0.52661   0.00000  Uiso   1.00
N317   N     0.07990   0.28553   0.29209   0.00000  Uiso   1.00
N318   N     0.67172   0.47598   0.07359   0.00000  Uiso   1.00
N319   N     0.60923   0.15007   0.42487   0.00000  Uiso   1.00
N320   N     0.07723   0.38290   0.36541   0.00000  Uiso   1.00
N321   N     0.66905   0.57335   0.14691   0.00000  Uiso   1.00
N322   N     0.60656   0.24745   0.49820   0.00000  Uiso   1.00
C323   C     0.21279   0.70474   0.25709   0.00000  Uiso   1.00
C324   C     0.13278   0.68363   0.28466   0.00000  Uiso   1.00
C325   C     0.06402   0.72012   0.26700   0.00000  Uiso   1.00
C326   C     0.99693   0.69218   0.29785   0.00000  Uiso   1.00
C327   C     0.87243   0.66884   0.33352   0.00000  Uiso   1.00
C328   C     0.24526   0.63114   0.22444   0.00000  Uiso   1.00
C329   C     0.27109   0.62350   0.15614   0.00000  Uiso   1.00
C330   C     0.29871   0.55136   0.13630   0.00000  Uiso   1.00
C331   C     0.34890   0.44654   0.07848   0.00000  Uiso   1.00
C332   C     0.26247   0.72096   0.32125   0.00000  Uiso   1.00
C333   C     0.30279   0.78884   0.33435   0.00000  Uiso   1.00
C334   C     0.34492   0.79232   0.39603   0.00000  Uiso   1.00
C335   C     0.42183   0.82697   0.48853   0.00000  Uiso   1.00
C336   C     0.21593   0.59022   0.34332   0.00000  Uiso   1.00
C337   C     0.13449   0.62143   0.33150   0.00000  Uiso   1.00
C338   C     0.06749   0.59342   0.36239   0.00000  Uiso   1.00
C339   C     0.99864   0.62987   0.34478   0.00000  Uiso   1.00
C340   C     0.24697   0.56893   0.27127   0.00000  Uiso   1.00
C341   C     0.27457   0.49679   0.25153   0.00000  Uiso   1.00
C342   C     0.30042   0.48904   0.18322   0.00000  Uiso   1.00
C343   C     0.26418   0.65876   0.36809   0.00000  Uiso   1.00
C344   C     0.30626   0.66214   0.42975   0.00000  Uiso   1.00
C345   C     0.34663   0.73001   0.44294   0.00000  Uiso   1.00
H346   H     0.21146   0.75316   0.22063   0.00000  Uiso   1.00
H347   H     0.06272   0.76825   0.23074   0.00000  Uiso   1.00
H348   H     0.26977   0.67164   0.11991   0.00000  Uiso   1.00
H349   H     0.30145   0.83696   0.29810   0.00000  Uiso   1.00
H350   H     0.89856   0.75754   0.26260   0.00000  Uiso   1.00
H351   H     0.33516   0.55384   0.02890   0.00000  Uiso   1.00
H352   H     0.40198   0.90244   0.40464   0.00000  Uiso   1.00
H353   H     0.21726   0.54179   0.37978   0.00000  Uiso   1.00
H354   H     0.06883   0.54528   0.39863   0.00000  Uiso   1.00
H355   H     0.27588   0.44867   0.28779   0.00000  Uiso   1.00
H356   H     0.30757   0.61399   0.46598   0.00000  Uiso   1.00
H357   H     0.90352   0.57656   0.39886   0.00000  Uiso   1.00
H358   H     0.34013   0.37287   0.16516   0.00000  Uiso   1.00
H359   H     0.40694   0.72147   0.54091   0.00000  Uiso   1.00
O360   O     0.80329   0.67315   0.34024   0.00000  Uiso   1.00
O361   O     0.37611   0.40591   0.03364   0.00000  Uiso   1.00
O362   O     0.46377   0.86327   0.52661   0.00000  Uiso   1.00
N363   N     0.92010   0.71447   0.29209   0.00000  Uiso   1.00
N364   N     0.32828   0.52402   0.07359   0.00000  Uiso   1.00
N365   N     0.39077   0.84993   0.42487   0.00000  Uiso   1.00
N366   N     0.92277   0.61710   0.36541   0.00000  Uiso   1.00
N367   N     0.33095   0.42665   0.14691   0.00000  Uiso   1.00
N368   N     0.39344   0.75255   0.49820   0.00000  Uiso   1.00
