data_job_05270
_audit_creation_date              2018-12-19
_audit_creation_method            'Materials Studio'
_symmetry_space_group_name_H-M    'P1'
_symmetry_Int_Tables_number       1
_symmetry_cell_setting            triclinic
loop_
_symmetry_equiv_pos_as_xyz
  x,y,z
_cell_length_a                    19.9669
_cell_length_b                    19.9669
_cell_length_c                    10.9256
_cell_angle_alpha                 90.0000
_cell_angle_beta                  90.0000
_cell_angle_gamma                 90.0000
loop_
_atom_site_label
_atom_site_type_symbol
_atom_site_fract_x
_atom_site_fract_y
_atom_site_fract_z
_atom_site_U_iso_or_equiv
_atom_site_adp_type
_atom_site_occupancy
C1     C     0.56606   0.67921   0.38289   0.00000  Uiso   1.00
C2     C     0.62105   0.70592   0.29924   0.00000  Uiso   1.00
C3     C     0.68494   0.67934   0.28738   0.00000  Uiso   1.00
C4     C     0.72793   0.71103   0.20601   0.00000  Uiso   1.00
C5     C     0.81641   0.74397   0.08636   0.00000  Uiso   1.00
C6     C     0.54549   0.73769   0.46443   0.00000  Uiso   1.00
C7     C     0.54584   0.73780   0.59145   0.00000  Uiso   1.00
C8     C     0.52522   0.79623   0.64913   0.00000  Uiso   1.00
C9     C     0.49635   0.87847   0.78594   0.00000  Uiso   1.00
C10    C     0.50610   0.66500   0.30044   0.00000  Uiso   1.00
C11    C     0.47332   0.60400   0.28961   0.00000  Uiso   1.00
C12    C     0.41952   0.60123   0.20925   0.00000  Uiso   1.00
C13    C     0.32948   0.57060   0.09144   0.00000  Uiso   1.00
C14    C     0.52880   0.78277   0.25947   0.00000  Uiso   1.00
C15    C     0.60081   0.76218   0.23221   0.00000  Uiso   1.00
C16    C     0.64371   0.79391   0.15083   0.00000  Uiso   1.00
C17    C     0.70766   0.76738   0.13885   0.00000  Uiso   1.00
C18    C     0.52525   0.79394   0.39739   0.00000  Uiso   1.00
C19    C     0.50462   0.85238   0.45490   0.00000  Uiso   1.00
C20    C     0.50495   0.85258   0.58197   0.00000  Uiso   1.00
C21    C     0.48586   0.72125   0.23340   0.00000  Uiso   1.00
C22    C     0.43210   0.71858   0.15305   0.00000  Uiso   1.00
C23    C     0.39924   0.65758   0.14209   0.00000  Uiso   1.00
H24    H     0.58181   0.63542   0.43509   0.00000  Uiso   1.00
H25    H     0.70058   0.63581   0.33929   0.00000  Uiso   1.00
H26    H     0.56150   0.69426   0.64330   0.00000  Uiso   1.00
H27    H     0.48899   0.56048   0.34150   0.00000  Uiso   1.00
H28    H     0.82334   0.66106   0.20354   0.00000  Uiso   1.00
H29    H     0.53006   0.78430   0.84458   0.00000  Uiso   1.00
H30    H     0.37716   0.50219   0.20817   0.00000  Uiso   1.00
H31    H     0.51304   0.82657   0.20728   0.00000  Uiso   1.00
H32    H     0.62804   0.83744   0.09896   0.00000  Uiso   1.00
H33    H     0.48896   0.89590   0.40299   0.00000  Uiso   1.00
H34    H     0.41645   0.76212   0.10119   0.00000  Uiso   1.00
H35    H     0.76447   0.82471   0.00849   0.00000  Uiso   1.00
H36    H     0.47119   0.94796   0.64953   0.00000  Uiso   1.00
H37    H     0.31828   0.66585   0.01312   0.00000  Uiso   1.00
O38    O     0.87080   0.74660   0.03890   0.00000  Uiso   1.00
O39    O     0.48602   0.90829   0.87992   0.00000  Uiso   1.00
O40    O     0.28542   0.53817   0.04497   0.00000  Uiso   1.00
N41    N     0.79370   0.69807   0.17248   0.00000  Uiso   1.00
N42    N     0.51951   0.81330   0.77181   0.00000  Uiso   1.00
N43    N     0.37655   0.54956   0.17685   0.00000  Uiso   1.00
N44    N     0.76202   0.78614   0.06752   0.00000  Uiso   1.00
N45    N     0.48783   0.90137   0.66686   0.00000  Uiso   1.00
N46    N     0.34487   0.63762   0.07190   0.00000  Uiso   1.00
C47    C     0.43394   0.32079   0.38289   0.00000  Uiso   1.00
C48    C     0.37895   0.29408   0.29924   0.00000  Uiso   1.00
C49    C     0.31506   0.32066   0.28738   0.00000  Uiso   1.00
C50    C     0.27207   0.28897   0.20601   0.00000  Uiso   1.00
C51    C     0.18359   0.25603   0.08636   0.00000  Uiso   1.00
C52    C     0.45451   0.26231   0.46443   0.00000  Uiso   1.00
C53    C     0.45416   0.26220   0.59145   0.00000  Uiso   1.00
C54    C     0.47478   0.20377   0.64913   0.00000  Uiso   1.00
C55    C     0.50365   0.12153   0.78594   0.00000  Uiso   1.00
C56    C     0.49390   0.33500   0.30044   0.00000  Uiso   1.00
C57    C     0.52668   0.39600   0.28961   0.00000  Uiso   1.00
C58    C     0.58048   0.39877   0.20925   0.00000  Uiso   1.00
C59    C     0.67052   0.42940   0.09144   0.00000  Uiso   1.00
C60    C     0.47120   0.21723   0.25947   0.00000  Uiso   1.00
C61    C     0.39919   0.23782   0.23221   0.00000  Uiso   1.00
C62    C     0.35629   0.20609   0.15083   0.00000  Uiso   1.00
C63    C     0.29234   0.23262   0.13885   0.00000  Uiso   1.00
C64    C     0.47475   0.20606   0.39739   0.00000  Uiso   1.00
C65    C     0.49538   0.14762   0.45490   0.00000  Uiso   1.00
C66    C     0.49505   0.14742   0.58197   0.00000  Uiso   1.00
C67    C     0.51414   0.27875   0.23340   0.00000  Uiso   1.00
C68    C     0.56790   0.28142   0.15305   0.00000  Uiso   1.00
C69    C     0.60076   0.34242   0.14209   0.00000  Uiso   1.00
H70    H     0.41819   0.36458   0.43509   0.00000  Uiso   1.00
H71    H     0.29942   0.36419   0.33929   0.00000  Uiso   1.00
H72    H     0.43850   0.30574   0.64330   0.00000  Uiso   1.00
H73    H     0.51101   0.43952   0.34150   0.00000  Uiso   1.00
H74    H     0.17666   0.33894   0.20354   0.00000  Uiso   1.00
H75    H     0.46994   0.21570   0.84458   0.00000  Uiso   1.00
H76    H     0.62284   0.49781   0.20817   0.00000  Uiso   1.00
H77    H     0.48696   0.17343   0.20728   0.00000  Uiso   1.00
H78    H     0.37196   0.16256   0.09896   0.00000  Uiso   1.00
H79    H     0.51104   0.10410   0.40299   0.00000  Uiso   1.00
H80    H     0.58355   0.23788   0.10119   0.00000  Uiso   1.00
H81    H     0.23553   0.17529   0.00849   0.00000  Uiso   1.00
H82    H     0.52881   0.05204   0.64953   0.00000  Uiso   1.00
H83    H     0.68172   0.33415   0.01312   0.00000  Uiso   1.00
O84    O     0.12920   0.25340   0.03890   0.00000  Uiso   1.00
O85    O     0.51398   0.09171   0.87992   0.00000  Uiso   1.00
O86    O     0.71458   0.46183   0.04497   0.00000  Uiso   1.00
N87    N     0.20630   0.30193   0.17248   0.00000  Uiso   1.00
N88    N     0.48049   0.18670   0.77181   0.00000  Uiso   1.00
N89    N     0.62345   0.45044   0.17685   0.00000  Uiso   1.00
N90    N     0.23798   0.21386   0.06752   0.00000  Uiso   1.00
N91    N     0.51217   0.09863   0.66686   0.00000  Uiso   1.00
N92    N     0.65513   0.36238   0.07190   0.00000  Uiso   1.00
C93    C     0.67921   0.43394   0.61711   0.00000  Uiso   1.00
C94    C     0.70592   0.37895   0.70076   0.00000  Uiso   1.00
C95    C     0.67934   0.31506   0.71262   0.00000  Uiso   1.00
C96    C     0.71103   0.27207   0.79399   0.00000  Uiso   1.00
C97    C     0.74397   0.18359   0.91364   0.00000  Uiso   1.00
C98    C     0.73769   0.45451   0.53557   0.00000  Uiso   1.00
C99    C     0.73780   0.45416   0.40855   0.00000  Uiso   1.00
C100   C     0.79623   0.47478   0.35087   0.00000  Uiso   1.00
C101   C     0.87847   0.50365   0.21406   0.00000  Uiso   1.00
C102   C     0.66500   0.49390   0.69956   0.00000  Uiso   1.00
C103   C     0.60400   0.52668   0.71039   0.00000  Uiso   1.00
C104   C     0.60123   0.58048   0.79075   0.00000  Uiso   1.00
C105   C     0.57060   0.67052   0.90856   0.00000  Uiso   1.00
C106   C     0.78277   0.47120   0.74053   0.00000  Uiso   1.00
C107   C     0.76218   0.39919   0.76779   0.00000  Uiso   1.00
C108   C     0.79391   0.35629   0.84917   0.00000  Uiso   1.00
C109   C     0.76738   0.29234   0.86115   0.00000  Uiso   1.00
C110   C     0.79394   0.47475   0.60261   0.00000  Uiso   1.00
C111   C     0.85238   0.49538   0.54510   0.00000  Uiso   1.00
C112   C     0.85258   0.49505   0.41803   0.00000  Uiso   1.00
C113   C     0.72125   0.51414   0.76660   0.00000  Uiso   1.00
C114   C     0.71858   0.56790   0.84695   0.00000  Uiso   1.00
C115   C     0.65758   0.60076   0.85791   0.00000  Uiso   1.00
H116   H     0.63542   0.41819   0.56491   0.00000  Uiso   1.00
H117   H     0.63581   0.29942   0.66071   0.00000  Uiso   1.00
H118   H     0.69426   0.43850   0.35670   0.00000  Uiso   1.00
H119   H     0.56048   0.51101   0.65850   0.00000  Uiso   1.00
H120   H     0.66106   0.17666   0.79646   0.00000  Uiso   1.00
H121   H     0.78430   0.46994   0.15542   0.00000  Uiso   1.00
H122   H     0.50219   0.62284   0.79183   0.00000  Uiso   1.00
H123   H     0.82657   0.48696   0.79272   0.00000  Uiso   1.00
H124   H     0.83744   0.37196   0.90104   0.00000  Uiso   1.00
H125   H     0.89590   0.51104   0.59701   0.00000  Uiso   1.00
H126   H     0.76212   0.58355   0.89881   0.00000  Uiso   1.00
H127   H     0.82471   0.23553   0.99151   0.00000  Uiso   1.00
H128   H     0.94796   0.52881   0.35047   0.00000  Uiso   1.00
H129   H     0.66585   0.68172   0.98688   0.00000  Uiso   1.00
O130   O     0.74660   0.12920   0.96110   0.00000  Uiso   1.00
O131   O     0.90829   0.51398   0.12008   0.00000  Uiso   1.00
O132   O     0.53817   0.71458   0.95503   0.00000  Uiso   1.00
N133   N     0.69807   0.20630   0.82752   0.00000  Uiso   1.00
N134   N     0.81330   0.48049   0.22819   0.00000  Uiso   1.00
N135   N     0.54956   0.62345   0.82315   0.00000  Uiso   1.00
N136   N     0.78614   0.23798   0.93248   0.00000  Uiso   1.00
N137   N     0.90137   0.51217   0.33314   0.00000  Uiso   1.00
N138   N     0.63762   0.65513   0.92810   0.00000  Uiso   1.00
C139   C     0.32079   0.56606   0.61711   0.00000  Uiso   1.00
C140   C     0.29408   0.62105   0.70076   0.00000  Uiso   1.00
C141   C     0.32066   0.68494   0.71262   0.00000  Uiso   1.00
C142   C     0.28897   0.72793   0.79399   0.00000  Uiso   1.00
C143   C     0.25603   0.81641   0.91364   0.00000  Uiso   1.00
C144   C     0.26231   0.54549   0.53557   0.00000  Uiso   1.00
C145   C     0.26220   0.54584   0.40855   0.00000  Uiso   1.00
C146   C     0.20377   0.52522   0.35087   0.00000  Uiso   1.00
C147   C     0.12153   0.49635   0.21406   0.00000  Uiso   1.00
C148   C     0.33500   0.50610   0.69956   0.00000  Uiso   1.00
C149   C     0.39600   0.47332   0.71039   0.00000  Uiso   1.00
C150   C     0.39877   0.41952   0.79075   0.00000  Uiso   1.00
C151   C     0.42940   0.32948   0.90856   0.00000  Uiso   1.00
C152   C     0.21723   0.52880   0.74053   0.00000  Uiso   1.00
C153   C     0.23782   0.60081   0.76779   0.00000  Uiso   1.00
C154   C     0.20609   0.64371   0.84917   0.00000  Uiso   1.00
C155   C     0.23262   0.70766   0.86115   0.00000  Uiso   1.00
C156   C     0.20606   0.52525   0.60261   0.00000  Uiso   1.00
C157   C     0.14762   0.50462   0.54510   0.00000  Uiso   1.00
C158   C     0.14742   0.50495   0.41803   0.00000  Uiso   1.00
C159   C     0.27875   0.48586   0.76660   0.00000  Uiso   1.00
C160   C     0.28142   0.43210   0.84695   0.00000  Uiso   1.00
C161   C     0.34242   0.39924   0.85791   0.00000  Uiso   1.00
H162   H     0.36458   0.58181   0.56491   0.00000  Uiso   1.00
H163   H     0.36419   0.70058   0.66071   0.00000  Uiso   1.00
H164   H     0.30574   0.56150   0.35670   0.00000  Uiso   1.00
H165   H     0.43952   0.48899   0.65850   0.00000  Uiso   1.00
H166   H     0.33894   0.82334   0.79646   0.00000  Uiso   1.00
H167   H     0.21570   0.53006   0.15542   0.00000  Uiso   1.00
H168   H     0.49781   0.37716   0.79183   0.00000  Uiso   1.00
H169   H     0.17343   0.51304   0.79272   0.00000  Uiso   1.00
H170   H     0.16256   0.62804   0.90104   0.00000  Uiso   1.00
H171   H     0.10410   0.48896   0.59701   0.00000  Uiso   1.00
H172   H     0.23788   0.41645   0.89881   0.00000  Uiso   1.00
H173   H     0.17529   0.76447   0.99151   0.00000  Uiso   1.00
H174   H     0.05204   0.47119   0.35047   0.00000  Uiso   1.00
H175   H     0.33415   0.31828   0.98688   0.00000  Uiso   1.00
O176   O     0.25340   0.87080   0.96110   0.00000  Uiso   1.00
O177   O     0.09171   0.48602   0.12008   0.00000  Uiso   1.00
O178   O     0.46183   0.28542   0.95503   0.00000  Uiso   1.00
N179   N     0.30193   0.79370   0.82752   0.00000  Uiso   1.00
N180   N     0.18670   0.51951   0.22819   0.00000  Uiso   1.00
N181   N     0.45044   0.37655   0.82315   0.00000  Uiso   1.00
N182   N     0.21386   0.76202   0.93248   0.00000  Uiso   1.00
N183   N     0.09863   0.48783   0.33314   0.00000  Uiso   1.00
N184   N     0.36238   0.34487   0.92810   0.00000  Uiso   1.00
C185   C     0.93394   0.17921   0.11711   0.00000  Uiso   1.00
C186   C     0.87895   0.20592   0.20076   0.00000  Uiso   1.00
C187   C     0.81506   0.17934   0.21262   0.00000  Uiso   1.00
C188   C     0.77207   0.21103   0.29399   0.00000  Uiso   1.00
C189   C     0.68359   0.24397   0.41364   0.00000  Uiso   1.00
C190   C     0.95451   0.23769   0.03557   0.00000  Uiso   1.00
C191   C     0.95416   0.23780   0.90855   0.00000  Uiso   1.00
C192   C     0.97478   0.29623   0.85087   0.00000  Uiso   1.00
C193   C     0.00365   0.37847   0.71406   0.00000  Uiso   1.00
C194   C     0.99390   0.16500   0.19956   0.00000  Uiso   1.00
C195   C     0.02668   0.10400   0.21039   0.00000  Uiso   1.00
C196   C     0.08048   0.10123   0.29075   0.00000  Uiso   1.00
C197   C     0.17052   0.07060   0.40856   0.00000  Uiso   1.00
C198   C     0.97120   0.28277   0.24053   0.00000  Uiso   1.00
C199   C     0.89919   0.26218   0.26779   0.00000  Uiso   1.00
C200   C     0.85629   0.29391   0.34917   0.00000  Uiso   1.00
C201   C     0.79234   0.26738   0.36115   0.00000  Uiso   1.00
C202   C     0.97475   0.29394   0.10261   0.00000  Uiso   1.00
C203   C     0.99538   0.35238   0.04510   0.00000  Uiso   1.00
C204   C     0.99505   0.35258   0.91803   0.00000  Uiso   1.00
C205   C     0.01414   0.22125   0.26660   0.00000  Uiso   1.00
C206   C     0.06790   0.21858   0.34695   0.00000  Uiso   1.00
C207   C     0.10076   0.15758   0.35791   0.00000  Uiso   1.00
H208   H     0.91819   0.13542   0.06491   0.00000  Uiso   1.00
H209   H     0.79942   0.13581   0.16071   0.00000  Uiso   1.00
H210   H     0.93850   0.19426   0.85670   0.00000  Uiso   1.00
H211   H     0.01101   0.06048   0.15850   0.00000  Uiso   1.00
H212   H     0.67666   0.16106   0.29646   0.00000  Uiso   1.00
H213   H     0.96994   0.28430   0.65542   0.00000  Uiso   1.00
H214   H     0.12284   0.00219   0.29183   0.00000  Uiso   1.00
H215   H     0.98696   0.32657   0.29272   0.00000  Uiso   1.00
H216   H     0.87196   0.33744   0.40104   0.00000  Uiso   1.00
H217   H     0.01104   0.39590   0.09701   0.00000  Uiso   1.00
H218   H     0.08355   0.26212   0.39881   0.00000  Uiso   1.00
H219   H     0.73553   0.32471   0.49151   0.00000  Uiso   1.00
H220   H     0.02881   0.44796   0.85047   0.00000  Uiso   1.00
H221   H     0.18172   0.16585   0.48688   0.00000  Uiso   1.00
O222   O     0.62920   0.24660   0.46110   0.00000  Uiso   1.00
O223   O     0.01398   0.40829   0.62008   0.00000  Uiso   1.00
O224   O     0.21458   0.03817   0.45503   0.00000  Uiso   1.00
N225   N     0.70630   0.19807   0.32752   0.00000  Uiso   1.00
N226   N     0.98049   0.31330   0.72819   0.00000  Uiso   1.00
N227   N     0.12345   0.04956   0.32315   0.00000  Uiso   1.00
N228   N     0.73798   0.28614   0.43248   0.00000  Uiso   1.00
N229   N     0.01217   0.40137   0.83314   0.00000  Uiso   1.00
N230   N     0.15513   0.13762   0.42810   0.00000  Uiso   1.00
C231   C     0.06606   0.82079   0.11711   0.00000  Uiso   1.00
C232   C     0.12105   0.79408   0.20076   0.00000  Uiso   1.00
C233   C     0.18494   0.82066   0.21262   0.00000  Uiso   1.00
C234   C     0.22793   0.78897   0.29399   0.00000  Uiso   1.00
C235   C     0.31641   0.75603   0.41364   0.00000  Uiso   1.00
C236   C     0.04549   0.76231   0.03557   0.00000  Uiso   1.00
C237   C     0.04584   0.76220   0.90855   0.00000  Uiso   1.00
C238   C     0.02522   0.70377   0.85087   0.00000  Uiso   1.00
C239   C     0.99635   0.62153   0.71406   0.00000  Uiso   1.00
C240   C     0.00610   0.83500   0.19956   0.00000  Uiso   1.00
C241   C     0.97332   0.89600   0.21039   0.00000  Uiso   1.00
C242   C     0.91952   0.89877   0.29075   0.00000  Uiso   1.00
C243   C     0.82948   0.92940   0.40856   0.00000  Uiso   1.00
C244   C     0.02880   0.71723   0.24053   0.00000  Uiso   1.00
C245   C     0.10081   0.73782   0.26779   0.00000  Uiso   1.00
C246   C     0.14371   0.70609   0.34917   0.00000  Uiso   1.00
C247   C     0.20766   0.73262   0.36115   0.00000  Uiso   1.00
C248   C     0.02525   0.70606   0.10261   0.00000  Uiso   1.00
C249   C     0.00462   0.64762   0.04510   0.00000  Uiso   1.00
C250   C     0.00495   0.64742   0.91803   0.00000  Uiso   1.00
C251   C     0.98586   0.77875   0.26660   0.00000  Uiso   1.00
C252   C     0.93210   0.78142   0.34695   0.00000  Uiso   1.00
C253   C     0.89924   0.84242   0.35791   0.00000  Uiso   1.00
H254   H     0.08181   0.86458   0.06491   0.00000  Uiso   1.00
H255   H     0.20058   0.86419   0.16071   0.00000  Uiso   1.00
H256   H     0.06150   0.80574   0.85670   0.00000  Uiso   1.00
H257   H     0.98899   0.93952   0.15850   0.00000  Uiso   1.00
H258   H     0.32334   0.83894   0.29646   0.00000  Uiso   1.00
H259   H     0.03006   0.71570   0.65542   0.00000  Uiso   1.00
H260   H     0.87716   0.99781   0.29183   0.00000  Uiso   1.00
H261   H     0.01304   0.67343   0.29272   0.00000  Uiso   1.00
H262   H     0.12804   0.66256   0.40104   0.00000  Uiso   1.00
H263   H     0.98896   0.60410   0.09701   0.00000  Uiso   1.00
H264   H     0.91645   0.73788   0.39881   0.00000  Uiso   1.00
H265   H     0.26447   0.67529   0.49151   0.00000  Uiso   1.00
H266   H     0.97119   0.55204   0.85047   0.00000  Uiso   1.00
H267   H     0.81828   0.83415   0.48688   0.00000  Uiso   1.00
O268   O     0.37080   0.75340   0.46110   0.00000  Uiso   1.00
O269   O     0.98602   0.59171   0.62008   0.00000  Uiso   1.00
O270   O     0.78542   0.96183   0.45503   0.00000  Uiso   1.00
N271   N     0.29370   0.80193   0.32752   0.00000  Uiso   1.00
N272   N     0.01951   0.68670   0.72819   0.00000  Uiso   1.00
N273   N     0.87655   0.95044   0.32315   0.00000  Uiso   1.00
N274   N     0.26202   0.71386   0.43248   0.00000  Uiso   1.00
N275   N     0.98783   0.59863   0.83314   0.00000  Uiso   1.00
N276   N     0.84487   0.86238   0.42810   0.00000  Uiso   1.00
C277   C     0.82079   0.93394   0.88289   0.00000  Uiso   1.00
C278   C     0.79408   0.87895   0.79924   0.00000  Uiso   1.00
C279   C     0.82066   0.81506   0.78738   0.00000  Uiso   1.00
C280   C     0.78897   0.77207   0.70601   0.00000  Uiso   1.00
C281   C     0.75603   0.68359   0.58636   0.00000  Uiso   1.00
C282   C     0.76231   0.95451   0.96443   0.00000  Uiso   1.00
C283   C     0.76220   0.95416   0.09145   0.00000  Uiso   1.00
C284   C     0.70377   0.97478   0.14913   0.00000  Uiso   1.00
C285   C     0.62153   0.00365   0.28594   0.00000  Uiso   1.00
C286   C     0.83500   0.99390   0.80044   0.00000  Uiso   1.00
C287   C     0.89600   0.02668   0.78961   0.00000  Uiso   1.00
C288   C     0.89877   0.08048   0.70925   0.00000  Uiso   1.00
C289   C     0.92940   0.17052   0.59144   0.00000  Uiso   1.00
C290   C     0.71723   0.97120   0.75947   0.00000  Uiso   1.00
C291   C     0.73782   0.89919   0.73221   0.00000  Uiso   1.00
C292   C     0.70609   0.85629   0.65083   0.00000  Uiso   1.00
C293   C     0.73262   0.79234   0.63885   0.00000  Uiso   1.00
C294   C     0.70606   0.97475   0.89739   0.00000  Uiso   1.00
C295   C     0.64762   0.99538   0.95490   0.00000  Uiso   1.00
C296   C     0.64742   0.99505   0.08197   0.00000  Uiso   1.00
C297   C     0.77875   0.01414   0.73340   0.00000  Uiso   1.00
C298   C     0.78142   0.06790   0.65305   0.00000  Uiso   1.00
C299   C     0.84242   0.10076   0.64209   0.00000  Uiso   1.00
H300   H     0.86458   0.91819   0.93509   0.00000  Uiso   1.00
H301   H     0.86419   0.79942   0.83929   0.00000  Uiso   1.00
H302   H     0.80574   0.93850   0.14330   0.00000  Uiso   1.00
H303   H     0.93952   0.01101   0.84150   0.00000  Uiso   1.00
H304   H     0.83894   0.67666   0.70354   0.00000  Uiso   1.00
H305   H     0.71570   0.96994   0.34458   0.00000  Uiso   1.00
H306   H     0.99781   0.12284   0.70817   0.00000  Uiso   1.00
H307   H     0.67343   0.98696   0.70728   0.00000  Uiso   1.00
H308   H     0.66256   0.87196   0.59896   0.00000  Uiso   1.00
H309   H     0.60410   0.01104   0.90299   0.00000  Uiso   1.00
H310   H     0.73788   0.08355   0.60119   0.00000  Uiso   1.00
H311   H     0.67529   0.73553   0.50849   0.00000  Uiso   1.00
H312   H     0.55204   0.02881   0.14953   0.00000  Uiso   1.00
H313   H     0.83415   0.18172   0.51312   0.00000  Uiso   1.00
O314   O     0.75340   0.62920   0.53890   0.00000  Uiso   1.00
O315   O     0.59171   0.01398   0.37992   0.00000  Uiso   1.00
O316   O     0.96183   0.21458   0.54497   0.00000  Uiso   1.00
N317   N     0.80193   0.70630   0.67248   0.00000  Uiso   1.00
N318   N     0.68670   0.98049   0.27181   0.00000  Uiso   1.00
N319   N     0.95044   0.12345   0.67685   0.00000  Uiso   1.00
N320   N     0.71386   0.73798   0.56752   0.00000  Uiso   1.00
N321   N     0.59863   0.01217   0.16686   0.00000  Uiso   1.00
N322   N     0.86238   0.15513   0.57190   0.00000  Uiso   1.00
C323   C     0.17921   0.06606   0.88289   0.00000  Uiso   1.00
C324   C     0.20592   0.12105   0.79924   0.00000  Uiso   1.00
C325   C     0.17934   0.18494   0.78738   0.00000  Uiso   1.00
C326   C     0.21103   0.22793   0.70601   0.00000  Uiso   1.00
C327   C     0.24397   0.31641   0.58636   0.00000  Uiso   1.00
C328   C     0.23769   0.04549   0.96443   0.00000  Uiso   1.00
C329   C     0.23780   0.04584   0.09145   0.00000  Uiso   1.00
C330   C     0.29623   0.02522   0.14913   0.00000  Uiso   1.00
C331   C     0.37847   0.99635   0.28594   0.00000  Uiso   1.00
C332   C     0.16500   0.00610   0.80044   0.00000  Uiso   1.00
C333   C     0.10400   0.97332   0.78961   0.00000  Uiso   1.00
C334   C     0.10123   0.91952   0.70925   0.00000  Uiso   1.00
C335   C     0.07060   0.82948   0.59144   0.00000  Uiso   1.00
C336   C     0.28277   0.02880   0.75947   0.00000  Uiso   1.00
C337   C     0.26218   0.10081   0.73221   0.00000  Uiso   1.00
C338   C     0.29391   0.14371   0.65083   0.00000  Uiso   1.00
C339   C     0.26738   0.20766   0.63885   0.00000  Uiso   1.00
C340   C     0.29394   0.02525   0.89739   0.00000  Uiso   1.00
C341   C     0.35238   0.00462   0.95490   0.00000  Uiso   1.00
C342   C     0.35258   0.00495   0.08197   0.00000  Uiso   1.00
C343   C     0.22125   0.98586   0.73340   0.00000  Uiso   1.00
C344   C     0.21858   0.93210   0.65305   0.00000  Uiso   1.00
C345   C     0.15758   0.89924   0.64209   0.00000  Uiso   1.00
H346   H     0.13542   0.08181   0.93509   0.00000  Uiso   1.00
H347   H     0.13581   0.20058   0.83929   0.00000  Uiso   1.00
H348   H     0.19426   0.06150   0.14330   0.00000  Uiso   1.00
H349   H     0.06048   0.98899   0.84150   0.00000  Uiso   1.00
H350   H     0.16106   0.32334   0.70354   0.00000  Uiso   1.00
H351   H     0.28430   0.03006   0.34458   0.00000  Uiso   1.00
H352   H     0.00219   0.87716   0.70817   0.00000  Uiso   1.00
H353   H     0.32657   0.01304   0.70728   0.00000  Uiso   1.00
H354   H     0.33744   0.12804   0.59896   0.00000  Uiso   1.00
H355   H     0.39590   0.98896   0.90299   0.00000  Uiso   1.00
H356   H     0.26212   0.91645   0.60119   0.00000  Uiso   1.00
H357   H     0.32471   0.26447   0.50849   0.00000  Uiso   1.00
H358   H     0.44796   0.97119   0.14953   0.00000  Uiso   1.00
H359   H     0.16585   0.81828   0.51312   0.00000  Uiso   1.00
O360   O     0.24660   0.37080   0.53890   0.00000  Uiso   1.00
O361   O     0.40829   0.98602   0.37992   0.00000  Uiso   1.00
O362   O     0.03817   0.78542   0.54497   0.00000  Uiso   1.00
N363   N     0.19807   0.29370   0.67248   0.00000  Uiso   1.00
N364   N     0.31330   0.01951   0.27181   0.00000  Uiso   1.00
N365   N     0.04956   0.87655   0.67685   0.00000  Uiso   1.00
N366   N     0.28614   0.26202   0.56752   0.00000  Uiso   1.00
N367   N     0.40137   0.98783   0.16686   0.00000  Uiso   1.00
N368   N     0.13762   0.84487   0.57190   0.00000  Uiso   1.00
