data_job_01434
_audit_creation_date              2018-12-19
_audit_creation_method            'Materials Studio'
_symmetry_space_group_name_H-M    'P1'
_symmetry_Int_Tables_number       1
_symmetry_cell_setting            triclinic
loop_
_symmetry_equiv_pos_as_xyz
  x,y,z
_cell_length_a                    14.0958
_cell_length_b                    10.8013
_cell_length_c                    17.0180
_cell_angle_alpha                 90.0000
_cell_angle_beta                  56.3763
_cell_angle_gamma                 90.0000
loop_
_atom_site_label
_atom_site_type_symbol
_atom_site_fract_x
_atom_site_fract_y
_atom_site_fract_z
_atom_site_U_iso_or_equiv
_atom_site_adp_type
_atom_site_occupancy
C1     C     0.14157   0.68922   0.74190   0.00000  Uiso   1.00
C2     C     0.09862   0.74229   0.83918   0.00000  Uiso   1.00
C3     C     0.98713   0.73748   0.91728   0.00000  Uiso   1.00
C4     C     0.96510   0.79144   0.99986   0.00000  Uiso   1.00
C5     C     0.88525   0.86527   0.15024   0.00000  Uiso   1.00
C6     C     0.19751   0.79668   0.67278   0.00000  Uiso   1.00
C7     C     0.16918   0.83758   0.61098   0.00000  Uiso   1.00
C8     C     0.23040   0.93732   0.55347   0.00000  Uiso   1.00
C9     C     0.30413   0.09552   0.44547   0.00000  Uiso   1.00
C10    C     0.23764   0.60025   0.71906   0.00000  Uiso   1.00
C11    C     0.24305   0.47600   0.69615   0.00000  Uiso   1.00
C12    C     0.33808   0.41036   0.67759   0.00000  Uiso   1.00
C13    C     0.47411   0.26359   0.64146   0.00000  Uiso   1.00
C14    C     0.30070   0.79361   0.74965   0.00000  Uiso   1.00
C15    C     0.18506   0.79899   0.84338   0.00000  Uiso   1.00
C16    C     0.16319   0.85297   0.92586   0.00000  Uiso   1.00
C17    C     0.05169   0.84824   0.00408   0.00000  Uiso   1.00
C18    C     0.28394   0.85338   0.67699   0.00000  Uiso   1.00
C19    C     0.34523   0.95307   0.61955   0.00000  Uiso   1.00
C20    C     0.31699   0.99412   0.55769   0.00000  Uiso   1.00
C21    C     0.32407   0.65695   0.72327   0.00000  Uiso   1.00
C22    C     0.41911   0.59149   0.70474   0.00000  Uiso   1.00
C23    C     0.42467   0.46717   0.68181   0.00000  Uiso   1.00
H24    H     0.07429   0.64508   0.73862   0.00000  Uiso   1.00
H25    H     0.92026   0.69360   0.91400   0.00000  Uiso   1.00
H26    H     0.10229   0.79367   0.60773   0.00000  Uiso   1.00
H27    H     0.17615   0.43215   0.69290   0.00000  Uiso   1.00
H28    H     0.78761   0.77243   0.11028   0.00000  Uiso   1.00
H29    H     0.17145   0.98342   0.46448   0.00000  Uiso   1.00
H30    H     0.32721   0.22108   0.64407   0.00000  Uiso   1.00
H31    H     0.36800   0.83776   0.75293   0.00000  Uiso   1.00
H32    H     0.23009   0.89684   0.92910   0.00000  Uiso   1.00
H33    H     0.41212   0.99692   0.62283   0.00000  Uiso   1.00
H34    H     0.48598   0.63540   0.70800   0.00000  Uiso   1.00
H35    H     0.03908   0.93740   0.12253   0.00000  Uiso   1.00
H36    H     0.42292   0.14838   0.47673   0.00000  Uiso   1.00
H37    H     0.57867   0.38605   0.65633   0.00000  Uiso   1.00
O38    O     0.81732   0.89034   0.23203   0.00000  Uiso   1.00
O39    O     0.32091   0.16713   0.38475   0.00000  Uiso   1.00
O40    O     0.52525   0.16697   0.62038   0.00000  Uiso   1.00
N41    N     0.86573   0.80312   0.08899   0.00000  Uiso   1.00
N42    N     0.22458   0.00040   0.48522   0.00000  Uiso   1.00
N43    N     0.37021   0.28768   0.65310   0.00000  Uiso   1.00
N44    N     0.00104   0.89189   0.09559   0.00000  Uiso   1.00
N45    N     0.35989   0.08916   0.49181   0.00000  Uiso   1.00
N46    N     0.50552   0.37645   0.65969   0.00000  Uiso   1.00
C47    C     0.85843   0.18922   0.75810   0.00000  Uiso   1.00
C48    C     0.90138   0.24229   0.66082   0.00000  Uiso   1.00
C49    C     0.01287   0.23748   0.58272   0.00000  Uiso   1.00
C50    C     0.03490   0.29144   0.50014   0.00000  Uiso   1.00
C51    C     0.11475   0.36527   0.34976   0.00000  Uiso   1.00
C52    C     0.80249   0.29668   0.82722   0.00000  Uiso   1.00
C53    C     0.83082   0.33758   0.88902   0.00000  Uiso   1.00
C54    C     0.76960   0.43732   0.94653   0.00000  Uiso   1.00
C55    C     0.69587   0.59552   0.05453   0.00000  Uiso   1.00
C56    C     0.76236   0.10025   0.78094   0.00000  Uiso   1.00
C57    C     0.75695   0.97600   0.80385   0.00000  Uiso   1.00
C58    C     0.66192   0.91036   0.82241   0.00000  Uiso   1.00
C59    C     0.52589   0.76359   0.85854   0.00000  Uiso   1.00
C60    C     0.69930   0.29361   0.75035   0.00000  Uiso   1.00
C61    C     0.81494   0.29899   0.65662   0.00000  Uiso   1.00
C62    C     0.83681   0.35297   0.57414   0.00000  Uiso   1.00
C63    C     0.94831   0.34824   0.49592   0.00000  Uiso   1.00
C64    C     0.71606   0.35338   0.82301   0.00000  Uiso   1.00
C65    C     0.65477   0.45307   0.88045   0.00000  Uiso   1.00
C66    C     0.68301   0.49412   0.94231   0.00000  Uiso   1.00
C67    C     0.67593   0.15695   0.77673   0.00000  Uiso   1.00
C68    C     0.58089   0.09149   0.79526   0.00000  Uiso   1.00
C69    C     0.57533   0.96717   0.81819   0.00000  Uiso   1.00
H70    H     0.92571   0.14508   0.76138   0.00000  Uiso   1.00
H71    H     0.07974   0.19360   0.58600   0.00000  Uiso   1.00
H72    H     0.89771   0.29367   0.89227   0.00000  Uiso   1.00
H73    H     0.82385   0.93215   0.80710   0.00000  Uiso   1.00
H74    H     0.21239   0.27243   0.38972   0.00000  Uiso   1.00
H75    H     0.82855   0.48342   0.03552   0.00000  Uiso   1.00
H76    H     0.67279   0.72108   0.85593   0.00000  Uiso   1.00
H77    H     0.63200   0.33776   0.74707   0.00000  Uiso   1.00
H78    H     0.76991   0.39684   0.57090   0.00000  Uiso   1.00
H79    H     0.58788   0.49692   0.87717   0.00000  Uiso   1.00
H80    H     0.51402   0.13540   0.79200   0.00000  Uiso   1.00
H81    H     0.96092   0.43740   0.37747   0.00000  Uiso   1.00
H82    H     0.57708   0.64838   0.02327   0.00000  Uiso   1.00
H83    H     0.42133   0.88605   0.84367   0.00000  Uiso   1.00
O84    O     0.18268   0.39034   0.26797   0.00000  Uiso   1.00
O85    O     0.67909   0.66713   0.11525   0.00000  Uiso   1.00
O86    O     0.47475   0.66697   0.87962   0.00000  Uiso   1.00
N87    N     0.13427   0.30312   0.41101   0.00000  Uiso   1.00
N88    N     0.77542   0.50040   0.01478   0.00000  Uiso   1.00
N89    N     0.62979   0.78768   0.84690   0.00000  Uiso   1.00
N90    N     0.99896   0.39189   0.40441   0.00000  Uiso   1.00
N91    N     0.64011   0.58916   0.00819   0.00000  Uiso   1.00
N92    N     0.49448   0.87645   0.84031   0.00000  Uiso   1.00
C93    C     0.85843   0.31078   0.25810   0.00000  Uiso   1.00
C94    C     0.90138   0.25771   0.16082   0.00000  Uiso   1.00
C95    C     0.01287   0.26252   0.08272   0.00000  Uiso   1.00
C96    C     0.03490   0.20856   0.00014   0.00000  Uiso   1.00
C97    C     0.11475   0.13473   0.84976   0.00000  Uiso   1.00
C98    C     0.80249   0.20332   0.32722   0.00000  Uiso   1.00
C99    C     0.83082   0.16242   0.38902   0.00000  Uiso   1.00
C100   C     0.76960   0.06268   0.44653   0.00000  Uiso   1.00
C101   C     0.69587   0.90448   0.55453   0.00000  Uiso   1.00
C102   C     0.76236   0.39975   0.28094   0.00000  Uiso   1.00
C103   C     0.75695   0.52400   0.30385   0.00000  Uiso   1.00
C104   C     0.66192   0.58964   0.32241   0.00000  Uiso   1.00
C105   C     0.52589   0.73641   0.35854   0.00000  Uiso   1.00
C106   C     0.69930   0.20639   0.25035   0.00000  Uiso   1.00
C107   C     0.81494   0.20101   0.15662   0.00000  Uiso   1.00
C108   C     0.83681   0.14703   0.07414   0.00000  Uiso   1.00
C109   C     0.94831   0.15176   0.99592   0.00000  Uiso   1.00
C110   C     0.71606   0.14662   0.32301   0.00000  Uiso   1.00
C111   C     0.65477   0.04693   0.38045   0.00000  Uiso   1.00
C112   C     0.68301   0.00588   0.44231   0.00000  Uiso   1.00
C113   C     0.67593   0.34305   0.27673   0.00000  Uiso   1.00
C114   C     0.58089   0.40851   0.29526   0.00000  Uiso   1.00
C115   C     0.57533   0.53283   0.31819   0.00000  Uiso   1.00
H116   H     0.92571   0.35492   0.26138   0.00000  Uiso   1.00
H117   H     0.07974   0.30640   0.08600   0.00000  Uiso   1.00
H118   H     0.89771   0.20633   0.39227   0.00000  Uiso   1.00
H119   H     0.82385   0.56785   0.30710   0.00000  Uiso   1.00
H120   H     0.21239   0.22757   0.88972   0.00000  Uiso   1.00
H121   H     0.82855   0.01658   0.53552   0.00000  Uiso   1.00
H122   H     0.67279   0.77892   0.35593   0.00000  Uiso   1.00
H123   H     0.63200   0.16224   0.24707   0.00000  Uiso   1.00
H124   H     0.76991   0.10316   0.07090   0.00000  Uiso   1.00
H125   H     0.58788   0.00308   0.37717   0.00000  Uiso   1.00
H126   H     0.51402   0.36460   0.29200   0.00000  Uiso   1.00
H127   H     0.96092   0.06260   0.87747   0.00000  Uiso   1.00
H128   H     0.57708   0.85162   0.52327   0.00000  Uiso   1.00
H129   H     0.42133   0.61395   0.34367   0.00000  Uiso   1.00
O130   O     0.18268   0.10966   0.76797   0.00000  Uiso   1.00
O131   O     0.67909   0.83287   0.61525   0.00000  Uiso   1.00
O132   O     0.47475   0.83303   0.37962   0.00000  Uiso   1.00
N133   N     0.13427   0.19688   0.91101   0.00000  Uiso   1.00
N134   N     0.77542   0.99960   0.51478   0.00000  Uiso   1.00
N135   N     0.62979   0.71232   0.34690   0.00000  Uiso   1.00
N136   N     0.99896   0.10811   0.90441   0.00000  Uiso   1.00
N137   N     0.64011   0.91084   0.50819   0.00000  Uiso   1.00
N138   N     0.49448   0.62355   0.34031   0.00000  Uiso   1.00
C139   C     0.14157   0.81078   0.24190   0.00000  Uiso   1.00
C140   C     0.09862   0.75771   0.33918   0.00000  Uiso   1.00
C141   C     0.98713   0.76252   0.41728   0.00000  Uiso   1.00
C142   C     0.96510   0.70856   0.49986   0.00000  Uiso   1.00
C143   C     0.88525   0.63473   0.65024   0.00000  Uiso   1.00
C144   C     0.19751   0.70332   0.17278   0.00000  Uiso   1.00
C145   C     0.16918   0.66242   0.11098   0.00000  Uiso   1.00
C146   C     0.23040   0.56268   0.05347   0.00000  Uiso   1.00
C147   C     0.30413   0.40448   0.94547   0.00000  Uiso   1.00
C148   C     0.23764   0.89975   0.21906   0.00000  Uiso   1.00
C149   C     0.24305   0.02400   0.19615   0.00000  Uiso   1.00
C150   C     0.33808   0.08964   0.17759   0.00000  Uiso   1.00
C151   C     0.47411   0.23641   0.14146   0.00000  Uiso   1.00
C152   C     0.30070   0.70639   0.24965   0.00000  Uiso   1.00
C153   C     0.18506   0.70101   0.34338   0.00000  Uiso   1.00
C154   C     0.16319   0.64703   0.42586   0.00000  Uiso   1.00
C155   C     0.05169   0.65176   0.50408   0.00000  Uiso   1.00
C156   C     0.28394   0.64662   0.17699   0.00000  Uiso   1.00
C157   C     0.34523   0.54693   0.11955   0.00000  Uiso   1.00
C158   C     0.31699   0.50588   0.05769   0.00000  Uiso   1.00
C159   C     0.32407   0.84305   0.22327   0.00000  Uiso   1.00
C160   C     0.41911   0.90851   0.20474   0.00000  Uiso   1.00
C161   C     0.42467   0.03283   0.18181   0.00000  Uiso   1.00
H162   H     0.07429   0.85492   0.23862   0.00000  Uiso   1.00
H163   H     0.92026   0.80640   0.41400   0.00000  Uiso   1.00
H164   H     0.10229   0.70633   0.10773   0.00000  Uiso   1.00
H165   H     0.17615   0.06785   0.19290   0.00000  Uiso   1.00
H166   H     0.78761   0.72757   0.61028   0.00000  Uiso   1.00
H167   H     0.17145   0.51658   0.96448   0.00000  Uiso   1.00
H168   H     0.32721   0.27892   0.14407   0.00000  Uiso   1.00
H169   H     0.36800   0.66224   0.25293   0.00000  Uiso   1.00
H170   H     0.23009   0.60316   0.42910   0.00000  Uiso   1.00
H171   H     0.41212   0.50308   0.12283   0.00000  Uiso   1.00
H172   H     0.48598   0.86460   0.20800   0.00000  Uiso   1.00
H173   H     0.03908   0.56260   0.62253   0.00000  Uiso   1.00
H174   H     0.42292   0.35162   0.97673   0.00000  Uiso   1.00
H175   H     0.57867   0.11395   0.15633   0.00000  Uiso   1.00
O176   O     0.81732   0.60966   0.73203   0.00000  Uiso   1.00
O177   O     0.32091   0.33287   0.88475   0.00000  Uiso   1.00
O178   O     0.52525   0.33303   0.12038   0.00000  Uiso   1.00
N179   N     0.86573   0.69688   0.58899   0.00000  Uiso   1.00
N180   N     0.22458   0.49960   0.98522   0.00000  Uiso   1.00
N181   N     0.37021   0.21232   0.15310   0.00000  Uiso   1.00
N182   N     0.00104   0.60811   0.59559   0.00000  Uiso   1.00
N183   N     0.35989   0.41084   0.99181   0.00000  Uiso   1.00
N184   N     0.50552   0.12355   0.15969   0.00000  Uiso   1.00
