data_job_01048
_audit_creation_date              2018-12-19
_audit_creation_method            'Materials Studio'
_symmetry_space_group_name_H-M    'P1'
_symmetry_Int_Tables_number       1
_symmetry_cell_setting            triclinic
loop_
_symmetry_equiv_pos_as_xyz
  x,y,z
_cell_length_a                    42.1640
_cell_length_b                    17.8455
_cell_length_c                    40.1784
_cell_angle_alpha                 90.0000
_cell_angle_beta                  166.5052
_cell_angle_gamma                 90.0000
loop_
_atom_site_label
_atom_site_type_symbol
_atom_site_fract_x
_atom_site_fract_y
_atom_site_fract_z
_atom_site_U_iso_or_equiv
_atom_site_adp_type
_atom_site_occupancy
C1     C     0.51173   0.11453   0.85893   0.00000  Uiso   1.00
C2     C     0.61459   0.14654   0.98847   0.00000  Uiso   1.00
C3     C     0.65099   0.11464   0.05583   0.00000  Uiso   1.00
C4     C     0.74696   0.15261   0.17266   0.00000  Uiso   1.00
C5     C     0.89790   0.19207   0.36651   0.00000  Uiso   1.00
C6     C     0.40605   0.17584   0.74567   0.00000  Uiso   1.00
C7     C     0.26710   0.16857   0.60888   0.00000  Uiso   1.00
C8     C     0.18751   0.23120   0.52132   0.00000  Uiso   1.00
C9     C     0.01466   0.31613   0.33819   0.00000  Uiso   1.00
C10    C     0.58698   0.10632   0.90275   0.00000  Uiso   1.00
C11    C     0.60015   0.04060   0.89799   0.00000  Uiso   1.00
C12    C     0.67287   0.04472   0.94264   0.00000  Uiso   1.00
C13    C     0.78095   0.02170   0.00339   0.00000  Uiso   1.00
C14    C     0.61744   0.23870   0.94664   0.00000  Uiso   1.00
C15    C     0.67201   0.21398   0.03611   0.00000  Uiso   1.00
C16    C     0.76795   0.25201   0.15287   0.00000  Uiso   1.00
C17    C     0.80449   0.22018   0.22039   0.00000  Uiso   1.00
C18    C     0.46346   0.24328   0.79331   0.00000  Uiso   1.00
C19    C     0.38406   0.30594   0.70593   0.00000  Uiso   1.00
C20    C     0.24503   0.29877   0.56905   0.00000  Uiso   1.00
C21    C     0.64440   0.17376   0.95039   0.00000  Uiso   1.00
C22    C     0.71711   0.17798   0.99504   0.00000  Uiso   1.00
C23    C     0.73039   0.11228   0.99037   0.00000  Uiso   1.00
H24    H     0.46702   0.06203   0.82183   0.00000  Uiso   1.00
H25    H     0.60653   0.06245   0.01892   0.00000  Uiso   1.00
H26    H     0.22270   0.11637   0.57204   0.00000  Uiso   1.00
H27    H     0.55570   0.98842   0.86112   0.00000  Uiso   1.00
H28    H     0.78648   0.09267   0.25841   0.00000  Uiso   1.00
H29    H     0.97715   0.20635   0.31613   0.00000  Uiso   1.00
H30    H     0.67934   0.93655   0.92568   0.00000  Uiso   1.00
H31    H     0.66214   0.29121   0.98373   0.00000  Uiso   1.00
H32    H     0.81236   0.30420   0.18971   0.00000  Uiso   1.00
H33    H     0.42852   0.35812   0.74283   0.00000  Uiso   1.00
H34    H     0.76153   0.23018   0.03190   0.00000  Uiso   1.00
H35    H     0.95354   0.28889   0.39702   0.00000  Uiso   1.00
H36    H     0.14420   0.40257   0.45473   0.00000  Uiso   1.00
H37    H     0.84640   0.13277   0.06430   0.00000  Uiso   1.00
O38    O     0.96527   0.19521   0.46026   0.00000  Uiso   1.00
O39    O     0.90346   0.34434   0.22402   0.00000  Uiso   1.00
O40    O     0.82472   0.99038   0.02376   0.00000  Uiso   1.00
N41    N     0.80520   0.13706   0.26278   0.00000  Uiso   1.00
N42    N     0.04852   0.24335   0.38181   0.00000  Uiso   1.00
N43    N     0.70499   0.99111   0.95166   0.00000  Uiso   1.00
N44    N     0.89509   0.24264   0.33737   0.00000  Uiso   1.00
N45    N     0.13842   0.34893   0.45640   0.00000  Uiso   1.00
N46    N     0.79488   0.09670   0.02625   0.00000  Uiso   1.00
C47    C     0.10756   0.78796   0.96799   0.00000  Uiso   1.00
C48    C     0.03245   0.72409   0.90860   0.00000  Uiso   1.00
C49    C     0.03049   0.71058   0.94061   0.00000  Uiso   1.00
C50    C     0.95582   0.64926   0.87527   0.00000  Uiso   1.00
C51    C     0.84993   0.55707   0.79739   0.00000  Uiso   1.00
C52    C     0.20109   0.75122   0.03796   0.00000  Uiso   1.00
C53    C     0.34091   0.76054   0.17871   0.00000  Uiso   1.00
C54    C     0.40819   0.72207   0.22225   0.00000  Uiso   1.00
C55    C     0.56410   0.67206   0.34518   0.00000  Uiso   1.00
C56    C     0.00065   0.83041   0.83891   0.00000  Uiso   1.00
C57    C     0.97195   0.90631   0.81232   0.00000  Uiso   1.00
C58    C     0.87049   0.93451   0.68829   0.00000  Uiso   1.00
C59    C     0.71518   0.00743   0.50216   0.00000  Uiso   1.00
C60    C     0.97843   0.70309   0.79504   0.00000  Uiso   1.00
C61    C     0.96232   0.67799   0.81466   0.00000  Uiso   1.00
C62    C     0.88763   0.61668   0.74925   0.00000  Uiso   1.00
C63    C     0.88555   0.60308   0.78115   0.00000  Uiso   1.00
C64    C     0.13096   0.70512   0.94402   0.00000  Uiso   1.00
C65    C     0.19805   0.66664   0.98736   0.00000  Uiso   1.00
C66    C     0.33793   0.67589   0.12814   0.00000  Uiso   1.00
C67    C     0.93051   0.78431   0.74496   0.00000  Uiso   1.00
C68    C     0.82908   0.81240   0.62096   0.00000  Uiso   1.00
C69    C     0.80023   0.88832   0.59418   0.00000  Uiso   1.00
H70    H     0.16217   0.82385   0.04114   0.00000  Uiso   1.00
H71    H     0.08479   0.74627   0.01333   0.00000  Uiso   1.00
H72    H     0.39515   0.79623   0.25138   0.00000  Uiso   1.00
H73    H     0.02624   0.94196   0.88504   0.00000  Uiso   1.00
H74    H     0.96811   0.63990   0.94110   0.00000  Uiso   1.00
H75    H     0.62253   0.74526   0.44305   0.00000  Uiso   1.00
H76    H     0.84462   0.05258   0.67055   0.00000  Uiso   1.00
H77    H     0.92383   0.66719   0.72190   0.00000  Uiso   1.00
H78    H     0.83337   0.58101   0.67656   0.00000  Uiso   1.00
H79    H     0.14374   0.63097   0.91462   0.00000  Uiso   1.00
H80    H     0.77483   0.77671   0.54828   0.00000  Uiso   1.00
H81    H     0.76405   0.50577   0.66777   0.00000  Uiso   1.00
H82    H     0.41848   0.61114   0.16973   0.00000  Uiso   1.00
H83    H     0.64056   0.91845   0.39722   0.00000  Uiso   1.00
O84    O     0.81091   0.51895   0.78041   0.00000  Uiso   1.00
O85    O     0.66948   0.65720   0.43894   0.00000  Uiso   1.00
O86    O     0.64887   0.06039   0.42544   0.00000  Uiso   1.00
N87    N     0.93248   0.62017   0.88297   0.00000  Uiso   1.00
N88    N     0.54433   0.71867   0.35227   0.00000  Uiso   1.00
N89    N     0.81707   0.00599   0.63007   0.00000  Uiso   1.00
N90    N     0.82268   0.54800   0.73589   0.00000  Uiso   1.00
N91    N     0.43452   0.64649   0.20520   0.00000  Uiso   1.00
N92    N     0.70726   0.93382   0.48299   0.00000  Uiso   1.00
C93    C     0.48827   0.61453   0.64107   0.00000  Uiso   1.00
C94    C     0.38541   0.64654   0.51153   0.00000  Uiso   1.00
C95    C     0.34901   0.61464   0.44417   0.00000  Uiso   1.00
C96    C     0.25304   0.65261   0.32734   0.00000  Uiso   1.00
C97    C     0.10210   0.69207   0.13349   0.00000  Uiso   1.00
C98    C     0.59395   0.67584   0.75433   0.00000  Uiso   1.00
C99    C     0.73290   0.66857   0.89112   0.00000  Uiso   1.00
C100   C     0.81249   0.73120   0.97868   0.00000  Uiso   1.00
C101   C     0.98534   0.81613   0.16181   0.00000  Uiso   1.00
C102   C     0.41302   0.60632   0.59725   0.00000  Uiso   1.00
C103   C     0.39985   0.54060   0.60201   0.00000  Uiso   1.00
C104   C     0.32713   0.54472   0.55736   0.00000  Uiso   1.00
C105   C     0.21905   0.52170   0.49661   0.00000  Uiso   1.00
C106   C     0.38256   0.73870   0.55336   0.00000  Uiso   1.00
C107   C     0.32799   0.71398   0.46389   0.00000  Uiso   1.00
C108   C     0.23205   0.75201   0.34713   0.00000  Uiso   1.00
C109   C     0.19551   0.72018   0.27961   0.00000  Uiso   1.00
C110   C     0.53654   0.74328   0.70669   0.00000  Uiso   1.00
C111   C     0.61594   0.80594   0.79407   0.00000  Uiso   1.00
C112   C     0.75497   0.79877   0.93095   0.00000  Uiso   1.00
C113   C     0.35560   0.67376   0.54961   0.00000  Uiso   1.00
C114   C     0.28289   0.67798   0.50496   0.00000  Uiso   1.00
C115   C     0.26961   0.61228   0.50963   0.00000  Uiso   1.00
H116   H     0.53298   0.56203   0.67817   0.00000  Uiso   1.00
H117   H     0.39347   0.56245   0.48108   0.00000  Uiso   1.00
H118   H     0.77730   0.61637   0.92796   0.00000  Uiso   1.00
H119   H     0.44430   0.48842   0.63888   0.00000  Uiso   1.00
H120   H     0.21352   0.59267   0.24159   0.00000  Uiso   1.00
H121   H     0.02285   0.70635   0.18387   0.00000  Uiso   1.00
H122   H     0.32066   0.43655   0.57432   0.00000  Uiso   1.00
H123   H     0.33786   0.79121   0.51627   0.00000  Uiso   1.00
H124   H     0.18764   0.80420   0.31029   0.00000  Uiso   1.00
H125   H     0.57148   0.85812   0.75717   0.00000  Uiso   1.00
H126   H     0.23847   0.73018   0.46810   0.00000  Uiso   1.00
H127   H     0.04646   0.78889   0.10298   0.00000  Uiso   1.00
H128   H     0.85580   0.90257   0.04527   0.00000  Uiso   1.00
H129   H     0.15360   0.63277   0.43570   0.00000  Uiso   1.00
O130   O     0.03473   0.69521   0.03974   0.00000  Uiso   1.00
O131   O     0.09654   0.84434   0.27598   0.00000  Uiso   1.00
O132   O     0.17528   0.49038   0.47624   0.00000  Uiso   1.00
N133   N     0.19480   0.63706   0.23722   0.00000  Uiso   1.00
N134   N     0.95148   0.74335   0.11819   0.00000  Uiso   1.00
N135   N     0.29501   0.49111   0.54834   0.00000  Uiso   1.00
N136   N     0.10491   0.74264   0.16263   0.00000  Uiso   1.00
N137   N     0.86158   0.84893   0.04360   0.00000  Uiso   1.00
N138   N     0.20512   0.59670   0.47375   0.00000  Uiso   1.00
C139   C     0.89244   0.28796   0.53201   0.00000  Uiso   1.00
C140   C     0.96755   0.22409   0.59140   0.00000  Uiso   1.00
C141   C     0.96951   0.21058   0.55939   0.00000  Uiso   1.00
C142   C     0.04418   0.14926   0.62473   0.00000  Uiso   1.00
C143   C     0.15007   0.05707   0.70261   0.00000  Uiso   1.00
C144   C     0.79891   0.25122   0.46204   0.00000  Uiso   1.00
C145   C     0.65909   0.26054   0.32129   0.00000  Uiso   1.00
C146   C     0.59181   0.22207   0.27775   0.00000  Uiso   1.00
C147   C     0.43590   0.17206   0.15482   0.00000  Uiso   1.00
C148   C     0.99935   0.33041   0.66109   0.00000  Uiso   1.00
C149   C     0.02805   0.40631   0.68768   0.00000  Uiso   1.00
C150   C     0.12951   0.43451   0.81171   0.00000  Uiso   1.00
C151   C     0.28482   0.50743   0.99784   0.00000  Uiso   1.00
C152   C     0.02157   0.20309   0.70496   0.00000  Uiso   1.00
C153   C     0.03768   0.17799   0.68534   0.00000  Uiso   1.00
C154   C     0.11237   0.11668   0.75075   0.00000  Uiso   1.00
C155   C     0.11445   0.10308   0.71885   0.00000  Uiso   1.00
C156   C     0.86904   0.20512   0.55598   0.00000  Uiso   1.00
C157   C     0.80195   0.16664   0.51264   0.00000  Uiso   1.00
C158   C     0.66207   0.17589   0.37186   0.00000  Uiso   1.00
C159   C     0.06949   0.28431   0.75504   0.00000  Uiso   1.00
C160   C     0.17092   0.31240   0.87904   0.00000  Uiso   1.00
C161   C     0.19977   0.38832   0.90582   0.00000  Uiso   1.00
H162   H     0.83783   0.32385   0.45886   0.00000  Uiso   1.00
H163   H     0.91521   0.24627   0.48667   0.00000  Uiso   1.00
H164   H     0.60485   0.29623   0.24862   0.00000  Uiso   1.00
H165   H     0.97376   0.44196   0.61496   0.00000  Uiso   1.00
H166   H     0.03189   0.13990   0.55890   0.00000  Uiso   1.00
H167   H     0.37747   0.24526   0.05695   0.00000  Uiso   1.00
H168   H     0.15538   0.55258   0.82945   0.00000  Uiso   1.00
H169   H     0.07617   0.16719   0.77810   0.00000  Uiso   1.00
H170   H     0.16663   0.08101   0.82344   0.00000  Uiso   1.00
H171   H     0.85626   0.13097   0.58538   0.00000  Uiso   1.00
H172   H     0.22517   0.27671   0.95172   0.00000  Uiso   1.00
H173   H     0.23595   0.00577   0.83223   0.00000  Uiso   1.00
H174   H     0.58152   0.11114   0.33027   0.00000  Uiso   1.00
H175   H     0.35944   0.41845   0.10278   0.00000  Uiso   1.00
O176   O     0.18909   0.01895   0.71959   0.00000  Uiso   1.00
O177   O     0.33052   0.15720   0.06106   0.00000  Uiso   1.00
O178   O     0.35113   0.56039   0.07456   0.00000  Uiso   1.00
N179   N     0.06752   0.12017   0.61703   0.00000  Uiso   1.00
N180   N     0.45567   0.21867   0.14773   0.00000  Uiso   1.00
N181   N     0.18293   0.50599   0.86993   0.00000  Uiso   1.00
N182   N     0.17732   0.04800   0.76411   0.00000  Uiso   1.00
N183   N     0.56548   0.14649   0.29480   0.00000  Uiso   1.00
N184   N     0.29274   0.43382   0.01701   0.00000  Uiso   1.00
C185   C     0.48827   0.88547   0.14107   0.00000  Uiso   1.00
C186   C     0.38541   0.85346   0.01153   0.00000  Uiso   1.00
C187   C     0.34901   0.88536   0.94417   0.00000  Uiso   1.00
C188   C     0.25304   0.84739   0.82734   0.00000  Uiso   1.00
C189   C     0.10210   0.80793   0.63349   0.00000  Uiso   1.00
C190   C     0.59395   0.82416   0.25433   0.00000  Uiso   1.00
C191   C     0.73290   0.83143   0.39112   0.00000  Uiso   1.00
C192   C     0.81249   0.76880   0.47868   0.00000  Uiso   1.00
C193   C     0.98534   0.68387   0.66181   0.00000  Uiso   1.00
C194   C     0.41302   0.89368   0.09725   0.00000  Uiso   1.00
C195   C     0.39985   0.95940   0.10201   0.00000  Uiso   1.00
C196   C     0.32713   0.95528   0.05736   0.00000  Uiso   1.00
C197   C     0.21905   0.97830   0.99661   0.00000  Uiso   1.00
C198   C     0.38256   0.76130   0.05336   0.00000  Uiso   1.00
C199   C     0.32799   0.78602   0.96389   0.00000  Uiso   1.00
C200   C     0.23205   0.74799   0.84713   0.00000  Uiso   1.00
C201   C     0.19551   0.77982   0.77961   0.00000  Uiso   1.00
C202   C     0.53654   0.75672   0.20669   0.00000  Uiso   1.00
C203   C     0.61594   0.69406   0.29407   0.00000  Uiso   1.00
C204   C     0.75497   0.70123   0.43095   0.00000  Uiso   1.00
C205   C     0.35560   0.82624   0.04961   0.00000  Uiso   1.00
C206   C     0.28289   0.82202   0.00496   0.00000  Uiso   1.00
C207   C     0.26961   0.88772   0.00963   0.00000  Uiso   1.00
H208   H     0.53298   0.93797   0.17817   0.00000  Uiso   1.00
H209   H     0.39347   0.93755   0.98108   0.00000  Uiso   1.00
H210   H     0.77730   0.88363   0.42796   0.00000  Uiso   1.00
H211   H     0.44430   0.01158   0.13888   0.00000  Uiso   1.00
H212   H     0.21352   0.90733   0.74159   0.00000  Uiso   1.00
H213   H     0.02285   0.79365   0.68387   0.00000  Uiso   1.00
H214   H     0.32066   0.06345   0.07432   0.00000  Uiso   1.00
H215   H     0.33786   0.70879   0.01627   0.00000  Uiso   1.00
H216   H     0.18764   0.69580   0.81029   0.00000  Uiso   1.00
H217   H     0.57148   0.64188   0.25717   0.00000  Uiso   1.00
H218   H     0.23847   0.76982   0.96810   0.00000  Uiso   1.00
H219   H     0.04646   0.71111   0.60298   0.00000  Uiso   1.00
H220   H     0.85580   0.59743   0.54527   0.00000  Uiso   1.00
H221   H     0.15360   0.86723   0.93570   0.00000  Uiso   1.00
O222   O     0.03473   0.80479   0.53974   0.00000  Uiso   1.00
O223   O     0.09654   0.65566   0.77598   0.00000  Uiso   1.00
O224   O     0.17528   0.00962   0.97624   0.00000  Uiso   1.00
N225   N     0.19480   0.86294   0.73722   0.00000  Uiso   1.00
N226   N     0.95148   0.75665   0.61819   0.00000  Uiso   1.00
N227   N     0.29501   0.00889   0.04834   0.00000  Uiso   1.00
N228   N     0.10491   0.75736   0.66263   0.00000  Uiso   1.00
N229   N     0.86158   0.65107   0.54360   0.00000  Uiso   1.00
N230   N     0.20512   0.90330   0.97375   0.00000  Uiso   1.00
C231   C     0.89244   0.21204   0.03201   0.00000  Uiso   1.00
C232   C     0.96755   0.27591   0.09140   0.00000  Uiso   1.00
C233   C     0.96951   0.28942   0.05939   0.00000  Uiso   1.00
C234   C     0.04418   0.35074   0.12473   0.00000  Uiso   1.00
C235   C     0.15007   0.44293   0.20261   0.00000  Uiso   1.00
C236   C     0.79891   0.24878   0.96204   0.00000  Uiso   1.00
C237   C     0.65909   0.23946   0.82129   0.00000  Uiso   1.00
C238   C     0.59181   0.27793   0.77775   0.00000  Uiso   1.00
C239   C     0.43590   0.32794   0.65482   0.00000  Uiso   1.00
C240   C     0.99935   0.16959   0.16109   0.00000  Uiso   1.00
C241   C     0.02805   0.09369   0.18768   0.00000  Uiso   1.00
C242   C     0.12951   0.06549   0.31171   0.00000  Uiso   1.00
C243   C     0.28482   0.99257   0.49784   0.00000  Uiso   1.00
C244   C     0.02157   0.29691   0.20496   0.00000  Uiso   1.00
C245   C     0.03768   0.32201   0.18534   0.00000  Uiso   1.00
C246   C     0.11237   0.38332   0.25075   0.00000  Uiso   1.00
C247   C     0.11445   0.39692   0.21885   0.00000  Uiso   1.00
C248   C     0.86904   0.29488   0.05598   0.00000  Uiso   1.00
C249   C     0.80195   0.33336   0.01264   0.00000  Uiso   1.00
C250   C     0.66207   0.32411   0.87186   0.00000  Uiso   1.00
C251   C     0.06949   0.21569   0.25504   0.00000  Uiso   1.00
C252   C     0.17092   0.18760   0.37904   0.00000  Uiso   1.00
C253   C     0.19977   0.11168   0.40582   0.00000  Uiso   1.00
H254   H     0.83783   0.17615   0.95886   0.00000  Uiso   1.00
H255   H     0.91521   0.25373   0.98667   0.00000  Uiso   1.00
H256   H     0.60485   0.20377   0.74862   0.00000  Uiso   1.00
H257   H     0.97376   0.05804   0.11496   0.00000  Uiso   1.00
H258   H     0.03189   0.36010   0.05890   0.00000  Uiso   1.00
H259   H     0.37747   0.25474   0.55695   0.00000  Uiso   1.00
H260   H     0.15538   0.94742   0.32945   0.00000  Uiso   1.00
H261   H     0.07617   0.33281   0.27810   0.00000  Uiso   1.00
H262   H     0.16663   0.41899   0.32344   0.00000  Uiso   1.00
H263   H     0.85626   0.36903   0.08538   0.00000  Uiso   1.00
H264   H     0.22517   0.22329   0.45172   0.00000  Uiso   1.00
H265   H     0.23595   0.49423   0.33223   0.00000  Uiso   1.00
H266   H     0.58152   0.38886   0.83027   0.00000  Uiso   1.00
H267   H     0.35944   0.08155   0.60278   0.00000  Uiso   1.00
O268   O     0.18909   0.48105   0.21959   0.00000  Uiso   1.00
O269   O     0.33052   0.34280   0.56106   0.00000  Uiso   1.00
O270   O     0.35113   0.93961   0.57456   0.00000  Uiso   1.00
N271   N     0.06752   0.37983   0.11703   0.00000  Uiso   1.00
N272   N     0.45567   0.28133   0.64773   0.00000  Uiso   1.00
N273   N     0.18293   0.99401   0.36993   0.00000  Uiso   1.00
N274   N     0.17732   0.45200   0.26411   0.00000  Uiso   1.00
N275   N     0.56548   0.35351   0.79480   0.00000  Uiso   1.00
N276   N     0.29274   0.06618   0.51701   0.00000  Uiso   1.00
C277   C     0.51173   0.38547   0.35893   0.00000  Uiso   1.00
C278   C     0.61459   0.35346   0.48847   0.00000  Uiso   1.00
C279   C     0.65099   0.38536   0.55583   0.00000  Uiso   1.00
C280   C     0.74696   0.34739   0.67266   0.00000  Uiso   1.00
C281   C     0.89790   0.30793   0.86651   0.00000  Uiso   1.00
C282   C     0.40605   0.32416   0.24567   0.00000  Uiso   1.00
C283   C     0.26710   0.33143   0.10888   0.00000  Uiso   1.00
C284   C     0.18751   0.26880   0.02132   0.00000  Uiso   1.00
C285   C     0.01466   0.18387   0.83819   0.00000  Uiso   1.00
C286   C     0.58698   0.39368   0.40275   0.00000  Uiso   1.00
C287   C     0.60015   0.45940   0.39799   0.00000  Uiso   1.00
C288   C     0.67287   0.45528   0.44264   0.00000  Uiso   1.00
C289   C     0.78095   0.47830   0.50339   0.00000  Uiso   1.00
C290   C     0.61744   0.26130   0.44664   0.00000  Uiso   1.00
C291   C     0.67201   0.28602   0.53611   0.00000  Uiso   1.00
C292   C     0.76795   0.24799   0.65287   0.00000  Uiso   1.00
C293   C     0.80449   0.27982   0.72039   0.00000  Uiso   1.00
C294   C     0.46346   0.25672   0.29331   0.00000  Uiso   1.00
C295   C     0.38406   0.19406   0.20593   0.00000  Uiso   1.00
C296   C     0.24503   0.20123   0.06905   0.00000  Uiso   1.00
C297   C     0.64440   0.32624   0.45039   0.00000  Uiso   1.00
C298   C     0.71711   0.32202   0.49504   0.00000  Uiso   1.00
C299   C     0.73039   0.38772   0.49037   0.00000  Uiso   1.00
H300   H     0.46702   0.43797   0.32183   0.00000  Uiso   1.00
H301   H     0.60653   0.43755   0.51892   0.00000  Uiso   1.00
H302   H     0.22270   0.38363   0.07204   0.00000  Uiso   1.00
H303   H     0.55570   0.51158   0.36112   0.00000  Uiso   1.00
H304   H     0.78648   0.40733   0.75841   0.00000  Uiso   1.00
H305   H     0.97715   0.29365   0.81613   0.00000  Uiso   1.00
H306   H     0.67934   0.56345   0.42568   0.00000  Uiso   1.00
H307   H     0.66214   0.20879   0.48373   0.00000  Uiso   1.00
H308   H     0.81236   0.19580   0.68971   0.00000  Uiso   1.00
H309   H     0.42852   0.14188   0.24283   0.00000  Uiso   1.00
H310   H     0.76153   0.26982   0.53190   0.00000  Uiso   1.00
H311   H     0.95354   0.21111   0.89702   0.00000  Uiso   1.00
H312   H     0.14420   0.09743   0.95473   0.00000  Uiso   1.00
H313   H     0.84640   0.36723   0.56430   0.00000  Uiso   1.00
O314   O     0.96527   0.30479   0.96026   0.00000  Uiso   1.00
O315   O     0.90346   0.15566   0.72402   0.00000  Uiso   1.00
O316   O     0.82472   0.50962   0.52376   0.00000  Uiso   1.00
N317   N     0.80520   0.36294   0.76278   0.00000  Uiso   1.00
N318   N     0.04852   0.25665   0.88181   0.00000  Uiso   1.00
N319   N     0.70499   0.50889   0.45166   0.00000  Uiso   1.00
N320   N     0.89509   0.25736   0.83737   0.00000  Uiso   1.00
N321   N     0.13842   0.15107   0.95640   0.00000  Uiso   1.00
N322   N     0.79488   0.40330   0.52625   0.00000  Uiso   1.00
C323   C     0.10756   0.71204   0.46799   0.00000  Uiso   1.00
C324   C     0.03245   0.77591   0.40860   0.00000  Uiso   1.00
C325   C     0.03049   0.78942   0.44061   0.00000  Uiso   1.00
C326   C     0.95582   0.85074   0.37527   0.00000  Uiso   1.00
C327   C     0.84993   0.94293   0.29739   0.00000  Uiso   1.00
C328   C     0.20109   0.74878   0.53796   0.00000  Uiso   1.00
C329   C     0.34091   0.73946   0.67871   0.00000  Uiso   1.00
C330   C     0.40819   0.77793   0.72225   0.00000  Uiso   1.00
C331   C     0.56410   0.82794   0.84518   0.00000  Uiso   1.00
C332   C     0.00065   0.66959   0.33891   0.00000  Uiso   1.00
C333   C     0.97195   0.59369   0.31232   0.00000  Uiso   1.00
C334   C     0.87049   0.56549   0.18829   0.00000  Uiso   1.00
C335   C     0.71518   0.49257   0.00216   0.00000  Uiso   1.00
C336   C     0.97843   0.79691   0.29504   0.00000  Uiso   1.00
C337   C     0.96232   0.82201   0.31466   0.00000  Uiso   1.00
C338   C     0.88763   0.88332   0.24925   0.00000  Uiso   1.00
C339   C     0.88555   0.89692   0.28115   0.00000  Uiso   1.00
C340   C     0.13096   0.79488   0.44402   0.00000  Uiso   1.00
C341   C     0.19805   0.83336   0.48736   0.00000  Uiso   1.00
C342   C     0.33793   0.82411   0.62814   0.00000  Uiso   1.00
C343   C     0.93051   0.71569   0.24496   0.00000  Uiso   1.00
C344   C     0.82908   0.68760   0.12096   0.00000  Uiso   1.00
C345   C     0.80023   0.61168   0.09418   0.00000  Uiso   1.00
H346   H     0.16217   0.67615   0.54114   0.00000  Uiso   1.00
H347   H     0.08479   0.75373   0.51333   0.00000  Uiso   1.00
H348   H     0.39515   0.70377   0.75138   0.00000  Uiso   1.00
H349   H     0.02624   0.55804   0.38504   0.00000  Uiso   1.00
H350   H     0.96811   0.86010   0.44110   0.00000  Uiso   1.00
H351   H     0.62253   0.75474   0.94305   0.00000  Uiso   1.00
H352   H     0.84462   0.44742   0.17055   0.00000  Uiso   1.00
H353   H     0.92383   0.83281   0.22190   0.00000  Uiso   1.00
H354   H     0.83337   0.91899   0.17656   0.00000  Uiso   1.00
H355   H     0.14374   0.86903   0.41462   0.00000  Uiso   1.00
H356   H     0.77483   0.72329   0.04828   0.00000  Uiso   1.00
H357   H     0.76405   0.99423   0.16777   0.00000  Uiso   1.00
H358   H     0.41848   0.88886   0.66973   0.00000  Uiso   1.00
H359   H     0.64056   0.58155   0.89722   0.00000  Uiso   1.00
O360   O     0.81091   0.98105   0.28041   0.00000  Uiso   1.00
O361   O     0.66948   0.84280   0.93894   0.00000  Uiso   1.00
O362   O     0.64887   0.43961   0.92544   0.00000  Uiso   1.00
N363   N     0.93248   0.87983   0.38297   0.00000  Uiso   1.00
N364   N     0.54433   0.78133   0.85227   0.00000  Uiso   1.00
N365   N     0.81707   0.49401   0.13007   0.00000  Uiso   1.00
N366   N     0.82268   0.95200   0.23589   0.00000  Uiso   1.00
N367   N     0.43452   0.85351   0.70520   0.00000  Uiso   1.00
N368   N     0.70726   0.56618   0.98299   0.00000  Uiso   1.00
