data_job_06685
_audit_creation_date              2018-12-19
_audit_creation_method            'Materials Studio'
_symmetry_space_group_name_H-M    'P1'
_symmetry_Int_Tables_number       1
_symmetry_cell_setting            triclinic
loop_
_symmetry_equiv_pos_as_xyz
  x,y,z
_cell_length_a                    20.8492
_cell_length_b                    23.0355
_cell_length_c                    23.2161
_cell_angle_alpha                 117.0344
_cell_angle_beta                  100.0785
_cell_angle_gamma                 89.1628
loop_
_atom_site_label
_atom_site_type_symbol
_atom_site_fract_x
_atom_site_fract_y
_atom_site_fract_z
_atom_site_U_iso_or_equiv
_atom_site_adp_type
_atom_site_occupancy
C1     C     0.40017   0.61535   0.87185   0.00000  Uiso   1.00
C2     C     0.35503   0.64213   0.83187   0.00000  Uiso   1.00
C3     C     0.28728   0.63732   0.82105   0.00000  Uiso   1.00
C4     C     0.25487   0.66498   0.78311   0.00000  Uiso   1.00
C5     C     0.17958   0.70178   0.72499   0.00000  Uiso   1.00
C6     C     0.44314   0.57012   0.82583   0.00000  Uiso   1.00
C7     C     0.44946   0.50476   0.80994   0.00000  Uiso   1.00
C8     C     0.49123   0.47181   0.76692   0.00000  Uiso   1.00
C9     C     0.55277   0.39681   0.69945   0.00000  Uiso   1.00
C10    C     0.44545   0.67331   0.92486   0.00000  Uiso   1.00
C11    C     0.45374   0.69472   0.99223   0.00000  Uiso   1.00
C12    C     0.49747   0.74863   0.03259   0.00000  Uiso   1.00
C13    C     0.56260   0.83386   0.11888   0.00000  Uiso   1.00
C14    C     0.46309   0.67302   0.82373   0.00000  Uiso   1.00
C15    C     0.38921   0.67346   0.80573   0.00000  Uiso   1.00
C16    C     0.35689   0.70113   0.76781   0.00000  Uiso   1.00
C17    C     0.28910   0.69637   0.75693   0.00000  Uiso   1.00
C18    C     0.47731   0.60144   0.79969   0.00000  Uiso   1.00
C19    C     0.51908   0.56857   0.75669   0.00000  Uiso   1.00
C20    C     0.52547   0.50319   0.74073   0.00000  Uiso   1.00
C21    C     0.47963   0.70464   0.89872   0.00000  Uiso   1.00
C22    C     0.52336   0.75853   0.93898   0.00000  Uiso   1.00
C23    C     0.53171   0.78001   0.00640   0.00000  Uiso   1.00
H24    H     0.37356   0.59096   0.89220   0.00000  Uiso   1.00
H25    H     0.26084   0.61307   0.84128   0.00000  Uiso   1.00
H26    H     0.42301   0.48054   0.83018   0.00000  Uiso   1.00
H27    H     0.42729   0.67046   0.01244   0.00000  Uiso   1.00
H28    H     0.15095   0.65139   0.77328   0.00000  Uiso   1.00
H29    H     0.49291   0.37193   0.74988   0.00000  Uiso   1.00
H30    H     0.50192   0.77243   0.13422   0.00000  Uiso   1.00
H31    H     0.48970   0.69741   0.80337   0.00000  Uiso   1.00
H32    H     0.38336   0.72537   0.74758   0.00000  Uiso   1.00
H33    H     0.54552   0.59283   0.73648   0.00000  Uiso   1.00
H34    H     0.54980   0.78276   0.91874   0.00000  Uiso   1.00
H35    H     0.25039   0.74253   0.69723   0.00000  Uiso   1.00
H36    H     0.59235   0.46308   0.67383   0.00000  Uiso   1.00
H37    H     0.60136   0.86357   0.05817   0.00000  Uiso   1.00
O38    O     0.12862   0.71341   0.70014   0.00000  Uiso   1.00
O39    O     0.57726   0.34678   0.66945   0.00000  Uiso   1.00
O40    O     0.58908   0.87222   0.17369   0.00000  Uiso   1.00
N41    N     0.18895   0.66901   0.76305   0.00000  Uiso   1.00
N42    N     0.50865   0.40774   0.74117   0.00000  Uiso   1.00
N43    N     0.51709   0.78215   0.10049   0.00000  Uiso   1.00
N44    N     0.24245   0.71806   0.72213   0.00000  Uiso   1.00
N45    N     0.56215   0.45678   0.70024   0.00000  Uiso   1.00
N46    N     0.57060   0.83120   0.05957   0.00000  Uiso   1.00
C47    C     0.01057   0.37314   0.90066   0.00000  Uiso   1.00
C48    C     0.04055   0.41594   0.87642   0.00000  Uiso   1.00
C49    C     0.00612   0.44860   0.84472   0.00000  Uiso   1.00
C50    C     0.04254   0.48525   0.82641   0.00000  Uiso   1.00
C51    C     0.07870   0.55110   0.78677   0.00000  Uiso   1.00
C52    C     0.03814   0.30660   0.86795   0.00000  Uiso   1.00
C53    C     0.00167   0.24733   0.82915   0.00000  Uiso   1.00
C54    C     0.03607   0.19193   0.80373   0.00000  Uiso   1.00
C55    C     0.06847   0.08803   0.75098   0.00000  Uiso   1.00
C56    C     0.03930   0.40166   0.97397   0.00000  Uiso   1.00
C57    C     0.00382   0.42231   0.02430   0.00000  Uiso   1.00
C58    C     0.03920   0.44694   0.08814   0.00000  Uiso   1.00
C59    C     0.07341   0.49065   0.20000   0.00000  Uiso   1.00
C60    C     0.13649   0.38013   0.92454   0.00000  Uiso   1.00
C61    C     0.10895   0.41973   0.88938   0.00000  Uiso   1.00
C62    C     0.14544   0.45634   0.87113   0.00000  Uiso   1.00
C63    C     0.11106   0.48906   0.83941   0.00000  Uiso   1.00
C64    C     0.10653   0.31040   0.88092   0.00000  Uiso   1.00
C65    C     0.14099   0.25507   0.85556   0.00000  Uiso   1.00
C66    C     0.10459   0.19574   0.81672   0.00000  Uiso   1.00
C67    C     0.10770   0.40547   0.98694   0.00000  Uiso   1.00
C68    C     0.14314   0.43006   0.05071   0.00000  Uiso   1.00
C69    C     0.10772   0.45075   0.10113   0.00000  Uiso   1.00
H70    H     0.95732   0.37017   0.89057   0.00000  Uiso   1.00
H71    H     0.95319   0.44564   0.83469   0.00000  Uiso   1.00
H72    H     0.94874   0.24440   0.81912   0.00000  Uiso   1.00
H73    H     0.95089   0.41937   0.01425   0.00000  Uiso   1.00
H74    H     0.97877   0.53097   0.77843   0.00000  Uiso   1.00
H75    H     0.96940   0.10664   0.74563   0.00000  Uiso   1.00
H76    H     0.97393   0.47559   0.15710   0.00000  Uiso   1.00
H77    H     0.18974   0.38309   0.93463   0.00000  Uiso   1.00
H78    H     0.19837   0.45928   0.88117   0.00000  Uiso   1.00
H79    H     0.19392   0.25803   0.86560   0.00000  Uiso   1.00
H80    H     0.19607   0.43300   0.06073   0.00000  Uiso   1.00
H81    H     0.17777   0.54203   0.81615   0.00000  Uiso   1.00
H82    H     0.16839   0.11770   0.78336   0.00000  Uiso   1.00
H83    H     0.17292   0.48665   0.19482   0.00000  Uiso   1.00
O84    O     0.07975   0.58637   0.76131   0.00000  Uiso   1.00
O85    O     0.06745   0.02966   0.71829   0.00000  Uiso   1.00
O86    O     0.07339   0.51371   0.25812   0.00000  Uiso   1.00
N87    N     0.02442   0.52313   0.79466   0.00000  Uiso   1.00
N88    N     0.01566   0.12641   0.76399   0.00000  Uiso   1.00
N89    N     0.01989   0.47132   0.14867   0.00000  Uiso   1.00
N90    N     0.13150   0.52908   0.81496   0.00000  Uiso   1.00
N91    N     0.12274   0.13236   0.78429   0.00000  Uiso   1.00
N92    N     0.12697   0.47728   0.16897   0.00000  Uiso   1.00
C93    C     0.96696   0.71529   0.56111   0.00000  Uiso   1.00
C94    C     0.93856   0.68052   0.59439   0.00000  Uiso   1.00
C95    C     0.97433   0.65697   0.63458   0.00000  Uiso   1.00
C96    C     0.93925   0.62661   0.66029   0.00000  Uiso   1.00
C97    C     0.90557   0.57358   0.71406   0.00000  Uiso   1.00
C98    C     0.93929   0.67619   0.48768   0.00000  Uiso   1.00
C99    C     0.97568   0.64901   0.43816   0.00000  Uiso   1.00
C100   C     0.94120   0.61501   0.37405   0.00000  Uiso   1.00
C101   C     0.90865   0.55530   0.26216   0.00000  Uiso   1.00
C102   C     0.93673   0.78092   0.58358   0.00000  Uiso   1.00
C103   C     0.97095   0.84181   0.61467   0.00000  Uiso   1.00
C104   C     0.93432   0.89600   0.63128   0.00000  Uiso   1.00
C105   C     0.89778   0.99890   0.66827   0.00000  Uiso   1.00
C106   C     0.84104   0.70325   0.53530   0.00000  Uiso   1.00
C107   C     0.87017   0.67398   0.58036   0.00000  Uiso   1.00
C108   C     0.83502   0.64365   0.60602   0.00000  Uiso   1.00
C109   C     0.87073   0.62006   0.64625   0.00000  Uiso   1.00
C110   C     0.87090   0.66965   0.47366   0.00000  Uiso   1.00
C111   C     0.83636   0.63569   0.40961   0.00000  Uiso   1.00
C112   C     0.87269   0.60846   0.36001   0.00000  Uiso   1.00
C113   C     0.86833   0.77438   0.56956   0.00000  Uiso   1.00
C114   C     0.83164   0.82849   0.58611   0.00000  Uiso   1.00
C115   C     0.86580   0.88944   0.61723   0.00000  Uiso   1.00
H116   H     0.02020   0.72038   0.57202   0.00000  Uiso   1.00
H117   H     0.02726   0.66203   0.64541   0.00000  Uiso   1.00
H118   H     0.02860   0.65408   0.44903   0.00000  Uiso   1.00
H119   H     0.02388   0.84685   0.62551   0.00000  Uiso   1.00
H120   H     0.00493   0.59444   0.72058   0.00000  Uiso   1.00
H121   H     0.00775   0.57769   0.30649   0.00000  Uiso   1.00
H122   H     0.99779   0.98418   0.67863   0.00000  Uiso   1.00
H123   H     0.78779   0.69816   0.52438   0.00000  Uiso   1.00
H124   H     0.78209   0.63860   0.59517   0.00000  Uiso   1.00
H125   H     0.78344   0.63064   0.39878   0.00000  Uiso   1.00
H126   H     0.77871   0.82341   0.57526   0.00000  Uiso   1.00
H127   H     0.80594   0.57541   0.67979   0.00000  Uiso   1.00
H128   H     0.80877   0.55867   0.26570   0.00000  Uiso   1.00
H129   H     0.79880   0.96515   0.63784   0.00000  Uiso   1.00
O130   O     0.90588   0.54612   0.74759   0.00000  Uiso   1.00
O131   O     0.90959   0.52416   0.20432   0.00000  Uiso   1.00
O132   O     0.89652   0.05746   0.69256   0.00000  Uiso   1.00
N133   N     0.95888   0.59815   0.70128   0.00000  Uiso   1.00
N134   N     0.96152   0.58248   0.31413   0.00000  Uiso   1.00
N135   N     0.95221   0.96251   0.66203   0.00000  Uiso   1.00
N136   N     0.85180   0.58791   0.67933   0.00000  Uiso   1.00
N137   N     0.85445   0.57224   0.29218   0.00000  Uiso   1.00
N138   N     0.84513   0.95228   0.64008   0.00000  Uiso   1.00
C139   C     0.43869   0.21790   0.30385   0.00000  Uiso   1.00
C140   C     0.37744   0.19393   0.31662   0.00000  Uiso   1.00
C141   C     0.31399   0.20736   0.29906   0.00000  Uiso   1.00
C142   C     0.26466   0.18088   0.31510   0.00000  Uiso   1.00
C143   C     0.16747   0.14949   0.32997   0.00000  Uiso   1.00
C144   C     0.47239   0.15684   0.26499   0.00000  Uiso   1.00
C145   C     0.48878   0.13910   0.20403   0.00000  Uiso   1.00
C146   C     0.51939   0.08139   0.17662   0.00000  Uiso   1.00
C147   C     0.56965   0.99244   0.11136   0.00000  Uiso   1.00
C148   C     0.48353   0.25432   0.37085   0.00000  Uiso   1.00
C149   C     0.50930   0.31854   0.39890   0.00000  Uiso   1.00
C150   C     0.54930   0.34290   0.46061   0.00000  Uiso   1.00
C151   C     0.61686   0.40530   0.55971   0.00000  Uiso   1.00
C152   C     0.46392   0.14697   0.36357   0.00000  Uiso   1.00
C153   C     0.39115   0.15540   0.34905   0.00000  Uiso   1.00
C154   C     0.34190   0.12889   0.36513   0.00000  Uiso   1.00
C155   C     0.27839   0.14228   0.34760   0.00000  Uiso   1.00
C156   C     0.48609   0.11831   0.29743   0.00000  Uiso   1.00
C157   C     0.51669   0.06062   0.27011   0.00000  Uiso   1.00
C158   C     0.53312   0.04279   0.20912   0.00000  Uiso   1.00
C159   C     0.49723   0.21579   0.40329   0.00000  Uiso   1.00
C160   C     0.53721   0.24006   0.46497   0.00000  Uiso   1.00
C161   C     0.56303   0.30430   0.49311   0.00000  Uiso   1.00
H162   H     0.42802   0.24789   0.27859   0.00000  Uiso   1.00
H163   H     0.30340   0.23718   0.27395   0.00000  Uiso   1.00
H164   H     0.47817   0.16892   0.17895   0.00000  Uiso   1.00
H165   H     0.49868   0.34833   0.37378   0.00000  Uiso   1.00
H166   H     0.17128   0.20829   0.28309   0.00000  Uiso   1.00
H167   H     0.53981   0.06438   0.08277   0.00000  Uiso   1.00
H168   H     0.58307   0.44271   0.49362   0.00000  Uiso   1.00
H169   H     0.47459   0.11697   0.38882   0.00000  Uiso   1.00
H170   H     0.35252   0.09908   0.39023   0.00000  Uiso   1.00
H171   H     0.52729   0.03082   0.29522   0.00000  Uiso   1.00
H172   H     0.54780   0.21023   0.49006   0.00000  Uiso   1.00
H173   H     0.21115   0.09620   0.37747   0.00000  Uiso   1.00
H174   H     0.57968   0.95229   0.17715   0.00000  Uiso   1.00
H175   H     0.62294   0.33061   0.58800   0.00000  Uiso   1.00
O176   O     0.11008   0.14281   0.32920   0.00000  Uiso   1.00
O177   O     0.59358   0.95402   0.06640   0.00000  Uiso   1.00
O178   O     0.65033   0.45037   0.60542   0.00000  Uiso   1.00
N179   N     0.19742   0.18437   0.30512   0.00000  Uiso   1.00
N180   N     0.54196   0.04982   0.11783   0.00000  Uiso   1.00
N181   N     0.58242   0.40352   0.50193   0.00000  Uiso   1.00
N182   N     0.21887   0.12406   0.35590   0.00000  Uiso   1.00
N183   N     0.56341   0.98951   0.16861   0.00000  Uiso   1.00
N184   N     0.60387   0.34321   0.55271   0.00000  Uiso   1.00
C185   C     0.81356   0.15402   0.04083   0.00000  Uiso   1.00
C186   C     0.88185   0.13988   0.06521   0.00000  Uiso   1.00
C187   C     0.89619   0.10005   0.09539   0.00000  Uiso   1.00
C188   C     0.96176   0.09338   0.11408   0.00000  Uiso   1.00
C189   C     0.06028   0.06653   0.15359   0.00000  Uiso   1.00
C190   C     0.80955   0.13444   0.96804   0.00000  Uiso   1.00
C191   C     0.76309   0.09004   0.91653   0.00000  Uiso   1.00
C192   C     0.76779   0.07880   0.85342   0.00000  Uiso   1.00
C193   C     0.75404   0.04355   0.74208   0.00000  Uiso   1.00
C194   C     0.81161   0.22815   0.07521   0.00000  Uiso   1.00
C195   C     0.76687   0.26254   0.11380   0.00000  Uiso   1.00
C196   C     0.77330   0.33020   0.14092   0.00000  Uiso   1.00
C197   C     0.76274   0.44044   0.19597   0.00000  Uiso   1.00
C198   C     0.90452   0.21302   0.02035   0.00000  Uiso   1.00
C199   C     0.93125   0.17193   0.05408   0.00000  Uiso   1.00
C200   C     0.99682   0.16532   0.07273   0.00000  Uiso   1.00
C201   C     0.01125   0.12548   0.10294   0.00000  Uiso   1.00
C202   C     0.85895   0.16649   0.95691   0.00000  Uiso   1.00
C203   C     0.86372   0.15531   0.89387   0.00000  Uiso   1.00
C204   C     0.81728   0.11090   0.84228   0.00000  Uiso   1.00
C205   C     0.86101   0.26020   0.06409   0.00000  Uiso   1.00
C206   C     0.86750   0.32781   0.09114   0.00000  Uiso   1.00
C207   C     0.82279   0.36230   0.12977   0.00000  Uiso   1.00
H208   H     0.77510   0.12907   0.04949   0.00000  Uiso   1.00
H209   H     0.85794   0.07525   0.10399   0.00000  Uiso   1.00
H210   H     0.72486   0.06526   0.92516   0.00000  Uiso   1.00
H211   H     0.72865   0.23773   0.12240   0.00000  Uiso   1.00
H212   H     0.97158   0.02970   0.15948   0.00000  Uiso   1.00
H213   H     0.69096   0.00864   0.78240   0.00000  Uiso   1.00
H214   H     0.69893   0.37233   0.19833   0.00000  Uiso   1.00
H215   H     0.94298   0.23796   0.01168   0.00000  Uiso   1.00
H216   H     0.03504   0.19012   0.06411   0.00000  Uiso   1.00
H217   H     0.90196   0.18012   0.88528   0.00000  Uiso   1.00
H218   H     0.90574   0.35260   0.08252   0.00000  Uiso   1.00
H219   H     0.11532   0.12293   0.12711   0.00000  Uiso   1.00
H220   H     0.83469   0.10187   0.75003   0.00000  Uiso   1.00
H221   H     0.84267   0.46556   0.16596   0.00000  Uiso   1.00
O222   O     0.10098   0.04286   0.17845   0.00000  Uiso   1.00
O223   O     0.73281   0.01524   0.68374   0.00000  Uiso   1.00
O224   O     0.74327   0.49239   0.22943   0.00000  Uiso   1.00
N225   N     0.99277   0.05822   0.14468   0.00000  Uiso   1.00
N226   N     0.73042   0.03852   0.79213   0.00000  Uiso   1.00
N227   N     0.73786   0.37854   0.18098   0.00000  Uiso   1.00
N228   N     0.07012   0.10838   0.12726   0.00000  Uiso   1.00
N229   N     0.80776   0.08868   0.77472   0.00000  Uiso   1.00
N230   N     0.81520   0.42870   0.16356   0.00000  Uiso   1.00
C231   C     0.19464   0.89079   0.38343   0.00000  Uiso   1.00
C232   C     0.13203   0.90603   0.34951   0.00000  Uiso   1.00
C233   C     0.12857   0.93935   0.31219   0.00000  Uiso   1.00
C234   C     0.06664   0.94833   0.28528   0.00000  Uiso   1.00
C235   C     0.97801   0.97555   0.23105   0.00000  Uiso   1.00
C236   C     0.19052   0.81684   0.35745   0.00000  Uiso   1.00
C237   C     0.23625   0.77517   0.32682   0.00000  Uiso   1.00
C238   C     0.22356   0.70906   0.30660   0.00000  Uiso   1.00
C239   C     0.22576   0.59780   0.26475   0.00000  Uiso   1.00
C240   C     0.19020   0.91982   0.45604   0.00000  Uiso   1.00
C241   C     0.23567   0.96472   0.50830   0.00000  Uiso   1.00
C242   C     0.22273   0.98531   0.57108   0.00000  Uiso   1.00
C243   C     0.22443   0.03395   0.68230   0.00000  Uiso   1.00
C244   C     0.09080   0.84749   0.40199   0.00000  Uiso   1.00
C245   C     0.07563   0.88251   0.35959   0.00000  Uiso   1.00
C246   C     0.01369   0.89144   0.33273   0.00000  Uiso   1.00
C247   C     0.01014   0.92477   0.29538   0.00000  Uiso   1.00
C248   C     0.13413   0.79332   0.36753   0.00000  Uiso   1.00
C249   C     0.12137   0.72726   0.34736   0.00000  Uiso   1.00
C250   C     0.16706   0.68549   0.31670   0.00000  Uiso   1.00
C251   C     0.13380   0.89630   0.46612   0.00000  Uiso   1.00
C252   C     0.12079   0.91682   0.52884   0.00000  Uiso   1.00
C253   C     0.16623   0.96174   0.58118   0.00000  Uiso   1.00
H254   H     0.23854   0.90910   0.37558   0.00000  Uiso   1.00
H255   H     0.17223   0.95754   0.30440   0.00000  Uiso   1.00
H256   H     0.27989   0.79338   0.31903   0.00000  Uiso   1.00
H257   H     0.27931   0.98291   0.50048   0.00000  Uiso   1.00
H258   H     0.07383   0.00086   0.22991   0.00000  Uiso   1.00
H259   H     0.30086   0.65472   0.26078   0.00000  Uiso   1.00
H260   H     0.29964   0.05438   0.64340   0.00000  Uiso   1.00
H261   H     0.04689   0.82917   0.40984   0.00000  Uiso   1.00
H262   H     0.97006   0.87323   0.34054   0.00000  Uiso   1.00
H263   H     0.07772   0.70907   0.35517   0.00000  Uiso   1.00
H264   H     0.07714   0.89860   0.53662   0.00000  Uiso   1.00
H265   H     0.90974   0.93243   0.25924   0.00000  Uiso   1.00
H266   H     0.13677   0.58629   0.29012   0.00000  Uiso   1.00
H267   H     0.13555   0.98595   0.67273   0.00000  Uiso   1.00
O268   O     0.94470   0.99705   0.19835   0.00000  Uiso   1.00
O269   O     0.24255   0.54293   0.23887   0.00000  Uiso   1.00
O270   O     0.24095   0.06728   0.74085   0.00000  Uiso   1.00
N271   N     0.04576   0.97872   0.24633   0.00000  Uiso   1.00
N272   N     0.25801   0.65510   0.27519   0.00000  Uiso   1.00
N273   N     0.25688   0.02874   0.63291   0.00000  Uiso   1.00
N274   N     0.95746   0.94190   0.26211   0.00000  Uiso   1.00
N275   N     0.16971   0.61828   0.29097   0.00000  Uiso   1.00
N276   N     0.16858   0.99192   0.64869   0.00000  Uiso   1.00
C277   C     0.86169   0.10720   0.42782   0.00000  Uiso   1.00
C278   C     0.93336   0.09697   0.44598   0.00000  Uiso   1.00
C279   C     0.98628   0.13804   0.45501   0.00000  Uiso   1.00
C280   C     0.04799   0.12013   0.47148   0.00000  Uiso   1.00
C281   C     0.15799   0.11293   0.49863   0.00000  Uiso   1.00
C282   C     0.82868   0.10718   0.48146   0.00000  Uiso   1.00
C283   C     0.79358   0.15683   0.52032   0.00000  Uiso   1.00
C284   C     0.76716   0.14751   0.56666   0.00000  Uiso   1.00
C285   C     0.71460   0.15613   0.64885   0.00000  Uiso   1.00
C286   C     0.83365   0.04559   0.36506   0.00000  Uiso   1.00
C287   C     0.80271   0.04346   0.30604   0.00000  Uiso   1.00
C288   C     0.78046   0.98227   0.25438   0.00000  Uiso   1.00
C289   C     0.73561   0.89528   0.15584   0.00000  Uiso   1.00
C290   C     0.87717   0.00234   0.44101   0.00000  Uiso   1.00
C291   C     0.94176   0.04002   0.45315   0.00000  Uiso   1.00
C292   C     0.00341   0.02203   0.46961   0.00000  Uiso   1.00
C293   C     0.05641   0.06307   0.47866   0.00000  Uiso   1.00
C294   C     0.83708   0.05023   0.48863   0.00000  Uiso   1.00
C295   C     0.81070   0.04082   0.53492   0.00000  Uiso   1.00
C296   C     0.77558   0.09045   0.57384   0.00000  Uiso   1.00
C297   C     0.84205   0.98863   0.37222   0.00000  Uiso   1.00
C298   C     0.81984   0.92744   0.32064   0.00000  Uiso   1.00
C299   C     0.78888   0.92522   0.26156   0.00000  Uiso   1.00
H300   H     0.85514   0.15154   0.42224   0.00000  Uiso   1.00
H301   H     0.97975   0.18212   0.44947   0.00000  Uiso   1.00
H302   H     0.78707   0.20090   0.51476   0.00000  Uiso   1.00
H303   H     0.79621   0.08754   0.30052   0.00000  Uiso   1.00
H304   H     0.12162   0.19092   0.48283   0.00000  Uiso   1.00
H305   H     0.71532   0.23051   0.62049   0.00000  Uiso   1.00
H306   H     0.73458   0.99147   0.16872   0.00000  Uiso   1.00
H307   H     0.88371   0.95800   0.44659   0.00000  Uiso   1.00
H308   H     0.00990   0.97795   0.47515   0.00000  Uiso   1.00
H309   H     0.81722   0.99674   0.54045   0.00000  Uiso   1.00
H310   H     0.82635   0.88338   0.32620   0.00000  Uiso   1.00
H311   H     0.14608   0.02521   0.50368   0.00000  Uiso   1.00
H312   H     0.73979   0.06480   0.64134   0.00000  Uiso   1.00
H313   H     0.75905   0.82576   0.18957   0.00000  Uiso   1.00
O314   O     0.21634   0.12470   0.51163   0.00000  Uiso   1.00
O315   O     0.68329   0.17663   0.69222   0.00000  Uiso   1.00
O316   O     0.70856   0.86302   0.09951   0.00000  Uiso   1.00
N317   N     0.11006   0.14917   0.48381   0.00000  Uiso   1.00
N318   N     0.73021   0.18619   0.61252   0.00000  Uiso   1.00
N319   N     0.74820   0.96271   0.19016   0.00000  Uiso   1.00
N320   N     0.12322   0.06001   0.49503   0.00000  Uiso   1.00
N321   N     0.74337   0.09703   0.62373   0.00000  Uiso   1.00
N322   N     0.76136   0.87355   0.20137   0.00000  Uiso   1.00
C323   C     0.36144   0.42956   0.38026   0.00000  Uiso   1.00
C324   C     0.31105   0.39683   0.39862   0.00000  Uiso   1.00
C325   C     0.32476   0.36504   0.43730   0.00000  Uiso   1.00
C326   C     0.27183   0.33830   0.44841   0.00000  Uiso   1.00
C327   C     0.20337   0.28677   0.48100   0.00000  Uiso   1.00
C328   C     0.34395   0.50018   0.40333   0.00000  Uiso   1.00
C329   C     0.38532   0.55529   0.44596   0.00000  Uiso   1.00
C330   C     0.36009   0.61555   0.46102   0.00000  Uiso   1.00
C331   C     0.34273   0.72447   0.50088   0.00000  Uiso   1.00
C332   C     0.34819   0.39786   0.30523   0.00000  Uiso   1.00
C333   C     0.39312   0.36694   0.26537   0.00000  Uiso   1.00
C334   C     0.37146   0.34106   0.19784   0.00000  Uiso   1.00
C335   C     0.36067   0.29110   0.08538   0.00000  Uiso   1.00
C336   C     0.24306   0.43859   0.33121   0.00000  Uiso   1.00
C337   C     0.24676   0.40174   0.37198   0.00000  Uiso   1.00
C338   C     0.19379   0.37504   0.38303   0.00000  Uiso   1.00
C339   C     0.20742   0.34322   0.42172   0.00000  Uiso   1.00
C340   C     0.27966   0.50509   0.37669   0.00000  Uiso   1.00
C341   C     0.25436   0.56528   0.39169   0.00000  Uiso   1.00
C342   C     0.29568   0.62047   0.43433   0.00000  Uiso   1.00
C343   C     0.28389   0.40276   0.27858   0.00000  Uiso   1.00
C344   C     0.26216   0.37693   0.21110   0.00000  Uiso   1.00
C345   C     0.30705   0.34598   0.17115   0.00000  Uiso   1.00
H346   H     0.41149   0.42574   0.40101   0.00000  Uiso   1.00
H347   H     0.37452   0.36126   0.45792   0.00000  Uiso   1.00
H348   H     0.43508   0.55148   0.46656   0.00000  Uiso   1.00
H349   H     0.44287   0.36315   0.28601   0.00000  Uiso   1.00
H350   H     0.30518   0.29196   0.50928   0.00000  Uiso   1.00
H351   H     0.43287   0.69304   0.52750   0.00000  Uiso   1.00
H352   H     0.44931   0.29592   0.14676   0.00000  Uiso   1.00
H353   H     0.19301   0.44241   0.31047   0.00000  Uiso   1.00
H354   H     0.14404   0.37884   0.36241   0.00000  Uiso   1.00
H355   H     0.20460   0.56906   0.37106   0.00000  Uiso   1.00
H356   H     0.21240   0.38074   0.19050   0.00000  Uiso   1.00
H357   H     0.11811   0.30623   0.43176   0.00000  Uiso   1.00
H358   H     0.24581   0.70731   0.44998   0.00000  Uiso   1.00
H359   H     0.26225   0.31019   0.06924   0.00000  Uiso   1.00
O360   O     0.18338   0.25700   0.50634   0.00000  Uiso   1.00
O361   O     0.35091   0.78320   0.53023   0.00000  Uiso   1.00
O362   O     0.37248   0.26219   0.03071   0.00000  Uiso   1.00
N363   N     0.26787   0.30403   0.48390   0.00000  Uiso   1.00
N364   N     0.38726   0.67902   0.50094   0.00000  Uiso   1.00
N365   N     0.40263   0.30776   0.14498   0.00000  Uiso   1.00
N366   N     0.16721   0.31171   0.44219   0.00000  Uiso   1.00
N367   N     0.28660   0.68670   0.45923   0.00000  Uiso   1.00
N368   N     0.30197   0.31544   0.10327   0.00000  Uiso   1.00
C369   C     0.42526   0.10032   0.72933   0.00000  Uiso   1.00
C370   C     0.43155   0.14007   0.69276   0.00000  Uiso   1.00
C371   C     0.38021   0.16305   0.66401   0.00000  Uiso   1.00
C372   C     0.39612   0.19848   0.63286   0.00000  Uiso   1.00
C373   C     0.39600   0.25841   0.57646   0.00000  Uiso   1.00
C374   C     0.46746   0.13833   0.79759   0.00000  Uiso   1.00
C375   C     0.44632   0.15983   0.85698   0.00000  Uiso   1.00
C376   C     0.49246   0.19380   0.91408   0.00000  Uiso   1.00
C377   C     0.54811   0.25098   0.02043   0.00000  Uiso   1.00
C378   C     0.45871   0.03770   0.69477   0.00000  Uiso   1.00
C379   C     0.43020   0.97458   0.66772   0.00000  Uiso   1.00
C380   C     0.46898   0.92381   0.63826   0.00000  Uiso   1.00
C381   C     0.51104   0.82474   0.58495   0.00000  Uiso   1.00
C382   C     0.54481   0.12240   0.72514   0.00000  Uiso   1.00
C383   C     0.49649   0.15207   0.69049   0.00000  Uiso   1.00
C384   C     0.51248   0.18747   0.65938   0.00000  Uiso   1.00
C385   C     0.46117   0.21049   0.63058   0.00000  Uiso   1.00
C386   C     0.53240   0.15033   0.79532   0.00000  Uiso   1.00
C387   C     0.57858   0.18426   0.85235   0.00000  Uiso   1.00
C388   C     0.55751   0.20581   0.91180   0.00000  Uiso   1.00
C389   C     0.52364   0.04969   0.69249   0.00000  Uiso   1.00
C390   C     0.56247   0.99901   0.66308   0.00000  Uiso   1.00
C391   C     0.53403   0.93583   0.63598   0.00000  Uiso   1.00
H392   H     0.37471   0.09099   0.73111   0.00000  Uiso   1.00
H393   H     0.32996   0.15376   0.66579   0.00000  Uiso   1.00
H394   H     0.39606   0.15054   0.85873   0.00000  Uiso   1.00
H395   H     0.37995   0.96532   0.66949   0.00000  Uiso   1.00
H396   H     0.30899   0.22866   0.59239   0.00000  Uiso   1.00
H397   H     0.44837   0.22186   0.99921   0.00000  Uiso   1.00
H398   H     0.41440   0.83128   0.60016   0.00000  Uiso   1.00
H399   H     0.59537   0.13174   0.72337   0.00000  Uiso   1.00
H400   H     0.56273   0.19674   0.65762   0.00000  Uiso   1.00
H401   H     0.62883   0.19353   0.85056   0.00000  Uiso   1.00
H402   H     0.61272   0.00831   0.66133   0.00000  Uiso   1.00
H403   H     0.49791   0.26355   0.58577   0.00000  Uiso   1.00
H404   H     0.63730   0.25674   0.99259   0.00000  Uiso   1.00
H405   H     0.60332   0.86617   0.59354   0.00000  Uiso   1.00
O406   O     0.37800   0.28816   0.54599   0.00000  Uiso   1.00
O407   O     0.56086   0.27921   0.07971   0.00000  Uiso   1.00
O408   O     0.51629   0.76679   0.55617   0.00000  Uiso   1.00
N409   N     0.35793   0.22794   0.59984   0.00000  Uiso   1.00
N410   N     0.48824   0.22159   0.98019   0.00000  Uiso   1.00
N411   N     0.45649   0.85643   0.60713   0.00000  Uiso   1.00
N412   N     0.45959   0.24672   0.59628   0.00000  Uiso   1.00
N413   N     0.58990   0.24036   0.97663   0.00000  Uiso   1.00
N414   N     0.55815   0.87520   0.60357   0.00000  Uiso   1.00
C415   C     0.86057   0.54955   0.95426   0.00000  Uiso   1.00
C416   C     0.91440   0.59193   0.95165   0.00000  Uiso   1.00
C417   C     0.98074   0.59248   0.97399   0.00000  Uiso   1.00
C418   C     0.02209   0.63474   0.96721   0.00000  Uiso   1.00
C419   C     0.10934   0.69445   0.96747   0.00000  Uiso   1.00
C420   C     0.81320   0.59656   0.99201   0.00000  Uiso   1.00
C421   C     0.79445   0.60099   0.04828   0.00000  Uiso   1.00
C422   C     0.75061   0.64715   0.07547   0.00000  Uiso   1.00
C423   C     0.68071   0.71401   0.13836   0.00000  Uiso   1.00
C424   C     0.82361   0.51094   0.88364   0.00000  Uiso   1.00
C425   C     0.81360   0.44337   0.84880   0.00000  Uiso   1.00
C426   C     0.77852   0.41744   0.78474   0.00000  Uiso   1.00
C427   C     0.72479   0.35136   0.67937   0.00000  Uiso   1.00
C428   C     0.81604   0.62363   0.90248   0.00000  Uiso   1.00
C429   C     0.89021   0.63217   0.92353   0.00000  Uiso   1.00
C430   C     0.93147   0.67444   0.91670   0.00000  Uiso   1.00
C431   C     0.99787   0.67505   0.93903   0.00000  Uiso   1.00
C432   C     0.78901   0.63680   0.96389   0.00000  Uiso   1.00
C433   C     0.74518   0.68296   0.99099   0.00000  Uiso   1.00
C434   C     0.72638   0.68746   0.04729   0.00000  Uiso   1.00
C435   C     0.79943   0.55117   0.85551   0.00000  Uiso   1.00
C436   C     0.76434   0.52534   0.79150   0.00000  Uiso   1.00
C437   C     0.75429   0.45775   0.75657   0.00000  Uiso   1.00
H438   H     0.87940   0.51822   0.97616   0.00000  Uiso   1.00
H439   H     0.99944   0.56133   0.99576   0.00000  Uiso   1.00
H440   H     0.81317   0.56984   0.07003   0.00000  Uiso   1.00
H441   H     0.83233   0.41225   0.87058   0.00000  Uiso   1.00
H442   H     0.12185   0.62689   0.00511   0.00000  Uiso   1.00
H443   H     0.72909   0.64482   0.16171   0.00000  Uiso   1.00
H444   H     0.76948   0.31250   0.74111   0.00000  Uiso   1.00
H445   H     0.79721   0.65496   0.88058   0.00000  Uiso   1.00
H446   H     0.91274   0.70558   0.89494   0.00000  Uiso   1.00
H447   H     0.72648   0.71409   0.96921   0.00000  Uiso   1.00
H448   H     0.74563   0.55649   0.76976   0.00000  Uiso   1.00
H449   H     0.05148   0.74397   0.92328   0.00000  Uiso   1.00
H450   H     0.65871   0.76189   0.07988   0.00000  Uiso   1.00
H451   H     0.69911   0.42958   0.65928   0.00000  Uiso   1.00
O452   O     0.16414   0.71627   0.97539   0.00000  Uiso   1.00
O453   O     0.64884   0.73978   0.18082   0.00000  Uiso   1.00
O454   O     0.70184   0.30379   0.62901   0.00000  Uiso   1.00
N455   N     0.08943   0.64749   0.98387   0.00000  Uiso   1.00
N456   N     0.72223   0.66426   0.13028   0.00000  Uiso   1.00
N457   N     0.75998   0.35357   0.73707   0.00000  Uiso   1.00
N458   N     0.05157   0.71049   0.93984   0.00000  Uiso   1.00
N459   N     0.68437   0.72725   0.08625   0.00000  Uiso   1.00
N460   N     0.72212   0.41657   0.69304   0.00000  Uiso   1.00
C461   C     0.52313   0.63738   0.17385   0.00000  Uiso   1.00
C462   C     0.44911   0.62374   0.15770   0.00000  Uiso   1.00
C463   C     0.40526   0.64662   0.12182   0.00000  Uiso   1.00
C464   C     0.33950   0.62871   0.11240   0.00000  Uiso   1.00
C465   C     0.22777   0.61355   0.08345   0.00000  Uiso   1.00
C466   C     0.54224   0.66799   0.24867   0.00000  Uiso   1.00
C467   C     0.57671   0.72806   0.28927   0.00000  Uiso   1.00
C468   C     0.58935   0.74739   0.35644   0.00000  Uiso   1.00
C469   C     0.62226   0.80090   0.46872   0.00000  Uiso   1.00
C470   C     0.55143   0.57074   0.14747   0.00000  Uiso   1.00
C471   C     0.59364   0.54905   0.10300   0.00000  Uiso   1.00
C472   C     0.61403   0.48651   0.08498   0.00000  Uiso   1.00
C473   C     0.66121   0.38903   0.04014   0.00000  Uiso   1.00
C474   C     0.48431   0.56488   0.22094   0.00000  Uiso   1.00
C475   C     0.42803   0.58436   0.18328   0.00000  Uiso   1.00
C476   C     0.36231   0.56641   0.17391   0.00000  Uiso   1.00
C477   C     0.31838   0.58926   0.13802   0.00000  Uiso   1.00
C478   C     0.52116   0.62861   0.27424   0.00000  Uiso   1.00
C479   C     0.53376   0.64785   0.34137   0.00000  Uiso   1.00
C480   C     0.56823   0.70794   0.38206   0.00000  Uiso   1.00
C481   C     0.53035   0.53136   0.17305   0.00000  Uiso   1.00
C482   C     0.55069   0.46884   0.15510   0.00000  Uiso   1.00
C483   C     0.59291   0.44706   0.11061   0.00000  Uiso   1.00
H484   H     0.53955   0.66804   0.15395   0.00000  Uiso   1.00
H485   H     0.42160   0.67710   0.10204   0.00000  Uiso   1.00
H486   H     0.59302   0.75852   0.26946   0.00000  Uiso   1.00
H487   H     0.60995   0.57954   0.08322   0.00000  Uiso   1.00
H488   H     0.28153   0.66979   0.05578   0.00000  Uiso   1.00
H489   H     0.64301   0.84147   0.40881   0.00000  Uiso   1.00
H490   H     0.67870   0.46405   0.01609   0.00000  Uiso   1.00
H491   H     0.46790   0.53423   0.24086   0.00000  Uiso   1.00
H492   H     0.34601   0.53594   0.19371   0.00000  Uiso   1.00
H493   H     0.51744   0.61737   0.36114   0.00000  Uiso   1.00
H494   H     0.53436   0.43838   0.17490   0.00000  Uiso   1.00
H495   H     0.22018   0.55523   0.13019   0.00000  Uiso   1.00
H496   H     0.58167   0.72690   0.48322   0.00000  Uiso   1.00
H497   H     0.61735   0.34948   0.09050   0.00000  Uiso   1.00
O498   O     0.17197   0.61607   0.06043   0.00000  Uiso   1.00
O499   O     0.64623   0.84130   0.52358   0.00000  Uiso   1.00
O500   O     0.69304   0.34613   0.00834   0.00000  Uiso   1.00
N501   N     0.28382   0.64258   0.07975   0.00000  Uiso   1.00
N502   N     0.62177   0.80310   0.40982   0.00000  Uiso   1.00
N503   N     0.65515   0.45025   0.04266   0.00000  Uiso   1.00
N504   N     0.25081   0.58094   0.11979   0.00000  Uiso   1.00
N505   N     0.58876   0.74145   0.44985   0.00000  Uiso   1.00
N506   N     0.62214   0.38860   0.08270   0.00000  Uiso   1.00
C507   C     0.17324   0.91306   0.83599   0.00000  Uiso   1.00
C508   C     0.21990   0.88421   0.87281   0.00000  Uiso   1.00
C509   C     0.20183   0.84801   0.90232   0.00000  Uiso   1.00
C510   C     0.25186   0.82597   0.93361   0.00000  Uiso   1.00
C511   C     0.31432   0.77912   0.99056   0.00000  Uiso   1.00
C512   C     0.19285   0.98616   0.86980   0.00000  Uiso   1.00
C513   C     0.15203   0.03568   0.89676   0.00000  Uiso   1.00
C514   C     0.17929   0.09947   0.92551   0.00000  Uiso   1.00
C515   C     0.19973   0.21090   0.97774   0.00000  Uiso   1.00
C516   C     0.18987   0.88611   0.76747   0.00000  Uiso   1.00
C517   C     0.14655   0.85151   0.70839   0.00000  Uiso   1.00
C518   C     0.17129   0.83107   0.65097   0.00000  Uiso   1.00
C519   C     0.18712   0.78715   0.54432   0.00000  Uiso   1.00
C520   C     0.29422   0.93831   0.83907   0.00000  Uiso   1.00
C521   C     0.28561   0.89793   0.87449   0.00000  Uiso   1.00
C522   C     0.33568   0.87594   0.90573   0.00000  Uiso   1.00
C523   C     0.31769   0.83971   0.93528   0.00000  Uiso   1.00
C524   C     0.25856   0.99988   0.87147   0.00000  Uiso   1.00
C525   C     0.28588   0.06361   0.90017   0.00000  Uiso   1.00
C526   C     0.24512   0.11321   0.92718   0.00000  Uiso   1.00
C527   C     0.25558   0.89982   0.76914   0.00000  Uiso   1.00
C528   C     0.28040   0.87944   0.71180   0.00000  Uiso   1.00
C529   C     0.23712   0.84481   0.65265   0.00000  Uiso   1.00
H530   H     0.12208   0.90238   0.83468   0.00000  Uiso   1.00
H531   H     0.15097   0.83741   0.90102   0.00000  Uiso   1.00
H532   H     0.10118   0.02505   0.89546   0.00000  Uiso   1.00
H533   H     0.09570   0.84090   0.70711   0.00000  Uiso   1.00
H534   H     0.21198   0.77144   0.97533   0.00000  Uiso   1.00
H535   H     0.10699   0.16709   0.96358   0.00000  Uiso   1.00
H536   H     0.09543   0.77878   0.56641   0.00000  Uiso   1.00
H537   H     0.34538   0.94899   0.84037   0.00000  Uiso   1.00
H538   H     0.38653   0.88656   0.90702   0.00000  Uiso   1.00
H539   H     0.33673   0.07420   0.90146   0.00000  Uiso   1.00
H540   H     0.33125   0.89006   0.71311   0.00000  Uiso   1.00
H541   H     0.40317   0.81134   0.98020   0.00000  Uiso   1.00
H542   H     0.29817   0.20699   0.96844   0.00000  Uiso   1.00
H543   H     0.28662   0.81868   0.57129   0.00000  Uiso   1.00
O544   O     0.33062   0.74950   0.02153   0.00000  Uiso   1.00
O545   O     0.19286   0.26857   0.00609   0.00000  Uiso   1.00
O546   O     0.17770   0.75913   0.48503   0.00000  Uiso   1.00
N547   N     0.25133   0.78938   0.96732   0.00000  Uiso   1.00
N548   N     0.15317   0.15929   0.95634   0.00000  Uiso   1.00
N549   N     0.14236   0.79628   0.58503   0.00000  Uiso   1.00
N550   N     0.35421   0.81085   0.96994   0.00000  Uiso   1.00
N551   N     0.25604   0.18076   0.95896   0.00000  Uiso   1.00
N552   N     0.24523   0.81774   0.58765   0.00000  Uiso   1.00
