data_job_06581
_audit_creation_date              2018-12-19
_audit_creation_method            'Materials Studio'
_symmetry_space_group_name_H-M    'P1'
_symmetry_Int_Tables_number       1
_symmetry_cell_setting            triclinic
loop_
_symmetry_equiv_pos_as_xyz
  x,y,z
_cell_length_a                    20.0630
_cell_length_b                    20.4778
_cell_length_c                    22.7107
_cell_angle_alpha                 94.5291
_cell_angle_beta                  67.7785
_cell_angle_gamma                 69.6950
loop_
_atom_site_label
_atom_site_type_symbol
_atom_site_fract_x
_atom_site_fract_y
_atom_site_fract_z
_atom_site_U_iso_or_equiv
_atom_site_adp_type
_atom_site_occupancy
C1     C     0.49309   0.78382   0.33784   0.00000  Uiso   1.00
C2     C     0.40521   0.80593   0.35804   0.00000  Uiso   1.00
C3     C     0.35441   0.78993   0.41010   0.00000  Uiso   1.00
C4     C     0.27610   0.81502   0.42053   0.00000  Uiso   1.00
C5     C     0.14368   0.84329   0.45800   0.00000  Uiso   1.00
C6     C     0.53500   0.74245   0.26619   0.00000  Uiso   1.00
C7     C     0.59332   0.67308   0.24103   0.00000  Uiso   1.00
C8     C     0.62427   0.64474   0.17413   0.00000  Uiso   1.00
C9     C     0.69338   0.57448   0.06899   0.00000  Uiso   1.00
C10    C     0.50568   0.85311   0.33852   0.00000  Uiso   1.00
C11    C     0.53937   0.87677   0.37416   0.00000  Uiso   1.00
C12    C     0.54566   0.94158   0.36814   0.00000  Uiso   1.00
C13    C     0.56925   0.04312   0.37531   0.00000  Uiso   1.00
C14    C     0.44437   0.85684   0.26377   0.00000  Uiso   1.00
C15    C     0.37875   0.84559   0.31780   0.00000  Uiso   1.00
C16    C     0.30049   0.87072   0.32815   0.00000  Uiso   1.00
C17    C     0.24958   0.85476   0.38023   0.00000  Uiso   1.00
C18    C     0.50853   0.78211   0.22596   0.00000  Uiso   1.00
C19    C     0.53941   0.75387   0.15908   0.00000  Uiso   1.00
C20    C     0.59775   0.68447   0.13382   0.00000  Uiso   1.00
C21    C     0.47921   0.89277   0.29829   0.00000  Uiso   1.00
C22    C     0.48545   0.95755   0.29221   0.00000  Uiso   1.00
C23    C     0.51914   0.98131   0.32784   0.00000  Uiso   1.00
H24    H     0.51370   0.75294   0.36915   0.00000  Uiso   1.00
H25    H     0.37491   0.75923   0.44122   0.00000  Uiso   1.00
H26    H     0.61379   0.64241   0.27217   0.00000  Uiso   1.00
H27    H     0.55985   0.84606   0.40528   0.00000  Uiso   1.00
H28    H     0.20937   0.78367   0.50337   0.00000  Uiso   1.00
H29    H     0.71308   0.53735   0.14691   0.00000  Uiso   1.00
H30    H     0.59933   0.96680   0.42761   0.00000  Uiso   1.00
H31    H     0.42376   0.88772   0.23244   0.00000  Uiso   1.00
H32    H     0.28003   0.90141   0.29701   0.00000  Uiso   1.00
H33    H     0.51891   0.78458   0.12796   0.00000  Uiso   1.00
H34    H     0.46497   0.98823   0.26107   0.00000  Uiso   1.00
H35    H     0.13237   0.89906   0.38632   0.00000  Uiso   1.00
H36    H     0.63608   0.65274   0.02986   0.00000  Uiso   1.00
H37    H     0.52232   0.08219   0.31056   0.00000  Uiso   1.00
O38    O     0.07795   0.84792   0.48977   0.00000  Uiso   1.00
O39    O     0.73881   0.52476   0.02212   0.00000  Uiso   1.00
O40    O     0.58956   0.08818   0.39038   0.00000  Uiso   1.00
N41    N     0.21097   0.80897   0.46697   0.00000  Uiso   1.00
N42    N     0.68190   0.57866   0.13370   0.00000  Uiso   1.00
N43    N     0.57557   0.98015   0.39612   0.00000  Uiso   1.00
N44    N     0.16953   0.87106   0.40398   0.00000  Uiso   1.00
N45    N     0.64046   0.64075   0.07072   0.00000  Uiso   1.00
N46    N     0.53414   0.04224   0.33313   0.00000  Uiso   1.00
C47    C     0.05845   0.48423   0.29118   0.00000  Uiso   1.00
C48    C     0.08092   0.54743   0.27860   0.00000  Uiso   1.00
C49    C     0.06973   0.60209   0.32626   0.00000  Uiso   1.00
C50    C     0.09428   0.65502   0.30475   0.00000  Uiso   1.00
C51    C     0.12389   0.75342   0.29538   0.00000  Uiso   1.00
C52    C     0.00404   0.48626   0.25859   0.00000  Uiso   1.00
C53    C     0.92821   0.48949   0.28944   0.00000  Uiso   1.00
C54    C     0.88804   0.49092   0.25109   0.00000  Uiso   1.00
C55    C     0.79832   0.49432   0.21065   0.00000  Uiso   1.00
C56    C     0.13388   0.41680   0.25208   0.00000  Uiso   1.00
C57    C     0.16723   0.36162   0.27744   0.00000  Uiso   1.00
C58    C     0.23637   0.30455   0.23360   0.00000  Uiso   1.00
C59    C     0.34825   0.20010   0.18304   0.00000  Uiso   1.00
C60    C     0.12193   0.48101   0.16821   0.00000  Uiso   1.00
C61    C     0.11540   0.54567   0.21181   0.00000  Uiso   1.00
C62    C     0.13997   0.59852   0.19022   0.00000  Uiso   1.00
C63    C     0.12883   0.65326   0.23784   0.00000  Uiso   1.00
C64    C     0.03852   0.48451   0.19181   0.00000  Uiso   1.00
C65    C     0.99845   0.48593   0.15340   0.00000  Uiso   1.00
C66    C     0.92259   0.48916   0.18418   0.00000  Uiso   1.00
C67    C     0.16837   0.41505   0.18529   0.00000  Uiso   1.00
C68    C     0.23747   0.35805   0.14139   0.00000  Uiso   1.00
C69    C     0.27092   0.30279   0.16669   0.00000  Uiso   1.00
H70    H     0.03160   0.48560   0.34318   0.00000  Uiso   1.00
H71    H     0.04304   0.60343   0.37795   0.00000  Uiso   1.00
H72    H     0.90155   0.49084   0.34113   0.00000  Uiso   1.00
H73    H     0.14053   0.36299   0.32913   0.00000  Uiso   1.00
H74    H     0.07090   0.73332   0.38705   0.00000  Uiso   1.00
H75    H     0.77257   0.49589   0.30941   0.00000  Uiso   1.00
H76    H     0.27651   0.22628   0.28410   0.00000  Uiso   1.00
H77    H     0.14878   0.47964   0.11621   0.00000  Uiso   1.00
H78    H     0.16666   0.59715   0.13853   0.00000  Uiso   1.00
H79    H     0.02516   0.48457   0.10171   0.00000  Uiso   1.00
H80    H     0.26414   0.35671   0.08971   0.00000  Uiso   1.00
H81    H     0.17123   0.72823   0.19272   0.00000  Uiso   1.00
H82    H     0.87290   0.49080   0.11508   0.00000  Uiso   1.00
H83    H     0.37683   0.22119   0.08978   0.00000  Uiso   1.00
O84    O     0.13069   0.80820   0.30866   0.00000  Uiso   1.00
O85    O     0.73929   0.49669   0.20680   0.00000  Uiso   1.00
O86    O     0.40044   0.14297   0.17361   0.00000  Uiso   1.00
N87    N     0.09208   0.71599   0.33825   0.00000  Uiso   1.00
N88    N     0.81315   0.49402   0.26566   0.00000  Uiso   1.00
N89    N     0.28427   0.24195   0.24200   0.00000  Uiso   1.00
N90    N     0.14606   0.71324   0.23369   0.00000  Uiso   1.00
N91    N     0.86713   0.49128   0.16110   0.00000  Uiso   1.00
N92    N     0.33826   0.23921   0.13744   0.00000  Uiso   1.00
C93    C     0.87612   0.24431   0.68447   0.00000  Uiso   1.00
C94    C     0.91788   0.16263   0.66532   0.00000  Uiso   1.00
C95    C     0.97531   0.12193   0.68315   0.00000  Uiso   1.00
C96    C     0.00630   0.04793   0.66067   0.00000  Uiso   1.00
C97    C     0.07507   0.92599   0.63683   0.00000  Uiso   1.00
C98    C     0.89009   0.26778   0.62035   0.00000  Uiso   1.00
C99    C     0.92414   0.31550   0.60037   0.00000  Uiso   1.00
C100   C     0.93171   0.33001   0.54003   0.00000  Uiso   1.00
C101   C     0.95727   0.37136   0.44639   0.00000  Uiso   1.00
C102   C     0.78813   0.26204   0.71862   0.00000  Uiso   1.00
C103   C     0.73643   0.30495   0.78127   0.00000  Uiso   1.00
C104   C     0.65816   0.31464   0.80367   0.00000  Uiso   1.00
C105   C     0.52540   0.34707   0.86262   0.00000  Uiso   1.00
C106   C     0.82903   0.18525   0.61282   0.00000  Uiso   1.00
C107   C     0.89230   0.13056   0.62641   0.00000  Uiso   1.00
C108   C     0.92321   0.05659   0.60389   0.00000  Uiso   1.00
C109   C     0.98067   0.01579   0.62168   0.00000  Uiso   1.00
C110   C     0.86451   0.23571   0.58143   0.00000  Uiso   1.00
C111   C     0.87203   0.25016   0.52111   0.00000  Uiso   1.00
C112   C     0.90609   0.29788   0.50104   0.00000  Uiso   1.00
C113   C     0.76254   0.22996   0.67971   0.00000  Uiso   1.00
C114   C     0.68433   0.23960   0.70201   0.00000  Uiso   1.00
C115   C     0.63253   0.28251   0.76468   0.00000  Uiso   1.00
H116   H     0.89604   0.26928   0.71476   0.00000  Uiso   1.00
H117   H     0.99510   0.14678   0.71326   0.00000  Uiso   1.00
H118   H     0.94392   0.34032   0.63050   0.00000  Uiso   1.00
H119   H     0.75625   0.32976   0.81137   0.00000  Uiso   1.00
H120   H     0.09367   0.99681   0.69443   0.00000  Uiso   1.00
H121   H     0.98573   0.40492   0.51992   0.00000  Uiso   1.00
H122   H     0.58999   0.38266   0.90133   0.00000  Uiso   1.00
H123   H     0.80911   0.16028   0.58252   0.00000  Uiso   1.00
H124   H     0.90340   0.03179   0.57378   0.00000  Uiso   1.00
H125   H     0.85223   0.22533   0.49101   0.00000  Uiso   1.00
H126   H     0.66456   0.21477   0.67188   0.00000  Uiso   1.00
H127   H     0.01925   0.90348   0.58121   0.00000  Uiso   1.00
H128   H     0.91131   0.31160   0.40670   0.00000  Uiso   1.00
H129   H     0.51557   0.28933   0.78812   0.00000  Uiso   1.00
O130   O     0.12007   0.86759   0.63443   0.00000  Uiso   1.00
O131   O     0.97845   0.40302   0.40549   0.00000  Uiso   1.00
O132   O     0.45925   0.37382   0.90590   0.00000  Uiso   1.00
N133   N     0.06320   0.99248   0.66899   0.00000  Uiso   1.00
N134   N     0.96230   0.37403   0.50584   0.00000  Uiso   1.00
N135   N     0.59231   0.35323   0.86242   0.00000  Uiso   1.00
N136   N     0.02315   0.94226   0.60807   0.00000  Uiso   1.00
N137   N     0.92225   0.32381   0.44492   0.00000  Uiso   1.00
N138   N     0.55226   0.30301   0.80150   0.00000  Uiso   1.00
C139   C     0.75762   0.06998   0.19605   0.00000  Uiso   1.00
C140   C     0.84144   0.01252   0.16979   0.00000  Uiso   1.00
C141   C     0.86585   0.95501   0.19635   0.00000  Uiso   1.00
C142   C     0.94505   0.90836   0.16512   0.00000  Uiso   1.00
C143   C     0.06715   0.81751   0.13281   0.00000  Uiso   1.00
C144   C     0.73472   0.06907   0.13926   0.00000  Uiso   1.00
C145   C     0.66938   0.05911   0.14016   0.00000  Uiso   1.00
C146   C     0.65874   0.06007   0.08322   0.00000  Uiso   1.00
C147   C     0.61512   0.05707   0.00353   0.00000  Uiso   1.00
C148   C     0.76335   0.14165   0.20871   0.00000  Uiso   1.00
C149   C     0.72208   0.19273   0.26800   0.00000  Uiso   1.00
C150   C     0.73554   0.25480   0.26954   0.00000  Uiso   1.00
C151   C     0.73638   0.36449   0.29769   0.00000  Uiso   1.00
C152   C     0.85488   0.08939   0.09335   0.00000  Uiso   1.00
C153   C     0.89426   0.02306   0.11401   0.00000  Uiso   1.00
C154   C     0.97345   0.97648   0.08273   0.00000  Uiso   1.00
C155   C     0.99797   0.91892   0.10924   0.00000  Uiso   1.00
C156   C     0.78754   0.07961   0.08348   0.00000  Uiso   1.00
C157   C     0.77698   0.08058   0.02653   0.00000  Uiso   1.00
C158   C     0.71165   0.07063   0.02734   0.00000  Uiso   1.00
C159   C     0.81618   0.15219   0.15293   0.00000  Uiso   1.00
C160   C     0.82969   0.21420   0.15438   0.00000  Uiso   1.00
C161   C     0.78845   0.26536   0.21366   0.00000  Uiso   1.00
H162   H     0.71649   0.06177   0.23947   0.00000  Uiso   1.00
H163   H     0.82495   0.94687   0.23952   0.00000  Uiso   1.00
H164   H     0.62851   0.05096   0.18333   0.00000  Uiso   1.00
H165   H     0.68121   0.18455   0.31116   0.00000  Uiso   1.00
H166   H     0.96848   0.82411   0.21495   0.00000  Uiso   1.00
H167   H     0.55426   0.04362   0.09649   0.00000  Uiso   1.00
H168   H     0.66539   0.32532   0.36604   0.00000  Uiso   1.00
H169   H     0.89600   0.09760   0.04992   0.00000  Uiso   1.00
H170   H     0.01431   0.98466   0.03956   0.00000  Uiso   1.00
H171   H     0.81787   0.08875   0.98338   0.00000  Uiso   1.00
H172   H     0.87058   0.22234   0.11120   0.00000  Uiso   1.00
H173   H     0.12217   0.85478   0.05265   0.00000  Uiso   1.00
H174   H     0.70796   0.07429   0.93420   0.00000  Uiso   1.00
H175   H     0.81909   0.35599   0.20375   0.00000  Uiso   1.00
O176   O     0.11991   0.76449   0.13039   0.00000  Uiso   1.00
O177   O     0.57647   0.05249   0.97499   0.00000  Uiso   1.00
O178   O     0.72227   0.42207   0.32863   0.00000  Uiso   1.00
N179   N     0.98842   0.84684   0.17818   0.00000  Uiso   1.00
N180   N     0.60116   0.05205   0.06743   0.00000  Uiso   1.00
N181   N     0.70504   0.31543   0.31943   0.00000  Uiso   1.00
N182   N     0.07112   0.86334   0.09085   0.00000  Uiso   1.00
N183   N     0.68386   0.06855   0.98010   0.00000  Uiso   1.00
N184   N     0.78774   0.33193   0.23210   0.00000  Uiso   1.00
C185   C     0.30285   0.35975   0.71392   0.00000  Uiso   1.00
C186   C     0.29899   0.41996   0.76084   0.00000  Uiso   1.00
C187   C     0.33127   0.41106   0.80551   0.00000  Uiso   1.00
C188   C     0.32138   0.47290   0.84402   0.00000  Uiso   1.00
C189   C     0.32162   0.55601   0.91775   0.00000  Uiso   1.00
C190   C     0.34055   0.37060   0.64538   0.00000  Uiso   1.00
C191   C     0.40775   0.32019   0.59297   0.00000  Uiso   1.00
C192   C     0.43284   0.34049   0.53428   0.00000  Uiso   1.00
C193   C     0.49756   0.34695   0.42876   0.00000  Uiso   1.00
C194   C     0.21764   0.37480   0.72797   0.00000  Uiso   1.00
C195   C     0.18151   0.32793   0.74500   0.00000  Uiso   1.00
C196   C     0.10312   0.35175   0.75583   0.00000  Uiso   1.00
C197   C     0.97701   0.36474   0.77855   0.00000  Uiso   1.00
C198   C     0.22789   0.48541   0.70287   0.00000  Uiso   1.00
C199   C     0.25828   0.48821   0.75483   0.00000  Uiso   1.00
C200   C     0.24834   0.55009   0.79329   0.00000  Uiso   1.00
C201   C     0.28059   0.54128   0.83801   0.00000  Uiso   1.00
C202   C     0.29984   0.43885   0.63937   0.00000  Uiso   1.00
C203   C     0.32482   0.45922   0.58075   0.00000  Uiso   1.00
C204   C     0.39205   0.40887   0.52827   0.00000  Uiso   1.00
C205   C     0.17693   0.44306   0.72197   0.00000  Uiso   1.00
C206   C     0.09858   0.46696   0.73278   0.00000  Uiso   1.00
C207   C     0.06233   0.42013   0.74982   0.00000  Uiso   1.00
H208   H     0.33455   0.30661   0.71859   0.00000  Uiso   1.00
H209   H     0.36278   0.35823   0.81013   0.00000  Uiso   1.00
H210   H     0.43924   0.26738   0.59763   0.00000  Uiso   1.00
H211   H     0.21303   0.27511   0.74964   0.00000  Uiso   1.00
H212   H     0.37614   0.44556   0.90896   0.00000  Uiso   1.00
H213   H     0.53736   0.25399   0.46088   0.00000  Uiso   1.00
H214   H     0.06036   0.27029   0.78142   0.00000  Uiso   1.00
H215   H     0.19619   0.53855   0.69820   0.00000  Uiso   1.00
H216   H     0.21683   0.60290   0.78863   0.00000  Uiso   1.00
H217   H     0.29330   0.51205   0.57612   0.00000  Uiso   1.00
H218   H     0.06709   0.51978   0.72813   0.00000  Uiso   1.00
H219   H     0.25769   0.64414   0.89151   0.00000  Uiso   1.00
H220   H     0.41891   0.45257   0.44342   0.00000  Uiso   1.00
H221   H     0.94191   0.46887   0.76396   0.00000  Uiso   1.00
O222   O     0.33301   0.58299   0.96008   0.00000  Uiso   1.00
O223   O     0.54452   0.33165   0.37221   0.00000  Uiso   1.00
O224   O     0.91870   0.35305   0.79274   0.00000  Uiso   1.00
N225   N     0.34542   0.48346   0.89245   0.00000  Uiso   1.00
N226   N     0.49616   0.30436   0.47353   0.00000  Uiso   1.00
N227   N     0.05021   0.31959   0.77318   0.00000  Uiso   1.00
N228   N     0.28168   0.59032   0.88306   0.00000  Uiso   1.00
N229   N     0.43242   0.41121   0.46414   0.00000  Uiso   1.00
N230   N     0.98647   0.42645   0.76379   0.00000  Uiso   1.00
C231   C     0.55315   0.89368   0.84489   0.00000  Uiso   1.00
C232   C     0.48385   0.87325   0.85608   0.00000  Uiso   1.00
C233   C     0.43105   0.87134   0.91608   0.00000  Uiso   1.00
C234   C     0.37168   0.85130   0.91603   0.00000  Uiso   1.00
C235   C     0.26501   0.82228   0.94224   0.00000  Uiso   1.00
C236   C     0.54140   0.95542   0.81112   0.00000  Uiso   1.00
C237   C     0.53700   0.02259   0.83331   0.00000  Uiso   1.00
C238   C     0.52609   0.07171   0.79539   0.00000  Uiso   1.00
C239   C     0.50883   0.17025   0.75177   0.00000  Uiso   1.00
C240   C     0.62627   0.83030   0.79428   0.00000  Uiso   1.00
C241   C     0.69324   0.79228   0.80230   0.00000  Uiso   1.00
C242   C     0.75379   0.73607   0.75020   0.00000  Uiso   1.00
C243   C     0.86831   0.64033   0.68043   0.00000  Uiso   1.00
C244   C     0.54161   0.86148   0.73810   0.00000  Uiso   1.00
C245   C     0.47758   0.85577   0.79808   0.00000  Uiso   1.00
C246   C     0.41828   0.83572   0.79794   0.00000  Uiso   1.00
C247   C     0.36540   0.83378   0.85792   0.00000  Uiso   1.00
C248   C     0.53514   0.93794   0.75312   0.00000  Uiso   1.00
C249   C     0.52423   0.98697   0.71516   0.00000  Uiso   1.00
C250   C     0.51981   0.05420   0.73729   0.00000  Uiso   1.00
C251   C     0.62001   0.81281   0.73628   0.00000  Uiso   1.00
C252   C     0.68047   0.75666   0.68415   0.00000  Uiso   1.00
C253   C     0.74752   0.71855   0.69209   0.00000  Uiso   1.00
H254   H     0.55803   0.90729   0.89004   0.00000  Uiso   1.00
H255   H     0.43591   0.88488   0.96096   0.00000  Uiso   1.00
H256   H     0.54186   0.03610   0.87819   0.00000  Uiso   1.00
H257   H     0.69807   0.80582   0.84719   0.00000  Uiso   1.00
H258   H     0.29775   0.85235   0.01401   0.00000  Uiso   1.00
H259   H     0.52117   0.17120   0.83947   0.00000  Uiso   1.00
H260   H     0.85057   0.68561   0.77410   0.00000  Uiso   1.00
H261   H     0.53673   0.84787   0.69294   0.00000  Uiso   1.00
H262   H     0.41344   0.82220   0.75304   0.00000  Uiso   1.00
H263   H     0.51939   0.97342   0.67028   0.00000  Uiso   1.00
H264   H     0.67560   0.74314   0.63928   0.00000  Uiso   1.00
H265   H     0.27951   0.80147   0.84526   0.00000  Uiso   1.00
H266   H     0.50293   0.12033   0.67072   0.00000  Uiso   1.00
H267   H     0.83233   0.63474   0.60535   0.00000  Uiso   1.00
O268   O     0.20789   0.81112   0.97273   0.00000  Uiso   1.00
O269   O     0.50103   0.22943   0.74374   0.00000  Uiso   1.00
O270   O     0.93320   0.59235   0.65798   0.00000  Uiso   1.00
N271   N     0.31038   0.84388   0.96604   0.00000  Uiso   1.00
N272   N     0.51926   0.14200   0.80287   0.00000  Uiso   1.00
N273   N     0.82723   0.68802   0.74174   0.00000  Uiso   1.00
N274   N     0.30057   0.81651   0.87524   0.00000  Uiso   1.00
N275   N     0.50944   0.11462   0.71207   0.00000  Uiso   1.00
N276   N     0.81742   0.66065   0.65094   0.00000  Uiso   1.00
C277   C     0.72794   0.00021   0.53724   0.00000  Uiso   1.00
C278   C     0.80313   0.98694   0.47677   0.00000  Uiso   1.00
C279   C     0.81195   0.03236   0.43493   0.00000  Uiso   1.00
C280   C     0.88546   0.01059   0.38233   0.00000  Uiso   1.00
C281   C     0.99273   0.99987   0.29002   0.00000  Uiso   1.00
C282   C     0.75021   0.99660   0.59447   0.00000  Uiso   1.00
C283   C     0.71453   0.05015   0.65159   0.00000  Uiso   1.00
C284   C     0.74348   0.03651   0.69808   0.00000  Uiso   1.00
C285   C     0.76856   0.04078   0.78851   0.00000  Uiso   1.00
C286   C     0.70918   0.93523   0.52747   0.00000  Uiso   1.00
C287   C     0.63899   0.93718   0.52829   0.00000  Uiso   1.00
C288   C     0.63340   0.87186   0.51839   0.00000  Uiso   1.00
C289   C     0.59477   0.78084   0.50481   0.00000  Uiso   1.00
C290   C     0.84279   0.88076   0.51823   0.00000  Uiso   1.00
C291   C     0.86551   0.92206   0.46644   0.00000  Uiso   1.00
C292   C     0.93902   0.90021   0.41389   0.00000  Uiso   1.00
C293   C     0.94795   0.94559   0.37198   0.00000  Uiso   1.00
C294   C     0.81259   0.93173   0.58414   0.00000  Uiso   1.00
C295   C     0.84160   0.91800   0.63055   0.00000  Uiso   1.00
C296   C     0.80598   0.97152   0.68773   0.00000  Uiso   1.00
C297   C     0.77157   0.87035   0.51714   0.00000  Uiso   1.00
C298   C     0.76607   0.80503   0.50724   0.00000  Uiso   1.00
C299   C     0.69589   0.80687   0.50804   0.00000  Uiso   1.00
H300   H     0.67937   0.05072   0.54529   0.00000  Uiso   1.00
H301   H     0.76366   0.08257   0.44295   0.00000  Uiso   1.00
H302   H     0.66625   0.10035   0.65957   0.00000  Uiso   1.00
H303   H     0.59073   0.98739   0.53628   0.00000  Uiso   1.00
H304   H     0.88463   0.08928   0.32494   0.00000  Uiso   1.00
H305   H     0.67922   0.12677   0.78172   0.00000  Uiso   1.00
H306   H     0.51997   0.88857   0.52174   0.00000  Uiso   1.00
H307   H     0.89136   0.83025   0.51019   0.00000  Uiso   1.00
H308   H     0.98729   0.85000   0.40591   0.00000  Uiso   1.00
H309   H     0.88988   0.86779   0.62254   0.00000  Uiso   1.00
H310   H     0.81436   0.75483   0.49925   0.00000  Uiso   1.00
H311   H     0.06614   0.90052   0.29488   0.00000  Uiso   1.00
H312   H     0.86072   0.93801   0.75166   0.00000  Uiso   1.00
H313   H     0.70148   0.69982   0.49169   0.00000  Uiso   1.00
O314   O     0.03467   0.01188   0.24196   0.00000  Uiso   1.00
O315   O     0.76517   0.06106   0.84124   0.00000  Uiso   1.00
O316   O     0.55624   0.74856   0.50016   0.00000  Uiso   1.00
N317   N     0.91418   0.04214   0.33216   0.00000  Uiso   1.00
N318   N     0.72214   0.07720   0.75922   0.00000  Uiso   1.00
N319   N     0.57325   0.85450   0.51619   0.00000  Uiso   1.00
N320   N     0.01185   0.94057   0.31599   0.00000  Uiso   1.00
N321   N     0.81981   0.97563   0.74305   0.00000  Uiso   1.00
N322   N     0.67091   0.75293   0.50001   0.00000  Uiso   1.00
C323   C     0.26660   0.23238   0.43155   0.00000  Uiso   1.00
C324   C     0.21507   0.19125   0.43620   0.00000  Uiso   1.00
C325   C     0.22233   0.14416   0.38446   0.00000  Uiso   1.00
C326   C     0.16947   0.11187   0.39881   0.00000  Uiso   1.00
C327   C     0.09830   0.04579   0.39633   0.00000  Uiso   1.00
C328   C     0.30122   0.21248   0.48022   0.00000  Uiso   1.00
C329   C     0.38091   0.18326   0.46548   0.00000  Uiso   1.00
C330   C     0.40057   0.16884   0.51689   0.00000  Uiso   1.00
C331   C     0.46314   0.13578   0.58276   0.00000  Uiso   1.00
C332   C     0.21034   0.31149   0.45874   0.00000  Uiso   1.00
C333   C     0.21364   0.36551   0.42597   0.00000  Uiso   1.00
C334   C     0.15680   0.43446   0.45931   0.00000  Uiso   1.00
C335   C     0.07829   0.55512   0.49184   0.00000  Uiso   1.00
C336   C     0.15981   0.25876   0.54904   0.00000  Uiso   1.00
C337   C     0.15707   0.20558   0.50002   0.00000  Uiso   1.00
C338   C     0.10418   0.17335   0.51446   0.00000  Uiso   1.00
C339   C     0.11136   0.12622   0.46274   0.00000  Uiso   1.00
C340   C     0.24322   0.22681   0.54403   0.00000  Uiso   1.00
C341   C     0.26276   0.21245   0.59548   0.00000  Uiso   1.00
C342   C     0.34246   0.18320   0.58083   0.00000  Uiso   1.00
C343   C     0.15234   0.32582   0.52257   0.00000  Uiso   1.00
C344   C     0.09549   0.39470   0.55597   0.00000  Uiso   1.00
C345   C     0.09870   0.44882   0.52324   0.00000  Uiso   1.00
H346   H     0.31176   0.22122   0.38186   0.00000  Uiso   1.00
H347   H     0.26723   0.13308   0.33507   0.00000  Uiso   1.00
H348   H     0.42578   0.17218   0.41609   0.00000  Uiso   1.00
H349   H     0.25854   0.35440   0.37658   0.00000  Uiso   1.00
H350   H     0.19230   0.04166   0.31135   0.00000  Uiso   1.00
H351   H     0.52661   0.12412   0.48218   0.00000  Uiso   1.00
H352   H     0.17395   0.50837   0.39887   0.00000  Uiso   1.00
H353   H     0.11465   0.26992   0.59873   0.00000  Uiso   1.00
H354   H     0.05930   0.18445   0.56385   0.00000  Uiso   1.00
H355   H     0.21786   0.22355   0.64486   0.00000  Uiso   1.00
H356   H     0.05061   0.40577   0.60535   0.00000  Uiso   1.00
H357   H     0.02354   0.08335   0.49704   0.00000  Uiso   1.00
H358   H     0.35785   0.16581   0.66786   0.00000  Uiso   1.00
H359   H     0.00518   0.55006   0.58455   0.00000  Uiso   1.00
O360   O     0.07508   0.00538   0.37734   0.00000  Uiso   1.00
O361   O     0.51368   0.11358   0.60146   0.00000  Uiso   1.00
O362   O     0.05099   0.61771   0.49215   0.00000  Uiso   1.00
N363   N     0.16016   0.06321   0.35984   0.00000  Uiso   1.00
N364   N     0.47273   0.14029   0.51955   0.00000  Uiso   1.00
N365   N     0.14303   0.49955   0.44167   0.00000  Uiso   1.00
N366   N     0.06935   0.08564   0.45975   0.00000  Uiso   1.00
N367   N     0.38192   0.16273   0.61946   0.00000  Uiso   1.00
N368   N     0.05222   0.52198   0.54158   0.00000  Uiso   1.00
C369   C     0.58637   0.33321   0.02944   0.00000  Uiso   1.00
C370   C     0.54483   0.41490   0.04970   0.00000  Uiso   1.00
C371   C     0.48834   0.45665   0.03144   0.00000  Uiso   1.00
C372   C     0.45740   0.53047   0.05512   0.00000  Uiso   1.00
C373   C     0.38911   0.65261   0.08045   0.00000  Uiso   1.00
C374   C     0.57098   0.30838   0.09300   0.00000  Uiso   1.00
C375   C     0.53649   0.26056   0.11115   0.00000  Uiso   1.00
C376   C     0.52757   0.24470   0.17128   0.00000  Uiso   1.00
C377   C     0.49992   0.20142   0.26381   0.00000  Uiso   1.00
C378   C     0.67448   0.31532   0.99669   0.00000  Uiso   1.00
C379   C     0.72702   0.27332   0.93386   0.00000  Uiso   1.00
C380   C     0.80524   0.26330   0.91291   0.00000  Uiso   1.00
C381   C     0.93830   0.23080   0.85590   0.00000  Uiso   1.00
C382   C     0.63187   0.39008   0.10395   0.00000  Uiso   1.00
C383   C     0.56954   0.44579   0.09017   0.00000  Uiso   1.00
C384   C     0.53868   0.51956   0.11388   0.00000  Uiso   1.00
C385   C     0.48216   0.56142   0.09566   0.00000  Uiso   1.00
C386   C     0.59569   0.33926   0.13347   0.00000  Uiso   1.00
C387   C     0.58682   0.32347   0.19358   0.00000  Uiso   1.00
C388   C     0.55232   0.27564   0.21182   0.00000  Uiso   1.00
C389   C     0.69919   0.34621   0.03716   0.00000  Uiso   1.00
C390   C     0.77735   0.33624   0.01630   0.00000  Uiso   1.00
C391   C     0.83000   0.29424   0.95345   0.00000  Uiso   1.00
H392   H     0.56713   0.30916   0.99793   0.00000  Uiso   1.00
H393   H     0.46923   0.43273   0.00013   0.00000  Uiso   1.00
H394   H     0.51737   0.23666   0.07981   0.00000  Uiso   1.00
H395   H     0.70787   0.24943   0.90256   0.00000  Uiso   1.00
H396   H     0.37157   0.58334   0.02043   0.00000  Uiso   1.00
H397   H     0.47310   0.16990   0.18844   0.00000  Uiso   1.00
H398   H     0.87481   0.19682   0.81466   0.00000  Uiso   1.00
H399   H     0.65111   0.41412   0.13546   0.00000  Uiso   1.00
H400   H     0.55782   0.54345   0.14520   0.00000  Uiso   1.00
H401   H     0.60596   0.34738   0.22489   0.00000  Uiso   1.00
H402   H     0.79646   0.36015   0.04763   0.00000  Uiso   1.00
H403   H     0.44346   0.67321   0.13818   0.00000  Uiso   1.00
H404   H     0.54500   0.25976   0.30619   0.00000  Uiso   1.00
H405   H     0.94671   0.28669   0.93241   0.00000  Uiso   1.00
O406   O     0.34461   0.71145   0.08325   0.00000  Uiso   1.00
O407   O     0.47784   0.16903   0.30367   0.00000  Uiso   1.00
O408   O     0.00486   0.20436   0.81327   0.00000  Uiso   1.00
N409   N     0.40130   0.58674   0.04679   0.00000  Uiso   1.00
N410   N     0.49622   0.20021   0.20388   0.00000  Uiso   1.00
N411   N     0.87179   0.22537   0.85443   0.00000  Uiso   1.00
N412   N     0.43999   0.63510   0.11015   0.00000  Uiso   1.00
N413   N     0.53491   0.24857   0.26724   0.00000  Uiso   1.00
N414   N     0.91048   0.27372   0.91779   0.00000  Uiso   1.00
C415   C     0.64847   0.50510   0.59933   0.00000  Uiso   1.00
C416   C     0.56965   0.56911   0.62172   0.00000  Uiso   1.00
C417   C     0.55304   0.62170   0.58813   0.00000  Uiso   1.00
C418   C     0.47738   0.67583   0.61682   0.00000  Uiso   1.00
C419   C     0.36367   0.77503   0.64246   0.00000  Uiso   1.00
C420   C     0.67319   0.50943   0.65479   0.00000  Uiso   1.00
C421   C     0.74364   0.51183   0.64899   0.00000  Uiso   1.00
C422   C     0.75513   0.51571   0.70551   0.00000  Uiso   1.00
C423   C     0.80219   0.52219   0.78248   0.00000  Uiso   1.00
C424   C     0.63073   0.43854   0.59733   0.00000  Uiso   1.00
C425   C     0.66549   0.38133   0.54323   0.00000  Uiso   1.00
C426   C     0.64126   0.32552   0.55138   0.00000  Uiso   1.00
C427   C     0.62239   0.22196   0.53914   0.00000  Uiso   1.00
C428   C     0.54362   0.50771   0.71001   0.00000  Uiso   1.00
C429   C     0.51270   0.57053   0.68184   0.00000  Uiso   1.00
C430   C     0.43704   0.62459   0.71059   0.00000  Uiso   1.00
C431   C     0.42033   0.67725   0.67704   0.00000  Uiso   1.00
C432   C     0.61624   0.51084   0.71491   0.00000  Uiso   1.00
C433   C     0.62764   0.51472   0.77145   0.00000  Uiso   1.00
C434   C     0.69808   0.51713   0.76574   0.00000  Uiso   1.00
C435   C     0.57378   0.43996   0.65745   0.00000  Uiso   1.00
C436   C     0.54949   0.38423   0.66569   0.00000  Uiso   1.00
C437   C     0.58421   0.32694   0.61161   0.00000  Uiso   1.00
H438   H     0.69281   0.50399   0.55253   0.00000  Uiso   1.00
H439   H     0.59713   0.62059   0.54161   0.00000  Uiso   1.00
H440   H     0.78770   0.51072   0.60246   0.00000  Uiso   1.00
H441   H     0.70956   0.38025   0.49672   0.00000  Uiso   1.00
H442   H     0.46595   0.75050   0.55603   0.00000  Uiso   1.00
H443   H     0.86778   0.51881   0.68433   0.00000  Uiso   1.00
H444   H     0.70302   0.24369   0.46135   0.00000  Uiso   1.00
H445   H     0.49929   0.50881   0.75682   0.00000  Uiso   1.00
H446   H     0.39299   0.62567   0.75711   0.00000  Uiso   1.00
H447   H     0.58356   0.51581   0.81796   0.00000  Uiso   1.00
H448   H     0.50542   0.38534   0.71222   0.00000  Uiso   1.00
H449   H     0.30026   0.75463   0.73094   0.00000  Uiso   1.00
H450   H     0.70210   0.52294   0.85924   0.00000  Uiso   1.00
H451   H     0.53733   0.24782   0.63626   0.00000  Uiso   1.00
O452   O     0.31668   0.82936   0.64000   0.00000  Uiso   1.00
O453   O     0.84387   0.52539   0.80832   0.00000  Uiso   1.00
O454   O     0.62770   0.16445   0.51577   0.00000  Uiso   1.00
N455   N     0.44154   0.73542   0.59715   0.00000  Uiso   1.00
N456   N     0.81722   0.51882   0.71711   0.00000  Uiso   1.00
N457   N     0.66320   0.26160   0.50864   0.00000  Uiso   1.00
N458   N     0.35238   0.73764   0.69126   0.00000  Uiso   1.00
N459   N     0.72807   0.52105   0.81122   0.00000  Uiso   1.00
N460   N     0.57404   0.26382   0.60275   0.00000  Uiso   1.00
C461   C     0.14678   0.22045   0.00982   0.00000  Uiso   1.00
C462   C     0.15331   0.15954   0.96182   0.00000  Uiso   1.00
C463   C     0.12345   0.16751   0.91553   0.00000  Uiso   1.00
C464   C     0.13556   0.10514   0.87624   0.00000  Uiso   1.00
C465   C     0.13950   0.02088   0.80069   0.00000  Uiso   1.00
C466   C     0.10713   0.20959   0.07800   0.00000  Uiso   1.00
C467   C     0.03845   0.25964   0.12940   0.00000  Uiso   1.00
C468   C     0.01169   0.23939   0.18791   0.00000  Uiso   1.00
C469   C     0.94397   0.23285   0.29274   0.00000  Uiso   1.00
C470   C     0.23102   0.20660   0.99823   0.00000  Uiso   1.00
C471   C     0.26650   0.25416   0.98258   0.00000  Uiso   1.00
C472   C     0.34405   0.23141   0.97395   0.00000  Uiso   1.00
C473   C     0.46868   0.22024   0.95494   0.00000  Uiso   1.00
C474   C     0.22138   0.09550   0.02234   0.00000  Uiso   1.00
C475   C     0.19383   0.09167   0.96862   0.00000  Uiso   1.00
C476   C     0.20599   0.02926   0.92938   0.00000  Uiso   1.00
C477   C     0.17616   0.03714   0.88305   0.00000  Uiso   1.00
C478   C     0.14765   0.14172   0.08480   0.00000  Uiso   1.00
C479   C     0.12099   0.12139   0.14325   0.00000  Uiso   1.00
C480   C     0.05229   0.17140   0.19472   0.00000  Uiso   1.00
C481   C     0.27154   0.13873   0.00503   0.00000  Uiso   1.00
C482   C     0.34905   0.11590   0.99643   0.00000  Uiso   1.00
C483   C     0.38465   0.16341   0.98076   0.00000  Uiso   1.00
H484   H     0.11523   0.27330   0.00453   0.00000  Uiso   1.00
H485   H     0.09209   0.22005   0.91029   0.00000  Uiso   1.00
H486   H     0.00711   0.31216   0.12412   0.00000  Uiso   1.00
H487   H     0.23513   0.30668   0.97732   0.00000  Uiso   1.00
H488   H     0.08428   0.13108   0.80882   0.00000  Uiso   1.00
H489   H     0.90510   0.32532   0.25970   0.00000  Uiso   1.00
H490   H     0.38593   0.31376   0.95016   0.00000  Uiso   1.00
H491   H     0.25293   0.04265   0.02764   0.00000  Uiso   1.00
H492   H     0.23735   0.97674   0.93466   0.00000  Uiso   1.00
H493   H     0.15237   0.06886   0.14849   0.00000  Uiso   1.00
H494   H     0.38039   0.06338   0.00170   0.00000  Uiso   1.00
H495   H     0.20218   0.93361   0.82860   0.00000  Uiso   1.00
H496   H     0.02300   0.12785   0.27949   0.00000  Uiso   1.00
H497   H     0.50383   0.11628   0.96994   0.00000  Uiso   1.00
O498   O     0.13047   0.99315   0.75715   0.00000  Uiso   1.00
O499   O     0.89541   0.24799   0.34869   0.00000  Uiso   1.00
O500   O     0.52624   0.23282   0.94256   0.00000  Uiso   1.00
N501   N     0.11418   0.09365   0.82623   0.00000  Uiso   1.00
N502   N     0.94665   0.27525   0.24777   0.00000  Uiso   1.00
N503   N     0.39618   0.26445   0.95839   0.00000  Uiso   1.00
N504   N     0.17762   0.98739   0.83687   0.00000  Uiso   1.00
N505   N     0.01009   0.16899   0.25842   0.00000  Uiso   1.00
N506   N     0.45962   0.15819   0.96903   0.00000  Uiso   1.00
C507   C     0.89653   0.68770   0.92093   0.00000  Uiso   1.00
C508   C     0.96336   0.71096   0.91255   0.00000  Uiso   1.00
C509   C     0.01074   0.72294   0.85544   0.00000  Uiso   1.00
C510   C     0.06866   0.74393   0.85776   0.00000  Uiso   1.00
C511   C     0.17092   0.77869   0.83601   0.00000  Uiso   1.00
C512   C     0.91585   0.61886   0.94463   0.00000  Uiso   1.00
C513   C     0.92327   0.55342   0.91449   0.00000  Uiso   1.00
C514   C     0.94120   0.49688   0.94383   0.00000  Uiso   1.00
C515   C     0.96964   0.38867   0.97191   0.00000  Uiso   1.00
C516   C     0.82314   0.74420   0.97804   0.00000  Uiso   1.00
C517   C     0.75260   0.78414   0.97601   0.00000  Uiso   1.00
C518   C     0.69246   0.83312   0.03348   0.00000  Uiso   1.00
C519   C     0.57695   0.91953   0.11344   0.00000  Uiso   1.00
C520   C     0.91515   0.70366   0.02663   0.00000  Uiso   1.00
C521   C     0.97347   0.71962   0.96996   0.00000  Uiso   1.00
C522   C     0.03134   0.74060   0.97238   0.00000  Uiso   1.00
C523   C     0.07879   0.75262   0.91528   0.00000  Uiso   1.00
C524   C     0.92596   0.62753   0.00204   0.00000  Uiso   1.00
C525   C     0.94387   0.57107   0.03143   0.00000  Uiso   1.00
C526   C     0.95133   0.50556   0.00135   0.00000  Uiso   1.00
C527   C     0.83325   0.75287   0.03546   0.00000  Uiso   1.00
C528   C     0.77320   0.80180   0.09295   0.00000  Uiso   1.00
C529   C     0.70259   0.84181   0.09100   0.00000  Uiso   1.00
H530   H     0.88865   0.68094   0.87624   0.00000  Uiso   1.00
H531   H     0.00290   0.71622   0.81102   0.00000  Uiso   1.00
H532   H     0.91544   0.54673   0.87007   0.00000  Uiso   1.00
H533   H     0.74480   0.77742   0.93157   0.00000  Uiso   1.00
H534   H     0.13403   0.75913   0.76402   0.00000  Uiso   1.00
H535   H     0.94959   0.40175   0.88855   0.00000  Uiso   1.00
H536   H     0.58976   0.88820   0.01824   0.00000  Uiso   1.00
H537   H     0.92302   0.71040   0.07133   0.00000  Uiso   1.00
H538   H     0.03915   0.74731   0.01681   0.00000  Uiso   1.00
H539   H     0.95169   0.57780   0.07586   0.00000  Uiso   1.00
H540   H     0.78105   0.80849   0.13737   0.00000  Uiso   1.00
H541   H     0.16346   0.78436   0.93105   0.00000  Uiso   1.00
H542   H     0.97902   0.42697   0.05558   0.00000  Uiso   1.00
H543   H     0.61919   0.91342   0.18527   0.00000  Uiso   1.00
O544   O     0.22453   0.79546   0.80815   0.00000  Uiso   1.00
O545   O     0.98254   0.32659   0.97153   0.00000  Uiso   1.00
O546   O     0.51046   0.96481   0.14168   0.00000  Uiso   1.00
N547   N     0.12501   0.76002   0.81082   0.00000  Uiso   1.00
N548   N     0.95258   0.42588   0.92723   0.00000  Uiso   1.00
N549   N     0.61616   0.88066   0.04849   0.00000  Uiso   1.00
N550   N     0.14084   0.77359   0.90069   0.00000  Uiso   1.00
N551   N     0.96842   0.43945   0.01711   0.00000  Uiso   1.00
N552   N     0.63200   0.89423   0.13837   0.00000  Uiso   1.00
