data_job_06804
_audit_creation_date              2018-12-19
_audit_creation_method            'Materials Studio'
_symmetry_space_group_name_H-M    'P1'
_symmetry_Int_Tables_number       1
_symmetry_cell_setting            triclinic
loop_
_symmetry_equiv_pos_as_xyz
  x,y,z
_cell_length_a                    21.0925
_cell_length_b                    22.2303
_cell_length_c                    21.5540
_cell_angle_alpha                 102.8000
_cell_angle_beta                  113.1160
_cell_angle_gamma                 105.4920
loop_
_atom_site_label
_atom_site_type_symbol
_atom_site_fract_x
_atom_site_fract_y
_atom_site_fract_z
_atom_site_U_iso_or_equiv
_atom_site_adp_type
_atom_site_occupancy
C1     C     0.20263   0.53709   0.51304   0.00000  Uiso   1.00
C2     C     0.16660   0.58025   0.47812   0.00000  Uiso   1.00
C3     C     0.12629   0.61193   0.49989   0.00000  Uiso   1.00
C4     C     0.09782   0.64913   0.46089   0.00000  Uiso   1.00
C5     C     0.04011   0.71532   0.41557   0.00000  Uiso   1.00
C6     C     0.17027   0.46922   0.45242   0.00000  Uiso   1.00
C7     C     0.13305   0.40753   0.45259   0.00000  Uiso   1.00
C8     C     0.10768   0.35126   0.39197   0.00000  Uiso   1.00
C9     C     0.05570   0.24507   0.30677   0.00000  Uiso   1.00
C10    C     0.28550   0.56845   0.53459   0.00000  Uiso   1.00
C11    C     0.34517   0.59019   0.60384   0.00000  Uiso   1.00
C12    C     0.41682   0.61746   0.61240   0.00000  Uiso   1.00
C13    C     0.54376   0.66534   0.65478   0.00000  Uiso   1.00
C14    C     0.22378   0.54683   0.40508   0.00000  Uiso   1.00
C15    C     0.17809   0.58554   0.41948   0.00000  Uiso   1.00
C16    C     0.14969   0.62271   0.38044   0.00000  Uiso   1.00
C17    C     0.10934   0.65443   0.40215   0.00000  Uiso   1.00
C18    C     0.18176   0.47451   0.39378   0.00000  Uiso   1.00
C19    C     0.15645   0.41831   0.33314   0.00000  Uiso   1.00
C20    C     0.11919   0.35656   0.33322   0.00000  Uiso   1.00
C21    C     0.29699   0.57375   0.47595   0.00000  Uiso   1.00
C22    C     0.36857   0.60097   0.48440   0.00000  Uiso   1.00
C23    C     0.42833   0.62275   0.55365   0.00000  Uiso   1.00
H24    H     0.19369   0.53296   0.55869   0.00000  Uiso   1.00
H25    H     0.11740   0.60781   0.54527   0.00000  Uiso   1.00
H26    H     0.12417   0.40346   0.49798   0.00000  Uiso   1.00
H27    H     0.33626   0.58609   0.64921   0.00000  Uiso   1.00
H28    H     0.03787   0.69312   0.50451   0.00000  Uiso   1.00
H29    H     0.05217   0.26221   0.40481   0.00000  Uiso   1.00
H30    H     0.49939   0.64733   0.72371   0.00000  Uiso   1.00
H31    H     0.23272   0.55094   0.35942   0.00000  Uiso   1.00
H32    H     0.15858   0.62679   0.33506   0.00000  Uiso   1.00
H33    H     0.16535   0.42243   0.28778   0.00000  Uiso   1.00
H34    H     0.37744   0.60506   0.43900   0.00000  Uiso   1.00
H35    H     0.07129   0.70852   0.33390   0.00000  Uiso   1.00
H36    H     0.08559   0.27761   0.23420   0.00000  Uiso   1.00
H37    H     0.53281   0.66273   0.55310   0.00000  Uiso   1.00
O38    O     0.00509   0.75037   0.40676   0.00000  Uiso   1.00
O39    O     0.02385   0.18503   0.27597   0.00000  Uiso   1.00
O40    O     0.61060   0.69030   0.69436   0.00000  Uiso   1.00
N41    N     0.05593   0.68634   0.46771   0.00000  Uiso   1.00
N42    N     0.06928   0.28347   0.37449   0.00000  Uiso   1.00
N43    N     0.48740   0.64351   0.67263   0.00000  Uiso   1.00
N44    N     0.07391   0.69463   0.37590   0.00000  Uiso   1.00
N45    N     0.08726   0.29176   0.28269   0.00000  Uiso   1.00
N46    N     0.50538   0.65179   0.58083   0.00000  Uiso   1.00
C47    C     0.46910   0.14847   0.22852   0.00000  Uiso   1.00
C48    C     0.40629   0.12897   0.24790   0.00000  Uiso   1.00
C49    C     0.38697   0.07527   0.26904   0.00000  Uiso   1.00
C50    C     0.32781   0.06584   0.28444   0.00000  Uiso   1.00
C51    C     0.23611   0.02904   0.31535   0.00000  Uiso   1.00
C52    C     0.43241   0.14912   0.15214   0.00000  Uiso   1.00
C53    C     0.43507   0.11236   0.09276   0.00000  Uiso   1.00
C54    C     0.39791   0.11991   0.02755   0.00000  Uiso   1.00
C55    C     0.34681   0.11443   0.90980   0.00000  Uiso   1.00
C56    C     0.52011   0.22129   0.27849   0.00000  Uiso   1.00
C57    C     0.59652   0.24521   0.32533   0.00000  Uiso   1.00
C58    C     0.63320   0.31352   0.36649   0.00000  Uiso   1.00
C59    C     0.71827   0.42008   0.44491   0.00000  Uiso   1.00
C60    C     0.39838   0.22724   0.21828   0.00000  Uiso   1.00
C61    C     0.36788   0.17176   0.24234   0.00000  Uiso   1.00
C62    C     0.30873   0.16241   0.25771   0.00000  Uiso   1.00
C63    C     0.28933   0.10870   0.27887   0.00000  Uiso   1.00
C64    C     0.39400   0.19190   0.14658   0.00000  Uiso   1.00
C65    C     0.35683   0.19951   0.08144   0.00000  Uiso   1.00
C66    C     0.35943   0.16277   0.02198   0.00000  Uiso   1.00
C67    C     0.48170   0.26407   0.27293   0.00000  Uiso   1.00
C68    C     0.51828   0.33235   0.31401   0.00000  Uiso   1.00
C69    C     0.59472   0.35638   0.36092   0.00000  Uiso   1.00
H70    H     0.49900   0.11516   0.23284   0.00000  Uiso   1.00
H71    H     0.41671   0.04216   0.27333   0.00000  Uiso   1.00
H72    H     0.46481   0.07926   0.09708   0.00000  Uiso   1.00
H73    H     0.62623   0.21209   0.32962   0.00000  Uiso   1.00
H74    H     0.30852   0.98009   0.31574   0.00000  Uiso   1.00
H75    H     0.40996   0.05833   0.94413   0.00000  Uiso   1.00
H76    H     0.75034   0.33842   0.43447   0.00000  Uiso   1.00
H77    H     0.36847   0.26054   0.21395   0.00000  Uiso   1.00
H78    H     0.27902   0.19553   0.25341   0.00000  Uiso   1.00
H79    H     0.32712   0.23262   0.07716   0.00000  Uiso   1.00
H80    H     0.48853   0.36545   0.30970   0.00000  Uiso   1.00
H81    H     0.19676   0.10456   0.29956   0.00000  Uiso   1.00
H82    H     0.29820   0.18280   0.92795   0.00000  Uiso   1.00
H83    H     0.63858   0.46289   0.41830   0.00000  Uiso   1.00
O84    O     0.19613   0.99691   0.33392   0.00000  Uiso   1.00
O85    O     0.32923   0.09958   0.84639   0.00000  Uiso   1.00
O86    O     0.77580   0.46704   0.48971   0.00000  Uiso   1.00
N87    N     0.29450   0.01831   0.30653   0.00000  Uiso   1.00
N88    N     0.38933   0.09146   0.95909   0.00000  Uiso   1.00
N89    N     0.70757   0.35332   0.41751   0.00000  Uiso   1.00
N90    N     0.23437   0.08529   0.29783   0.00000  Uiso   1.00
N91    N     0.32920   0.15843   0.95039   0.00000  Uiso   1.00
N92    N     0.64743   0.42029   0.40881   0.00000  Uiso   1.00
C93    C     0.53316   0.64259   0.00909   0.00000  Uiso   1.00
C94    C     0.56474   0.58843   0.01171   0.00000  Uiso   1.00
C95    C     0.57663   0.55407   0.95798   0.00000  Uiso   1.00
C96    C     0.60596   0.50637   0.97067   0.00000  Uiso   1.00
C97    C     0.65241   0.42421   0.96496   0.00000  Uiso   1.00
C98    C     0.46467   0.61877   0.01974   0.00000  Uiso   1.00
C99    C     0.39242   0.60992   0.97277   0.00000  Uiso   1.00
C100   C     0.33751   0.58776   0.99222   0.00000  Uiso   1.00
C101   C     0.22861   0.55274   0.99901   0.00000  Uiso   1.00
C102   C     0.59126   0.70440   0.07674   0.00000  Uiso   1.00
C103   C     0.62544   0.76755   0.07769   0.00000  Uiso   1.00
C104   C     0.67710   0.81750   0.14513   0.00000  Uiso   1.00
C105   C     0.76474   0.91542   0.24041   0.00000  Uiso   1.00
C106   C     0.56411   0.61900   0.12717   0.00000  Uiso   1.00
C107   C     0.58155   0.57562   0.07584   0.00000  Uiso   1.00
C108   C     0.61087   0.52797   0.08861   0.00000  Uiso   1.00
C109   C     0.62280   0.49354   0.03491   0.00000  Uiso   1.00
C110   C     0.48148   0.60595   0.08387   0.00000  Uiso   1.00
C111   C     0.42666   0.58381   0.10340   0.00000  Uiso   1.00
C112   C     0.35435   0.57492   0.05647   0.00000  Uiso   1.00
C113   C     0.60807   0.69158   0.14087   0.00000  Uiso   1.00
C114   C     0.65968   0.74144   0.20832   0.00000  Uiso   1.00
C115   C     0.69393   0.80466   0.20937   0.00000  Uiso   1.00
H116   H     0.52007   0.65257   0.95917   0.00000  Uiso   1.00
H117   H     0.56361   0.56400   0.90836   0.00000  Uiso   1.00
H118   H     0.37943   0.61984   0.92315   0.00000  Uiso   1.00
H119   H     0.61242   0.77745   0.02805   0.00000  Uiso   1.00
H120   H     0.61927   0.46013   0.88030   0.00000  Uiso   1.00
H121   H     0.23093   0.57791   0.91150   0.00000  Uiso   1.00
H122   H     0.72222   0.91025   0.13270   0.00000  Uiso   1.00
H123   H     0.57719   0.60902   0.17710   0.00000  Uiso   1.00
H124   H     0.62387   0.51806   0.13825   0.00000  Uiso   1.00
H125   H     0.43969   0.57390   0.15303   0.00000  Uiso   1.00
H126   H     0.67268   0.73151   0.25794   0.00000  Uiso   1.00
H127   H     0.66818   0.42284   0.06688   0.00000  Uiso   1.00
H128   H     0.27984   0.54062   0.09808   0.00000  Uiso   1.00
H129   H     0.77113   0.87296   0.31929   0.00000  Uiso   1.00
O130   O     0.67337   0.38242   0.94409   0.00000  Uiso   1.00
O131   O     0.16390   0.53695   0.98503   0.00000  Uiso   1.00
O132   O     0.80845   0.97297   0.27524   0.00000  Uiso   1.00
N133   N     0.62439   0.46385   0.92955   0.00000  Uiso   1.00
N134   N     0.26131   0.57395   0.95871   0.00000  Uiso   1.00
N135   N     0.72061   0.88467   0.16552   0.00000  Uiso   1.00
N136   N     0.65070   0.44379   0.02995   0.00000  Uiso   1.00
N137   N     0.28763   0.55389   0.05911   0.00000  Uiso   1.00
N138   N     0.74693   0.86461   0.26592   0.00000  Uiso   1.00
C139   C     0.48266   0.06394   0.77511   0.00000  Uiso   1.00
C140   C     0.46788   0.00342   0.79758   0.00000  Uiso   1.00
C141   C     0.41332   0.98084   0.81729   0.00000  Uiso   1.00
C142   C     0.40876   0.92457   0.83604   0.00000  Uiso   1.00
C143   C     0.37844   0.83551   0.87105   0.00000  Uiso   1.00
C144   C     0.47598   0.03772   0.70022   0.00000  Uiso   1.00
C145   C     0.42825   0.04399   0.63807   0.00000  Uiso   1.00
C146   C     0.43053   0.01660   0.57488   0.00000  Uiso   1.00
C147   C     0.41283   0.98085   0.45875   0.00000  Uiso   1.00
C148   C     0.56505   0.10972   0.82632   0.00000  Uiso   1.00
C149   C     0.59221   0.17653   0.87019   0.00000  Uiso   1.00
C150   C     0.66947   0.20977   0.91315   0.00000  Uiso   1.00
C151   C     0.79005   0.28581   0.99280   0.00000  Uiso   1.00
C152   C     0.57157   0.00417   0.77338   0.00000  Uiso   1.00
C153   C     0.51617   0.97095   0.79664   0.00000  Uiso   1.00
C154   C     0.51169   0.91471   0.81538   0.00000  Uiso   1.00
C155   C     0.45715   0.89205   0.83511   0.00000  Uiso   1.00
C156   C     0.52427   0.00526   0.69929   0.00000  Uiso   1.00
C157   C     0.52662   0.97786   0.63617   0.00000  Uiso   1.00
C158   C     0.47891   0.98408   0.57394   0.00000  Uiso   1.00
C159   C     0.61334   0.07726   0.82539   0.00000  Uiso   1.00
C160   C     0.69058   0.11040   0.86828   0.00000  Uiso   1.00
C161   C     0.71785   0.17725   0.91221   0.00000  Uiso   1.00
H162   H     0.44506   0.08921   0.77583   0.00000  Uiso   1.00
H163   H     0.37596   0.00597   0.81800   0.00000  Uiso   1.00
H164   H     0.39089   0.06912   0.63882   0.00000  Uiso   1.00
H165   H     0.55482   0.20164   0.87090   0.00000  Uiso   1.00
H166   H     0.32062   0.89935   0.86431   0.00000  Uiso   1.00
H167   H     0.35213   0.03252   0.48650   0.00000  Uiso   1.00
H168   H     0.69780   0.31197   0.97589   0.00000  Uiso   1.00
H169   H     0.60917   0.97890   0.77265   0.00000  Uiso   1.00
H170   H     0.54907   0.88960   0.81465   0.00000  Uiso   1.00
H171   H     0.56401   0.95275   0.63547   0.00000  Uiso   1.00
H172   H     0.72793   0.08527   0.86755   0.00000  Uiso   1.00
H173   H     0.46113   0.80489   0.86159   0.00000  Uiso   1.00
H174   H     0.49264   0.93807   0.48378   0.00000  Uiso   1.00
H175   H     0.83831   0.21751   0.97317   0.00000  Uiso   1.00
O176   O     0.34836   0.79535   0.89061   0.00000  Uiso   1.00
O177   O     0.38971   0.97008   0.39495   0.00000  Uiso   1.00
O178   O     0.84322   0.33671   0.03701   0.00000  Uiso   1.00
N179   N     0.36195   0.88938   0.85792   0.00000  Uiso   1.00
N180   N     0.39140   0.01388   0.50469   0.00000  Uiso   1.00
N181   N     0.71457   0.27515   0.96221   0.00000  Uiso   1.00
N182   N     0.43755   0.83856   0.85646   0.00000  Uiso   1.00
N183   N     0.46700   0.96306   0.50323   0.00000  Uiso   1.00
N184   N     0.79018   0.22432   0.96075   0.00000  Uiso   1.00
C185   C     0.00999   0.01924   0.50704   0.00000  Uiso   1.00
C186   C     0.96916   0.05598   0.46485   0.00000  Uiso   1.00
C187   C     0.98489   0.08102   0.41668   0.00000  Uiso   1.00
C188   C     0.94112   0.11303   0.38353   0.00000  Uiso   1.00
C189   C     0.88643   0.16902   0.31577   0.00000  Uiso   1.00
C190   C     0.94982   0.95177   0.48773   0.00000  Uiso   1.00
C191   C     0.94931   0.88920   0.45881   0.00000  Uiso   1.00
C192   C     0.88926   0.83349   0.44493   0.00000  Uiso   1.00
C193   C     0.80458   0.72770   0.41276   0.00000  Uiso   1.00
C194   C     0.03855   0.05842   0.58689   0.00000  Uiso   1.00
C195   C     0.11263   0.08551   0.64135   0.00000  Uiso   1.00
C196   C     0.12728   0.11958   0.71097   0.00000  Uiso   1.00
C197   C     0.18035   0.17938   0.83275   0.00000  Uiso   1.00
C198   C     0.90428   0.03157   0.53383   0.00000  Uiso   1.00
C199   C     0.91174   0.06267   0.47940   0.00000  Uiso   1.00
C200   C     0.86793   0.09465   0.44631   0.00000  Uiso   1.00
C201   C     0.88360   0.11974   0.39810   0.00000  Uiso   1.00
C202   C     0.89240   0.95846   0.50228   0.00000  Uiso   1.00
C203   C     0.83235   0.90284   0.48845   0.00000  Uiso   1.00
C204   C     0.83174   0.84019   0.45951   0.00000  Uiso   1.00
C205   C     0.98113   0.06512   0.60144   0.00000  Uiso   1.00
C206   C     0.99566   0.09915   0.67099   0.00000  Uiso   1.00
C207   C     0.06975   0.12628   0.72554   0.00000  Uiso   1.00
H208   H     0.05469   0.01403   0.49571   0.00000  Uiso   1.00
H209   H     0.02933   0.07582   0.40543   0.00000  Uiso   1.00
H210   H     0.99376   0.88403   0.44756   0.00000  Uiso   1.00
H211   H     0.15705   0.08032   0.63007   0.00000  Uiso   1.00
H212   H     0.97587   0.14726   0.31173   0.00000  Uiso   1.00
H213   H     0.90087   0.74286   0.40059   0.00000  Uiso   1.00
H214   H     0.24520   0.15676   0.78545   0.00000  Uiso   1.00
H215   H     0.85957   0.03678   0.54516   0.00000  Uiso   1.00
H216   H     0.82350   0.09983   0.45759   0.00000  Uiso   1.00
H217   H     0.78793   0.90804   0.49972   0.00000  Uiso   1.00
H218   H     0.95122   0.10432   0.68223   0.00000  Uiso   1.00
H219   H     0.80881   0.16674   0.35406   0.00000  Uiso   1.00
H220   H     0.73381   0.76234   0.44293   0.00000  Uiso   1.00
H221   H     0.07814   0.17625   0.82779   0.00000  Uiso   1.00
O222   O     0.87212   0.19804   0.27437   0.00000  Uiso   1.00
O223   O     0.77373   0.66749   0.39098   0.00000  Uiso   1.00
O224   O     0.22548   0.21052   0.89590   0.00000  Uiso   1.00
N225   N     0.94151   0.14320   0.33372   0.00000  Uiso   1.00
N226   N     0.87139   0.76512   0.41679   0.00000  Uiso   1.00
N227   N     0.19330   0.15207   0.77661   0.00000  Uiso   1.00
N228   N     0.85162   0.15369   0.35650   0.00000  Uiso   1.00
N229   N     0.78149   0.77560   0.43957   0.00000  Uiso   1.00
N230   N     0.10341   0.16255   0.79939   0.00000  Uiso   1.00
C231   C     0.99951   0.75644   0.97903   0.00000  Uiso   1.00
C232   C     0.01578   0.71090   0.92835   0.00000  Uiso   1.00
C233   C     0.05032   0.66728   0.94499   0.00000  Uiso   1.00
C234   C     0.06010   0.62993   0.89122   0.00000  Uiso   1.00
C235   C     0.08897   0.55826   0.82286   0.00000  Uiso   1.00
C236   C     0.91531   0.73859   0.93890   0.00000  Uiso   1.00
C237   C     0.86537   0.71827   0.96441   0.00000  Uiso   1.00
C238   C     0.79057   0.70424   0.91953   0.00000  Uiso   1.00
C239   C     0.66345   0.67561   0.86757   0.00000  Uiso   1.00
C240   C     0.03724   0.82752   0.98411   0.00000  Uiso   1.00
C241   C     0.08982   0.88198   0.04763   0.00000  Uiso   1.00
C242   C     0.11767   0.94282   0.04080   0.00000  Uiso   1.00
C243   C     0.17988   0.05228   0.05903   0.00000  Uiso   1.00
C244   C     0.95544   0.76767   0.85396   0.00000  Uiso   1.00
C245   C     0.99184   0.71700   0.86042   0.00000  Uiso   1.00
C246   C     0.00157   0.67971   0.80662   0.00000  Uiso   1.00
C247   C     0.03612   0.63604   0.82317   0.00000  Uiso   1.00
C248   C     0.89137   0.74469   0.87098   0.00000  Uiso   1.00
C249   C     0.81662   0.73069   0.82604   0.00000  Uiso   1.00
C250   C     0.76658   0.71035   0.85147   0.00000  Uiso   1.00
C251   C     0.01331   0.83362   0.91618   0.00000  Uiso   1.00
C252   C     0.04107   0.89440   0.90926   0.00000  Uiso   1.00
C253   C     0.09368   0.94894   0.97275   0.00000  Uiso   1.00
H254   H     0.01814   0.75169   0.03191   0.00000  Uiso   1.00
H255   H     0.06884   0.66257   0.99756   0.00000  Uiso   1.00
H256   H     0.88392   0.71356   0.01699   0.00000  Uiso   1.00
H257   H     0.10833   0.87724   0.10019   0.00000  Uiso   1.00
H258   H     0.11446   0.56644   0.92951   0.00000  Uiso   1.00
H259   H     0.72455   0.67397   0.97048   0.00000  Uiso   1.00
H260   H     0.19777   0.01912   0.14593   0.00000  Uiso   1.00
H261   H     0.93680   0.77242   0.80107   0.00000  Uiso   1.00
H262   H     0.98304   0.68444   0.75405   0.00000  Uiso   1.00
H263   H     0.79811   0.73542   0.77348   0.00000  Uiso   1.00
H264   H     0.02253   0.89910   0.85668   0.00000  Uiso   1.00
H265   H     0.04481   0.58418   0.73187   0.00000  Uiso   1.00
H266   H     0.65490   0.69171   0.77284   0.00000  Uiso   1.00
H267   H     0.12813   0.03687   0.94829   0.00000  Uiso   1.00
O268   O     0.11149   0.51704   0.80392   0.00000  Uiso   1.00
O269   O     0.59995   0.65813   0.85768   0.00000  Uiso   1.00
O270   O     0.22081   0.11096   0.08785   0.00000  Uiso   1.00
N271   N     0.09173   0.58270   0.88945   0.00000  Uiso   1.00
N272   N     0.72719   0.68322   0.92775   0.00000  Uiso   1.00
N273   N     0.16960   0.00591   0.09178   0.00000  Uiso   1.00
N274   N     0.05426   0.59225   0.78311   0.00000  Uiso   1.00
N275   N     0.68972   0.69277   0.82141   0.00000  Uiso   1.00
N276   N     0.13213   0.01546   0.98543   0.00000  Uiso   1.00
C277   C     0.75955   0.42999   0.19713   0.00000  Uiso   1.00
C278   C     0.80856   0.42039   0.26506   0.00000  Uiso   1.00
C279   C     0.83368   0.36876   0.26626   0.00000  Uiso   1.00
C280   C     0.87797   0.36886   0.33392   0.00000  Uiso   1.00
C281   C     0.95129   0.34638   0.42964   0.00000  Uiso   1.00
C282   C     0.80271   0.50021   0.20377   0.00000  Uiso   1.00
C283   C     0.82289   0.51568   0.15344   0.00000  Uiso   1.00
C284   C     0.86224   0.58297   0.16952   0.00000  Uiso   1.00
C285   C     0.92643   0.68441   0.17007   0.00000  Uiso   1.00
C286   C     0.69068   0.43240   0.20345   0.00000  Uiso   1.00
C287   C     0.61667   0.39087   0.15284   0.00000  Uiso   1.00
C288   C     0.56170   0.40108   0.16863   0.00000  Uiso   1.00
C289   C     0.45195   0.39724   0.16868   0.00000  Uiso   1.00
C290   C     0.79354   0.52197   0.31517   0.00000  Uiso   1.00
C291   C     0.82702   0.47036   0.32917   0.00000  Uiso   1.00
C292   C     0.87129   0.47053   0.39685   0.00000  Uiso   1.00
C293   C     0.89646   0.41891   0.39815   0.00000  Uiso   1.00
C294   C     0.82117   0.55017   0.26788   0.00000  Uiso   1.00
C295   C     0.86050   0.61745   0.28404   0.00000  Uiso   1.00
C296   C     0.88074   0.63302   0.23375   0.00000  Uiso   1.00
C297   C     0.70914   0.48236   0.26756   0.00000  Uiso   1.00
C298   C     0.65428   0.49264   0.28344   0.00000  Uiso   1.00
C299   C     0.58020   0.45114   0.23286   0.00000  Uiso   1.00
H300   H     0.74517   0.39109   0.14721   0.00000  Uiso   1.00
H301   H     0.81938   0.33011   0.21663   0.00000  Uiso   1.00
H302   H     0.80858   0.47701   0.10383   0.00000  Uiso   1.00
H303   H     0.60240   0.35222   0.10323   0.00000  Uiso   1.00
H304   H     0.90982   0.28455   0.32186   0.00000  Uiso   1.00
H305   H     0.88703   0.59429   0.08401   0.00000  Uiso   1.00
H306   H     0.45225   0.33114   0.08274   0.00000  Uiso   1.00
H307   H     0.80792   0.56087   0.36508   0.00000  Uiso   1.00
H308   H     0.88557   0.50920   0.44646   0.00000  Uiso   1.00
H309   H     0.87477   0.65610   0.33366   0.00000  Uiso   1.00
H310   H     0.66859   0.53131   0.33306   0.00000  Uiso   1.00
H311   H     0.96354   0.42991   0.50840   0.00000  Uiso   1.00
H312   H     0.94075   0.73965   0.27054   0.00000  Uiso   1.00
H313   H     0.50597   0.47650   0.26928   0.00000  Uiso   1.00
O314   O     0.98665   0.32019   0.46473   0.00000  Uiso   1.00
O315   O     0.95674   0.72656   0.15267   0.00000  Uiso   1.00
O316   O     0.38632   0.38131   0.15100   0.00000  Uiso   1.00
N317   N     0.91179   0.32584   0.35459   0.00000  Uiso   1.00
N318   N     0.89050   0.61543   0.13222   0.00000  Uiso   1.00
N319   N     0.48401   0.36942   0.13103   0.00000  Uiso   1.00
N320   N     0.94070   0.40406   0.45497   0.00000  Uiso   1.00
N321   N     0.91941   0.69365   0.23260   0.00000  Uiso   1.00
N322   N     0.51292   0.44764   0.23140   0.00000  Uiso   1.00
C323   C     0.36372   0.72382   0.31885   0.00000  Uiso   1.00
C324   C     0.40344   0.76218   0.28519   0.00000  Uiso   1.00
C325   C     0.37976   0.80296   0.24910   0.00000  Uiso   1.00
C326   C     0.42391   0.83367   0.22223   0.00000  Uiso   1.00
C327   C     0.47566   0.89474   0.16864   0.00000  Uiso   1.00
C328   C     0.42144   0.74661   0.39840   0.00000  Uiso   1.00
C329   C     0.41288   0.77428   0.45749   0.00000  Uiso   1.00
C330   C     0.47219   0.79187   0.52593   0.00000  Uiso   1.00
C331   C     0.55186   0.82871   0.64809   0.00000  Uiso   1.00
C332   C     0.34887   0.65036   0.28425   0.00000  Uiso   1.00
C333   C     0.27929   0.59710   0.24738   0.00000  Uiso   1.00
C334   C     0.27750   0.53365   0.21973   0.00000  Uiso   1.00
C335   C     0.24449   0.42105   0.16466   0.00000  Uiso   1.00
C336   C     0.48425   0.70583   0.33531   0.00000  Uiso   1.00
C337   C     0.46891   0.75241   0.29413   0.00000  Uiso   1.00
C338   C     0.51311   0.78305   0.26731   0.00000  Uiso   1.00
C339   C     0.48950   0.82387   0.23118   0.00000  Uiso   1.00
C340   C     0.48691   0.73683   0.40734   0.00000  Uiso   1.00
C341   C     0.54624   0.75437   0.47570   0.00000  Uiso   1.00
C342   C     0.53778   0.78208   0.53489   0.00000  Uiso   1.00
C343   C     0.41434   0.64058   0.29319   0.00000  Uiso   1.00
C344   C     0.41265   0.57720   0.26559   0.00000  Uiso   1.00
C345   C     0.34309   0.52385   0.22869   0.00000  Uiso   1.00
H346   H     0.31275   0.73143   0.31190   0.00000  Uiso   1.00
H347   H     0.32909   0.81052   0.24220   0.00000  Uiso   1.00
H348   H     0.36221   0.78184   0.45056   0.00000  Uiso   1.00
H349   H     0.22864   0.60468   0.24048   0.00000  Uiso   1.00
H350   H     0.37609   0.89391   0.16889   0.00000  Uiso   1.00
H351   H     0.44592   0.83341   0.60823   0.00000  Uiso   1.00
H352   H     0.16426   0.45985   0.16523   0.00000  Uiso   1.00
H353   H     0.53523   0.69822   0.34227   0.00000  Uiso   1.00
H354   H     0.56378   0.77548   0.27424   0.00000  Uiso   1.00
H355   H     0.59689   0.74680   0.48260   0.00000  Uiso   1.00
H356   H     0.46333   0.56965   0.27252   0.00000  Uiso   1.00
H357   H     0.56658   0.86547   0.19490   0.00000  Uiso   1.00
H358   H     0.63640   0.80497   0.63424   0.00000  Uiso   1.00
H359   H     0.35475   0.43141   0.19124   0.00000  Uiso   1.00
O360   O     0.48612   0.93113   0.13661   0.00000  Uiso   1.00
O361   O     0.57771   0.85175   0.71301   0.00000  Uiso   1.00
O362   O     0.20819   0.36165   0.13181   0.00000  Uiso   1.00
N363   N     0.41700   0.87660   0.18434   0.00000  Uiso   1.00
N364   N     0.48228   0.82005   0.59509   0.00000  Uiso   1.00
N365   N     0.21896   0.47080   0.18095   0.00000  Uiso   1.00
N366   N     0.51949   0.86130   0.19833   0.00000  Uiso   1.00
N367   N     0.58478   0.80475   0.60909   0.00000  Uiso   1.00
N368   N     0.32146   0.45550   0.19494   0.00000  Uiso   1.00
C369   C     0.50982   0.30042   0.69276   0.00000  Uiso   1.00
C370   C     0.49035   0.31165   0.75429   0.00000  Uiso   1.00
C371   C     0.49050   0.27248   0.79628   0.00000  Uiso   1.00
C372   C     0.47102   0.29105   0.84991   0.00000  Uiso   1.00
C373   C     0.44370   0.30003   0.94377   0.00000  Uiso   1.00
C374   C     0.57319   0.36571   0.71209   0.00000  Uiso   1.00
C375   C     0.64299   0.37200   0.71859   0.00000  Uiso   1.00
C376   C     0.69324   0.43609   0.73669   0.00000  Uiso   1.00
C377   C     0.79451   0.52900   0.76499   0.00000  Uiso   1.00
C378   C     0.44204   0.29423   0.62601   0.00000  Uiso   1.00
C379   C     0.40158   0.24042   0.56012   0.00000  Uiso   1.00
C380   C     0.34142   0.24433   0.50574   0.00000  Uiso   1.00
C381   C     0.23907   0.22625   0.40038   0.00000  Uiso   1.00
C382   C     0.47495   0.40305   0.71332   0.00000  Uiso   1.00
C383   C     0.47141   0.36739   0.76545   0.00000  Uiso   1.00
C384   C     0.45192   0.38603   0.81903   0.00000  Uiso   1.00
C385   C     0.45204   0.34690   0.86110   0.00000  Uiso   1.00
C386   C     0.55425   0.42146   0.72326   0.00000  Uiso   1.00
C387   C     0.60441   0.48555   0.74135   0.00000  Uiso   1.00
C388   C     0.67427   0.49194   0.74788   0.00000  Uiso   1.00
C389   C     0.42310   0.34998   0.63717   0.00000  Uiso   1.00
C390   C     0.36300   0.35398   0.58288   0.00000  Uiso   1.00
C391   C     0.32245   0.30018   0.51693   0.00000  Uiso   1.00
H392   H     0.52457   0.25702   0.68407   0.00000  Uiso   1.00
H393   H     0.50517   0.22934   0.78762   0.00000  Uiso   1.00
H394   H     0.65763   0.32885   0.70994   0.00000  Uiso   1.00
H395   H     0.41626   0.19729   0.55150   0.00000  Uiso   1.00
H396   H     0.47533   0.22326   0.90738   0.00000  Uiso   1.00
H397   H     0.79679   0.43307   0.74356   0.00000  Uiso   1.00
H398   H     0.28781   0.15565   0.40945   0.00000  Uiso   1.00
H399   H     0.46020   0.44646   0.72202   0.00000  Uiso   1.00
H400   H     0.43726   0.42917   0.82766   0.00000  Uiso   1.00
H401   H     0.58973   0.52868   0.74998   0.00000  Uiso   1.00
H402   H     0.34835   0.39712   0.59154   0.00000  Uiso   1.00
H403   H     0.42022   0.38545   0.93988   0.00000  Uiso   1.00
H404   H     0.74168   0.59526   0.77606   0.00000  Uiso   1.00
H405   H     0.23270   0.31785   0.44195   0.00000  Uiso   1.00
O406   O     0.43387   0.28958   0.99246   0.00000  Uiso   1.00
O407   O     0.85561   0.56484   0.77751   0.00000  Uiso   1.00
O408   O     0.18784   0.20088   0.33918   0.00000  Uiso   1.00
N409   N     0.46549   0.26380   0.90052   0.00000  Uiso   1.00
N410   N     0.76605   0.45996   0.74737   0.00000  Uiso   1.00
N411   N     0.29020   0.20060   0.43500   0.00000  Uiso   1.00
N412   N     0.43584   0.35107   0.91801   0.00000  Uiso   1.00
N413   N     0.73639   0.54723   0.76486   0.00000  Uiso   1.00
N414   N     0.26055   0.28788   0.45249   0.00000  Uiso   1.00
C415   C     0.11914   0.79008   0.74051   0.00000  Uiso   1.00
C416   C     0.16759   0.81622   0.70749   0.00000  Uiso   1.00
C417   C     0.19261   0.77860   0.66935   0.00000  Uiso   1.00
C418   C     0.23636   0.81178   0.64351   0.00000  Uiso   1.00
C419   C     0.30888   0.84198   0.59047   0.00000  Uiso   1.00
C420   C     0.16262   0.83429   0.82089   0.00000  Uiso   1.00
C421   C     0.18345   0.81185   0.87809   0.00000  Uiso   1.00
C422   C     0.22301   0.86025   0.94772   0.00000  Uiso   1.00
C423   C     0.28776   0.91850   0.07074   0.00000  Uiso   1.00
C424   C     0.04997   0.80597   0.70818   0.00000  Uiso   1.00
C425   C     0.97607   0.75972   0.67062   0.00000  Uiso   1.00
C426   C     0.92078   0.78428   0.64536   0.00000  Uiso   1.00
C427   C     0.81062   0.79855   0.59337   0.00000  Uiso   1.00
C428   C     0.15234   0.91593   0.76245   0.00000  Uiso   1.00
C429   C     0.18562   0.88458   0.71942   0.00000  Uiso   1.00
C430   C     0.22934   0.91783   0.69363   0.00000  Uiso   1.00
C431   C     0.25442   0.88026   0.65545   0.00000  Uiso   1.00
C432   C     0.18065   0.90264   0.83282   0.00000  Uiso   1.00
C433   C     0.22018   0.95109   0.90237   0.00000  Uiso   1.00
C434   C     0.24107   0.92873   0.95967   0.00000  Uiso   1.00
C435   C     0.06800   0.87432   0.72010   0.00000  Uiso   1.00
C436   C     0.01281   0.89896   0.69490   0.00000  Uiso   1.00
C437   C     0.93884   0.85276   0.65731   0.00000  Uiso   1.00
H438   H     0.10510   0.73687   0.73123   0.00000  Uiso   1.00
H439   H     0.17865   0.72570   0.66014   0.00000  Uiso   1.00
H440   H     0.16948   0.75895   0.86885   0.00000  Uiso   1.00
H441   H     0.96214   0.70683   0.66141   0.00000  Uiso   1.00
H442   H     0.26817   0.74347   0.58661   0.00000  Uiso   1.00
H443   H     0.24881   0.81359   0.02669   0.00000  Uiso   1.00
H444   H     0.81159   0.70367   0.58925   0.00000  Uiso   1.00
H445   H     0.16638   0.96915   0.77173   0.00000  Uiso   1.00
H446   H     0.24329   0.97073   0.70286   0.00000  Uiso   1.00
H447   H     0.23412   0.00398   0.91158   0.00000  Uiso   1.00
H448   H     0.02678   0.95186   0.70413   0.00000  Uiso   1.00
H449   H     0.32064   0.94234   0.62128   0.00000  Uiso   1.00
H450   H     0.30128   0.01246   0.06137   0.00000  Uiso   1.00
H451   H     0.86406   0.90255   0.62393   0.00000  Uiso   1.00
O452   O     0.34391   0.83976   0.55793   0.00000  Uiso   1.00
O453   O     0.31850   0.93175   0.13530   0.00000  Uiso   1.00
O454   O     0.74488   0.78755   0.56139   0.00000  Uiso   1.00
N455   N     0.26995   0.79005   0.60421   0.00000  Uiso   1.00
N456   N     0.25186   0.85561   0.01566   0.00000  Uiso   1.00
N457   N     0.84309   0.75285   0.60671   0.00000  Uiso   1.00
N458   N     0.29818   0.89707   0.62286   0.00000  Uiso   1.00
N459   N     0.28009   0.96262   0.03431   0.00000  Uiso   1.00
N460   N     0.87133   0.85987   0.62537   0.00000  Uiso   1.00
C461   C     0.87206   0.05979   0.06111   0.00000  Uiso   1.00
C462   C     0.91606   0.03617   0.11877   0.00000  Uiso   1.00
C463   C     0.89486   0.01605   0.16666   0.00000  Uiso   1.00
C464   C     0.94282   0.99623   0.21532   0.00000  Uiso   1.00
C465   C     0.00102   0.95953   0.30476   0.00000  Uiso   1.00
C466   C     0.92547   0.12940   0.07631   0.00000  Uiso   1.00
C467   C     0.91217   0.18766   0.08849   0.00000  Uiso   1.00
C468   C     0.96805   0.24631   0.10140   0.00000  Uiso   1.00
C469   C     0.04083   0.35435   0.12487   0.00000  Uiso   1.00
C470   C     0.85886   0.01421   0.98913   0.00000  Uiso   1.00
C471   C     0.78955   0.97563   0.92799   0.00000  Uiso   1.00
C472   C     0.78936   0.93731   0.86749   0.00000  Uiso   1.00
C473   C     0.75872   0.86650   0.75560   0.00000  Uiso   1.00
C474   C     0.99496   0.06038   0.06237   0.00000  Uiso   1.00
C475   C     0.98282   0.03650   0.11945   0.00000  Uiso   1.00
C476   C     0.03083   0.01670   0.16805   0.00000  Uiso   1.00
C477   C     0.00970   0.99654   0.21600   0.00000  Uiso   1.00
C478   C     0.99223   0.12972   0.07700   0.00000  Uiso   1.00
C479   C     0.04814   0.18831   0.08988   0.00000  Uiso   1.00
C480   C     0.03493   0.24663   0.10208   0.00000  Uiso   1.00
C481   C     0.92562   0.01453   0.98981   0.00000  Uiso   1.00
C482   C     0.92554   0.97627   0.92939   0.00000  Uiso   1.00
C483   C     0.85624   0.93763   0.86818   0.00000  Uiso   1.00
H484   H     0.82009   0.05955   0.06058   0.00000  Uiso   1.00
H485   H     0.84319   0.01582   0.16611   0.00000  Uiso   1.00
H486   H     0.86050   0.18739   0.08795   0.00000  Uiso   1.00
H487   H     0.73791   0.97540   0.92748   0.00000  Uiso   1.00
H488   H     0.89826   0.96749   0.28344   0.00000  Uiso   1.00
H489   H     0.93474   0.32927   0.11860   0.00000  Uiso   1.00
H490   H     0.67623   0.88223   0.78022   0.00000  Uiso   1.00
H491   H     0.04694   0.06063   0.06291   0.00000  Uiso   1.00
H492   H     0.08249   0.01695   0.16857   0.00000  Uiso   1.00
H493   H     0.09979   0.18853   0.09041   0.00000  Uiso   1.00
H494   H     0.97721   0.97653   0.92994   0.00000  Uiso   1.00
H495   H     0.09249   0.96841   0.28543   0.00000  Uiso   1.00
H496   H     0.12896   0.33020   0.12059   0.00000  Uiso   1.00
H497   H     0.87046   0.88315   0.78221   0.00000  Uiso   1.00
O498   O     0.01468   0.93922   0.35392   0.00000  Uiso   1.00
O499   O     0.06253   0.41386   0.13764   0.00000  Uiso   1.00
O500   O     0.72338   0.82735   0.69370   0.00000  Uiso   1.00
N501   N     0.93909   0.97369   0.26940   0.00000  Uiso   1.00
N502   N     0.97319   0.31193   0.11529   0.00000  Uiso   1.00
N503   N     0.73151   0.89400   0.79893   0.00000  Uiso   1.00
N504   N     0.04360   0.97418   0.27047   0.00000  Uiso   1.00
N505   N     0.07770   0.31243   0.11637   0.00000  Uiso   1.00
N506   N     0.83603   0.89450   0.80000   0.00000  Uiso   1.00
C507   C     0.99625   0.35729   0.80865   0.00000  Uiso   1.00
C508   C     0.97013   0.39110   0.85796   0.00000  Uiso   1.00
C509   C     0.94828   0.44438   0.85428   0.00000  Uiso   1.00
C510   C     0.92628   0.46819   0.90428   0.00000  Uiso   1.00
C511   C     0.88578   0.52505   0.97300   0.00000  Uiso   1.00
C512   C     0.07374   0.36184   0.85874   0.00000  Uiso   1.00
C513   C     0.13901   0.39051   0.85570   0.00000  Uiso   1.00
C514   C     0.20423   0.38968   0.90634   0.00000  Uiso   1.00
C515   C     0.32458   0.40106   0.97624   0.00000  Uiso   1.00
C516   C     0.94473   0.28299   0.77457   0.00000  Uiso   1.00
C517   C     0.90153   0.24536   0.70076   0.00000  Uiso   1.00
C518   C     0.85815   0.17814   0.68053   0.00000  Uiso   1.00
C519   C     0.77819   0.06710   0.61973   0.00000  Uiso   1.00
C520   C     0.99603   0.30484   0.90398   0.00000  Uiso   1.00
C521   C     0.97001   0.36261   0.90974   0.00000  Uiso   1.00
C522   C     0.94804   0.38635   0.95975   0.00000  Uiso   1.00
C523   C     0.92616   0.43965   0.95615   0.00000  Uiso   1.00
C524   C     0.07363   0.33335   0.91052   0.00000  Uiso   1.00
C525   C     0.13877   0.33248   0.96117   0.00000  Uiso   1.00
C526   C     0.20412   0.36114   0.95821   0.00000  Uiso   1.00
C527   C     0.94461   0.25450   0.82635   0.00000  Uiso   1.00
C528   C     0.90129   0.18733   0.80623   0.00000  Uiso   1.00
C529   C     0.85804   0.14960   0.73240   0.00000  Uiso   1.00
H530   H     0.99634   0.37947   0.76834   0.00000  Uiso   1.00
H531   H     0.94838   0.46642   0.81421   0.00000  Uiso   1.00
H532   H     0.13908   0.41255   0.81562   0.00000  Uiso   1.00
H533   H     0.90164   0.26742   0.66070   0.00000  Uiso   1.00
H534   H     0.89519   0.55026   0.88792   0.00000  Uiso   1.00
H535   H     0.29728   0.43665   0.89088   0.00000  Uiso   1.00
H536   H     0.79659   0.13063   0.56420   0.00000  Uiso   1.00
H537   H     0.99594   0.28266   0.94429   0.00000  Uiso   1.00
H538   H     0.94796   0.36429   0.99982   0.00000  Uiso   1.00
H539   H     0.13866   0.31042   0.00123   0.00000  Uiso   1.00
H540   H     0.90122   0.16530   0.84631   0.00000  Uiso   1.00
H541   H     0.89484   0.46738   0.03857   0.00000  Uiso   1.00
H542   H     0.29693   0.35377   0.04153   0.00000  Uiso   1.00
H543   H     0.79625   0.04774   0.71485   0.00000  Uiso   1.00
O544   O     0.86348   0.56428   0.99661   0.00000  Uiso   1.00
O545   O     0.39100   0.41522   0.00049   0.00000  Uiso   1.00
O546   O     0.73411   0.01372   0.57190   0.00000  Uiso   1.00
N547   N     0.90168   0.51954   0.91574   0.00000  Uiso   1.00
N548   N     0.27761   0.41334   0.91852   0.00000  Uiso   1.00
N549   N     0.80953   0.12722   0.61310   0.00000  Uiso   1.00
N550   N     0.90149   0.47494   0.99681   0.00000  Uiso   1.00
N551   N     0.27742   0.36874   0.99958   0.00000  Uiso   1.00
N552   N     0.80934   0.08262   0.69417   0.00000  Uiso   1.00
