data_job_00739
_audit_creation_date              2018-12-19
_audit_creation_method            'Materials Studio'
_symmetry_space_group_name_H-M    'P1'
_symmetry_Int_Tables_number       1
_symmetry_cell_setting            triclinic
loop_
_symmetry_equiv_pos_as_xyz
  x,y,z
_cell_length_a                    23.0811
_cell_length_b                    9.5687
_cell_length_c                    27.2243
_cell_angle_alpha                 90.0000
_cell_angle_beta                  120.4443
_cell_angle_gamma                 90.0000
loop_
_atom_site_label
_atom_site_type_symbol
_atom_site_fract_x
_atom_site_fract_y
_atom_site_fract_z
_atom_site_U_iso_or_equiv
_atom_site_adp_type
_atom_site_occupancy
C1     C     0.56343   0.23255   0.37483   0.00000  Uiso   1.00
C2     C     0.59305   0.25320   0.43871   0.00000  Uiso   1.00
C3     C     0.63669   0.35928   0.47127   0.00000  Uiso   1.00
C4     C     0.65812   0.36002   0.52901   0.00000  Uiso   1.00
C5     C     0.70740   0.40753   0.62450   0.00000  Uiso   1.00
C6     C     0.58280   0.08485   0.36759   0.00000  Uiso   1.00
C7     C     0.61782   0.04939   0.34035   0.00000  Uiso   1.00
C8     C     0.63061   0.90841   0.33821   0.00000  Uiso   1.00
C9     C     0.66394   0.69454   0.32326   0.00000  Uiso   1.00
C10    C     0.48735   0.23122   0.34880   0.00000  Uiso   1.00
C11    C     0.44210   0.31879   0.30575   0.00000  Uiso   1.00
C12    C     0.37452   0.30102   0.28778   0.00000  Uiso   1.00
C13    C     0.25965   0.31440   0.24366   0.00000  Uiso   1.00
C14    C     0.52387   0.04523   0.41947   0.00000  Uiso   1.00
C15    C     0.57156   0.15145   0.46295   0.00000  Uiso   1.00
C16    C     0.59293   0.15204   0.52066   0.00000  Uiso   1.00
C17    C     0.63660   0.25810   0.55330   0.00000  Uiso   1.00
C18    C     0.56131   0.98311   0.39183   0.00000  Uiso   1.00
C19    C     0.57405   0.84215   0.38973   0.00000  Uiso   1.00
C20    C     0.60909   0.80648   0.36250   0.00000  Uiso   1.00
C21    C     0.46586   0.12948   0.37305   0.00000  Uiso   1.00
C22    C     0.39834   0.11155   0.35514   0.00000  Uiso   1.00
C23    C     0.35300   0.19909   0.31207   0.00000  Uiso   1.00
H24    H     0.58016   0.31175   0.35596   0.00000  Uiso   1.00
H25    H     0.65332   0.43799   0.45249   0.00000  Uiso   1.00
H26    H     0.63444   0.12814   0.32158   0.00000  Uiso   1.00
H27    H     0.45875   0.39751   0.28699   0.00000  Uiso   1.00
H28    H     0.72496   0.53305   0.57021   0.00000  Uiso   1.00
H29    H     0.68514   0.87972   0.29417   0.00000  Uiso   1.00
H30    H     0.31466   0.44773   0.22123   0.00000  Uiso   1.00
H31    H     0.50714   0.96602   0.43835   0.00000  Uiso   1.00
H32    H     0.57629   0.07329   0.53941   0.00000  Uiso   1.00
H33    H     0.55742   0.76344   0.40850   0.00000  Uiso   1.00
H34    H     0.38173   0.03281   0.37391   0.00000  Uiso   1.00
H35    H     0.66245   0.23704   0.64076   0.00000  Uiso   1.00
H36    H     0.62262   0.58371   0.36471   0.00000  Uiso   1.00
H37    H     0.25215   0.15172   0.29178   0.00000  Uiso   1.00
O38    O     0.74053   0.46182   0.67048   0.00000  Uiso   1.00
O39    O     0.68827   0.60468   0.30831   0.00000  Uiso   1.00
O40    O     0.20222   0.34990   0.21262   0.00000  Uiso   1.00
N41    N     0.70075   0.44868   0.57294   0.00000  Uiso   1.00
N42    N     0.66353   0.83786   0.31487   0.00000  Uiso   1.00
N43    N     0.31716   0.36888   0.24667   0.00000  Uiso   1.00
N44    N     0.66711   0.28940   0.61090   0.00000  Uiso   1.00
N45    N     0.62989   0.67858   0.35283   0.00000  Uiso   1.00
N46    N     0.28352   0.20960   0.28463   0.00000  Uiso   1.00
C47    C     0.06343   0.73255   0.37483   0.00000  Uiso   1.00
C48    C     0.09305   0.75320   0.43871   0.00000  Uiso   1.00
C49    C     0.13669   0.85928   0.47127   0.00000  Uiso   1.00
C50    C     0.15812   0.86002   0.52901   0.00000  Uiso   1.00
C51    C     0.20740   0.90753   0.62450   0.00000  Uiso   1.00
C52    C     0.08280   0.58485   0.36759   0.00000  Uiso   1.00
C53    C     0.11782   0.54939   0.34035   0.00000  Uiso   1.00
C54    C     0.13061   0.40841   0.33821   0.00000  Uiso   1.00
C55    C     0.16394   0.19454   0.32326   0.00000  Uiso   1.00
C56    C     0.98735   0.73122   0.34880   0.00000  Uiso   1.00
C57    C     0.94210   0.81879   0.30575   0.00000  Uiso   1.00
C58    C     0.87452   0.80102   0.28778   0.00000  Uiso   1.00
C59    C     0.75965   0.81440   0.24366   0.00000  Uiso   1.00
C60    C     0.02387   0.54523   0.41947   0.00000  Uiso   1.00
C61    C     0.07156   0.65145   0.46295   0.00000  Uiso   1.00
C62    C     0.09293   0.65204   0.52066   0.00000  Uiso   1.00
C63    C     0.13660   0.75810   0.55330   0.00000  Uiso   1.00
C64    C     0.06131   0.48311   0.39183   0.00000  Uiso   1.00
C65    C     0.07405   0.34215   0.38973   0.00000  Uiso   1.00
C66    C     0.10909   0.30648   0.36250   0.00000  Uiso   1.00
C67    C     0.96586   0.62948   0.37305   0.00000  Uiso   1.00
C68    C     0.89834   0.61155   0.35514   0.00000  Uiso   1.00
C69    C     0.85300   0.69909   0.31207   0.00000  Uiso   1.00
H70    H     0.08016   0.81175   0.35596   0.00000  Uiso   1.00
H71    H     0.15332   0.93799   0.45249   0.00000  Uiso   1.00
H72    H     0.13444   0.62814   0.32158   0.00000  Uiso   1.00
H73    H     0.95875   0.89751   0.28699   0.00000  Uiso   1.00
H74    H     0.22496   0.03305   0.57021   0.00000  Uiso   1.00
H75    H     0.18514   0.37972   0.29417   0.00000  Uiso   1.00
H76    H     0.81466   0.94773   0.22123   0.00000  Uiso   1.00
H77    H     0.00714   0.46602   0.43835   0.00000  Uiso   1.00
H78    H     0.07629   0.57329   0.53941   0.00000  Uiso   1.00
H79    H     0.05742   0.26344   0.40850   0.00000  Uiso   1.00
H80    H     0.88173   0.53281   0.37391   0.00000  Uiso   1.00
H81    H     0.16245   0.73704   0.64076   0.00000  Uiso   1.00
H82    H     0.12262   0.08371   0.36471   0.00000  Uiso   1.00
H83    H     0.75215   0.65172   0.29178   0.00000  Uiso   1.00
O84    O     0.24053   0.96182   0.67048   0.00000  Uiso   1.00
O85    O     0.18827   0.10468   0.30831   0.00000  Uiso   1.00
O86    O     0.70222   0.84990   0.21262   0.00000  Uiso   1.00
N87    N     0.20075   0.94868   0.57294   0.00000  Uiso   1.00
N88    N     0.16353   0.33786   0.31487   0.00000  Uiso   1.00
N89    N     0.81716   0.86888   0.24667   0.00000  Uiso   1.00
N90    N     0.16711   0.78940   0.61090   0.00000  Uiso   1.00
N91    N     0.12989   0.17858   0.35283   0.00000  Uiso   1.00
N92    N     0.78352   0.70960   0.28463   0.00000  Uiso   1.00
C93    C     0.43657   0.23255   0.12517   0.00000  Uiso   1.00
C94    C     0.40695   0.25320   0.06129   0.00000  Uiso   1.00
C95    C     0.36331   0.35928   0.02873   0.00000  Uiso   1.00
C96    C     0.34188   0.36002   0.97099   0.00000  Uiso   1.00
C97    C     0.29260   0.40753   0.87550   0.00000  Uiso   1.00
C98    C     0.41720   0.08485   0.13241   0.00000  Uiso   1.00
C99    C     0.38218   0.04939   0.15965   0.00000  Uiso   1.00
C100   C     0.36939   0.90841   0.16179   0.00000  Uiso   1.00
C101   C     0.33606   0.69454   0.17674   0.00000  Uiso   1.00
C102   C     0.51265   0.23122   0.15120   0.00000  Uiso   1.00
C103   C     0.55790   0.31879   0.19425   0.00000  Uiso   1.00
C104   C     0.62548   0.30102   0.21222   0.00000  Uiso   1.00
C105   C     0.74035   0.31440   0.25634   0.00000  Uiso   1.00
C106   C     0.47613   0.04523   0.08053   0.00000  Uiso   1.00
C107   C     0.42844   0.15145   0.03705   0.00000  Uiso   1.00
C108   C     0.40707   0.15204   0.97934   0.00000  Uiso   1.00
C109   C     0.36340   0.25810   0.94670   0.00000  Uiso   1.00
C110   C     0.43869   0.98311   0.10817   0.00000  Uiso   1.00
C111   C     0.42595   0.84215   0.11027   0.00000  Uiso   1.00
C112   C     0.39091   0.80648   0.13750   0.00000  Uiso   1.00
C113   C     0.53414   0.12948   0.12695   0.00000  Uiso   1.00
C114   C     0.60166   0.11155   0.14486   0.00000  Uiso   1.00
C115   C     0.64700   0.19909   0.18793   0.00000  Uiso   1.00
H116   H     0.41984   0.31175   0.14404   0.00000  Uiso   1.00
H117   H     0.34668   0.43799   0.04751   0.00000  Uiso   1.00
H118   H     0.36556   0.12814   0.17842   0.00000  Uiso   1.00
H119   H     0.54125   0.39751   0.21301   0.00000  Uiso   1.00
H120   H     0.27504   0.53305   0.92979   0.00000  Uiso   1.00
H121   H     0.31486   0.87972   0.20583   0.00000  Uiso   1.00
H122   H     0.68534   0.44773   0.27877   0.00000  Uiso   1.00
H123   H     0.49286   0.96602   0.06165   0.00000  Uiso   1.00
H124   H     0.42371   0.07329   0.96059   0.00000  Uiso   1.00
H125   H     0.44258   0.76344   0.09150   0.00000  Uiso   1.00
H126   H     0.61827   0.03281   0.12609   0.00000  Uiso   1.00
H127   H     0.33755   0.23704   0.85924   0.00000  Uiso   1.00
H128   H     0.37738   0.58371   0.13529   0.00000  Uiso   1.00
H129   H     0.74785   0.15172   0.20822   0.00000  Uiso   1.00
O130   O     0.25947   0.46182   0.82952   0.00000  Uiso   1.00
O131   O     0.31173   0.60468   0.19169   0.00000  Uiso   1.00
O132   O     0.79778   0.34990   0.28738   0.00000  Uiso   1.00
N133   N     0.29925   0.44868   0.92706   0.00000  Uiso   1.00
N134   N     0.33647   0.83786   0.18513   0.00000  Uiso   1.00
N135   N     0.68284   0.36888   0.25333   0.00000  Uiso   1.00
N136   N     0.33289   0.28940   0.88910   0.00000  Uiso   1.00
N137   N     0.37011   0.67858   0.14717   0.00000  Uiso   1.00
N138   N     0.71648   0.20960   0.21537   0.00000  Uiso   1.00
C139   C     0.93657   0.73255   0.12517   0.00000  Uiso   1.00
C140   C     0.90695   0.75320   0.06129   0.00000  Uiso   1.00
C141   C     0.86331   0.85928   0.02873   0.00000  Uiso   1.00
C142   C     0.84188   0.86002   0.97099   0.00000  Uiso   1.00
C143   C     0.79260   0.90753   0.87550   0.00000  Uiso   1.00
C144   C     0.91720   0.58485   0.13241   0.00000  Uiso   1.00
C145   C     0.88218   0.54939   0.15965   0.00000  Uiso   1.00
C146   C     0.86939   0.40841   0.16179   0.00000  Uiso   1.00
C147   C     0.83606   0.19454   0.17674   0.00000  Uiso   1.00
C148   C     0.01265   0.73122   0.15120   0.00000  Uiso   1.00
C149   C     0.05790   0.81879   0.19425   0.00000  Uiso   1.00
C150   C     0.12548   0.80102   0.21222   0.00000  Uiso   1.00
C151   C     0.24035   0.81440   0.25634   0.00000  Uiso   1.00
C152   C     0.97613   0.54523   0.08053   0.00000  Uiso   1.00
C153   C     0.92844   0.65145   0.03705   0.00000  Uiso   1.00
C154   C     0.90707   0.65204   0.97934   0.00000  Uiso   1.00
C155   C     0.86340   0.75810   0.94670   0.00000  Uiso   1.00
C156   C     0.93869   0.48311   0.10817   0.00000  Uiso   1.00
C157   C     0.92595   0.34215   0.11027   0.00000  Uiso   1.00
C158   C     0.89091   0.30648   0.13750   0.00000  Uiso   1.00
C159   C     0.03414   0.62948   0.12695   0.00000  Uiso   1.00
C160   C     0.10166   0.61155   0.14486   0.00000  Uiso   1.00
C161   C     0.14700   0.69909   0.18793   0.00000  Uiso   1.00
H162   H     0.91984   0.81175   0.14404   0.00000  Uiso   1.00
H163   H     0.84668   0.93799   0.04751   0.00000  Uiso   1.00
H164   H     0.86556   0.62814   0.17842   0.00000  Uiso   1.00
H165   H     0.04125   0.89751   0.21301   0.00000  Uiso   1.00
H166   H     0.77504   0.03305   0.92979   0.00000  Uiso   1.00
H167   H     0.81486   0.37972   0.20583   0.00000  Uiso   1.00
H168   H     0.18534   0.94773   0.27877   0.00000  Uiso   1.00
H169   H     0.99286   0.46602   0.06165   0.00000  Uiso   1.00
H170   H     0.92371   0.57329   0.96059   0.00000  Uiso   1.00
H171   H     0.94258   0.26344   0.09150   0.00000  Uiso   1.00
H172   H     0.11827   0.53281   0.12609   0.00000  Uiso   1.00
H173   H     0.83755   0.73704   0.85924   0.00000  Uiso   1.00
H174   H     0.87738   0.08371   0.13529   0.00000  Uiso   1.00
H175   H     0.24785   0.65172   0.20822   0.00000  Uiso   1.00
O176   O     0.75947   0.96182   0.82952   0.00000  Uiso   1.00
O177   O     0.81173   0.10468   0.19169   0.00000  Uiso   1.00
O178   O     0.29778   0.84990   0.28738   0.00000  Uiso   1.00
N179   N     0.79925   0.94868   0.92706   0.00000  Uiso   1.00
N180   N     0.83647   0.33786   0.18513   0.00000  Uiso   1.00
N181   N     0.18284   0.86888   0.25333   0.00000  Uiso   1.00
N182   N     0.83289   0.78940   0.88910   0.00000  Uiso   1.00
N183   N     0.87011   0.17858   0.14717   0.00000  Uiso   1.00
N184   N     0.21648   0.70960   0.21537   0.00000  Uiso   1.00
C185   C     0.43657   0.76745   0.62517   0.00000  Uiso   1.00
C186   C     0.40695   0.74680   0.56129   0.00000  Uiso   1.00
C187   C     0.36331   0.64072   0.52873   0.00000  Uiso   1.00
C188   C     0.34188   0.63998   0.47099   0.00000  Uiso   1.00
C189   C     0.29260   0.59247   0.37550   0.00000  Uiso   1.00
C190   C     0.41720   0.91515   0.63241   0.00000  Uiso   1.00
C191   C     0.38218   0.95061   0.65965   0.00000  Uiso   1.00
C192   C     0.36939   0.09159   0.66179   0.00000  Uiso   1.00
C193   C     0.33606   0.30546   0.67674   0.00000  Uiso   1.00
C194   C     0.51265   0.76878   0.65120   0.00000  Uiso   1.00
C195   C     0.55790   0.68121   0.69425   0.00000  Uiso   1.00
C196   C     0.62548   0.69898   0.71222   0.00000  Uiso   1.00
C197   C     0.74035   0.68560   0.75634   0.00000  Uiso   1.00
C198   C     0.47613   0.95477   0.58053   0.00000  Uiso   1.00
C199   C     0.42844   0.84855   0.53705   0.00000  Uiso   1.00
C200   C     0.40707   0.84796   0.47934   0.00000  Uiso   1.00
C201   C     0.36340   0.74190   0.44670   0.00000  Uiso   1.00
C202   C     0.43869   0.01689   0.60817   0.00000  Uiso   1.00
C203   C     0.42595   0.15785   0.61027   0.00000  Uiso   1.00
C204   C     0.39091   0.19352   0.63750   0.00000  Uiso   1.00
C205   C     0.53414   0.87052   0.62695   0.00000  Uiso   1.00
C206   C     0.60166   0.88845   0.64486   0.00000  Uiso   1.00
C207   C     0.64700   0.80091   0.68793   0.00000  Uiso   1.00
H208   H     0.41984   0.68825   0.64404   0.00000  Uiso   1.00
H209   H     0.34668   0.56201   0.54751   0.00000  Uiso   1.00
H210   H     0.36556   0.87186   0.67842   0.00000  Uiso   1.00
H211   H     0.54125   0.60249   0.71301   0.00000  Uiso   1.00
H212   H     0.27504   0.46695   0.42979   0.00000  Uiso   1.00
H213   H     0.31486   0.12028   0.70583   0.00000  Uiso   1.00
H214   H     0.68534   0.55227   0.77877   0.00000  Uiso   1.00
H215   H     0.49286   0.03398   0.56165   0.00000  Uiso   1.00
H216   H     0.42371   0.92671   0.46059   0.00000  Uiso   1.00
H217   H     0.44258   0.23656   0.59150   0.00000  Uiso   1.00
H218   H     0.61827   0.96719   0.62609   0.00000  Uiso   1.00
H219   H     0.33755   0.76296   0.35924   0.00000  Uiso   1.00
H220   H     0.37738   0.41629   0.63529   0.00000  Uiso   1.00
H221   H     0.74785   0.84828   0.70822   0.00000  Uiso   1.00
O222   O     0.25947   0.53818   0.32952   0.00000  Uiso   1.00
O223   O     0.31173   0.39532   0.69169   0.00000  Uiso   1.00
O224   O     0.79778   0.65010   0.78738   0.00000  Uiso   1.00
N225   N     0.29925   0.55132   0.42706   0.00000  Uiso   1.00
N226   N     0.33647   0.16214   0.68513   0.00000  Uiso   1.00
N227   N     0.68284   0.63112   0.75333   0.00000  Uiso   1.00
N228   N     0.33289   0.71060   0.38910   0.00000  Uiso   1.00
N229   N     0.37011   0.32142   0.64717   0.00000  Uiso   1.00
N230   N     0.71648   0.79040   0.71537   0.00000  Uiso   1.00
C231   C     0.93657   0.26745   0.62517   0.00000  Uiso   1.00
C232   C     0.90695   0.24680   0.56129   0.00000  Uiso   1.00
C233   C     0.86331   0.14072   0.52873   0.00000  Uiso   1.00
C234   C     0.84188   0.13998   0.47099   0.00000  Uiso   1.00
C235   C     0.79260   0.09247   0.37550   0.00000  Uiso   1.00
C236   C     0.91720   0.41515   0.63241   0.00000  Uiso   1.00
C237   C     0.88218   0.45061   0.65965   0.00000  Uiso   1.00
C238   C     0.86939   0.59159   0.66179   0.00000  Uiso   1.00
C239   C     0.83606   0.80546   0.67674   0.00000  Uiso   1.00
C240   C     0.01265   0.26878   0.65120   0.00000  Uiso   1.00
C241   C     0.05790   0.18121   0.69425   0.00000  Uiso   1.00
C242   C     0.12548   0.19898   0.71222   0.00000  Uiso   1.00
C243   C     0.24035   0.18560   0.75634   0.00000  Uiso   1.00
C244   C     0.97613   0.45477   0.58053   0.00000  Uiso   1.00
C245   C     0.92844   0.34855   0.53705   0.00000  Uiso   1.00
C246   C     0.90707   0.34796   0.47934   0.00000  Uiso   1.00
C247   C     0.86340   0.24190   0.44670   0.00000  Uiso   1.00
C248   C     0.93869   0.51689   0.60817   0.00000  Uiso   1.00
C249   C     0.92595   0.65785   0.61027   0.00000  Uiso   1.00
C250   C     0.89091   0.69352   0.63750   0.00000  Uiso   1.00
C251   C     0.03414   0.37052   0.62695   0.00000  Uiso   1.00
C252   C     0.10166   0.38845   0.64486   0.00000  Uiso   1.00
C253   C     0.14700   0.30091   0.68793   0.00000  Uiso   1.00
H254   H     0.91984   0.18825   0.64404   0.00000  Uiso   1.00
H255   H     0.84668   0.06201   0.54751   0.00000  Uiso   1.00
H256   H     0.86556   0.37186   0.67842   0.00000  Uiso   1.00
H257   H     0.04125   0.10249   0.71301   0.00000  Uiso   1.00
H258   H     0.77504   0.96695   0.42979   0.00000  Uiso   1.00
H259   H     0.81486   0.62028   0.70583   0.00000  Uiso   1.00
H260   H     0.18534   0.05227   0.77877   0.00000  Uiso   1.00
H261   H     0.99286   0.53398   0.56165   0.00000  Uiso   1.00
H262   H     0.92371   0.42671   0.46059   0.00000  Uiso   1.00
H263   H     0.94258   0.73656   0.59150   0.00000  Uiso   1.00
H264   H     0.11827   0.46719   0.62609   0.00000  Uiso   1.00
H265   H     0.83755   0.26296   0.35924   0.00000  Uiso   1.00
H266   H     0.87738   0.91629   0.63529   0.00000  Uiso   1.00
H267   H     0.24785   0.34828   0.70822   0.00000  Uiso   1.00
O268   O     0.75947   0.03818   0.32952   0.00000  Uiso   1.00
O269   O     0.81173   0.89532   0.69169   0.00000  Uiso   1.00
O270   O     0.29778   0.15010   0.78738   0.00000  Uiso   1.00
N271   N     0.79925   0.05132   0.42706   0.00000  Uiso   1.00
N272   N     0.83647   0.66214   0.68513   0.00000  Uiso   1.00
N273   N     0.18284   0.13112   0.75333   0.00000  Uiso   1.00
N274   N     0.83289   0.21060   0.38910   0.00000  Uiso   1.00
N275   N     0.87011   0.82142   0.64717   0.00000  Uiso   1.00
N276   N     0.21648   0.29040   0.71537   0.00000  Uiso   1.00
C277   C     0.56343   0.76745   0.87483   0.00000  Uiso   1.00
C278   C     0.59305   0.74680   0.93871   0.00000  Uiso   1.00
C279   C     0.63669   0.64072   0.97127   0.00000  Uiso   1.00
C280   C     0.65812   0.63998   0.02901   0.00000  Uiso   1.00
C281   C     0.70740   0.59247   0.12450   0.00000  Uiso   1.00
C282   C     0.58280   0.91515   0.86759   0.00000  Uiso   1.00
C283   C     0.61782   0.95061   0.84035   0.00000  Uiso   1.00
C284   C     0.63061   0.09159   0.83821   0.00000  Uiso   1.00
C285   C     0.66394   0.30546   0.82326   0.00000  Uiso   1.00
C286   C     0.48735   0.76878   0.84880   0.00000  Uiso   1.00
C287   C     0.44210   0.68121   0.80575   0.00000  Uiso   1.00
C288   C     0.37452   0.69898   0.78778   0.00000  Uiso   1.00
C289   C     0.25965   0.68560   0.74366   0.00000  Uiso   1.00
C290   C     0.52387   0.95477   0.91947   0.00000  Uiso   1.00
C291   C     0.57156   0.84855   0.96295   0.00000  Uiso   1.00
C292   C     0.59293   0.84796   0.02066   0.00000  Uiso   1.00
C293   C     0.63660   0.74190   0.05330   0.00000  Uiso   1.00
C294   C     0.56131   0.01689   0.89183   0.00000  Uiso   1.00
C295   C     0.57405   0.15785   0.88973   0.00000  Uiso   1.00
C296   C     0.60909   0.19352   0.86250   0.00000  Uiso   1.00
C297   C     0.46586   0.87052   0.87305   0.00000  Uiso   1.00
C298   C     0.39834   0.88845   0.85514   0.00000  Uiso   1.00
C299   C     0.35300   0.80091   0.81207   0.00000  Uiso   1.00
H300   H     0.58016   0.68825   0.85596   0.00000  Uiso   1.00
H301   H     0.65332   0.56201   0.95249   0.00000  Uiso   1.00
H302   H     0.63444   0.87186   0.82158   0.00000  Uiso   1.00
H303   H     0.45875   0.60249   0.78699   0.00000  Uiso   1.00
H304   H     0.72496   0.46695   0.07021   0.00000  Uiso   1.00
H305   H     0.68514   0.12028   0.79417   0.00000  Uiso   1.00
H306   H     0.31466   0.55227   0.72123   0.00000  Uiso   1.00
H307   H     0.50714   0.03398   0.93835   0.00000  Uiso   1.00
H308   H     0.57629   0.92671   0.03941   0.00000  Uiso   1.00
H309   H     0.55742   0.23656   0.90850   0.00000  Uiso   1.00
H310   H     0.38173   0.96719   0.87391   0.00000  Uiso   1.00
H311   H     0.66245   0.76296   0.14076   0.00000  Uiso   1.00
H312   H     0.62262   0.41629   0.86471   0.00000  Uiso   1.00
H313   H     0.25215   0.84828   0.79178   0.00000  Uiso   1.00
O314   O     0.74053   0.53818   0.17048   0.00000  Uiso   1.00
O315   O     0.68827   0.39532   0.80831   0.00000  Uiso   1.00
O316   O     0.20222   0.65010   0.71262   0.00000  Uiso   1.00
N317   N     0.70075   0.55132   0.07294   0.00000  Uiso   1.00
N318   N     0.66353   0.16214   0.81487   0.00000  Uiso   1.00
N319   N     0.31716   0.63112   0.74667   0.00000  Uiso   1.00
N320   N     0.66711   0.71060   0.11090   0.00000  Uiso   1.00
N321   N     0.62989   0.32142   0.85283   0.00000  Uiso   1.00
N322   N     0.28352   0.79040   0.78463   0.00000  Uiso   1.00
C323   C     0.06343   0.26745   0.87483   0.00000  Uiso   1.00
C324   C     0.09305   0.24680   0.93871   0.00000  Uiso   1.00
C325   C     0.13669   0.14072   0.97127   0.00000  Uiso   1.00
C326   C     0.15812   0.13998   0.02901   0.00000  Uiso   1.00
C327   C     0.20740   0.09247   0.12450   0.00000  Uiso   1.00
C328   C     0.08280   0.41515   0.86759   0.00000  Uiso   1.00
C329   C     0.11782   0.45061   0.84035   0.00000  Uiso   1.00
C330   C     0.13061   0.59159   0.83821   0.00000  Uiso   1.00
C331   C     0.16394   0.80546   0.82326   0.00000  Uiso   1.00
C332   C     0.98735   0.26878   0.84880   0.00000  Uiso   1.00
C333   C     0.94210   0.18121   0.80575   0.00000  Uiso   1.00
C334   C     0.87452   0.19898   0.78778   0.00000  Uiso   1.00
C335   C     0.75965   0.18560   0.74366   0.00000  Uiso   1.00
C336   C     0.02387   0.45477   0.91947   0.00000  Uiso   1.00
C337   C     0.07156   0.34855   0.96295   0.00000  Uiso   1.00
C338   C     0.09293   0.34796   0.02066   0.00000  Uiso   1.00
C339   C     0.13660   0.24190   0.05330   0.00000  Uiso   1.00
C340   C     0.06131   0.51689   0.89183   0.00000  Uiso   1.00
C341   C     0.07405   0.65785   0.88973   0.00000  Uiso   1.00
C342   C     0.10909   0.69352   0.86250   0.00000  Uiso   1.00
C343   C     0.96586   0.37052   0.87305   0.00000  Uiso   1.00
C344   C     0.89834   0.38845   0.85514   0.00000  Uiso   1.00
C345   C     0.85300   0.30091   0.81207   0.00000  Uiso   1.00
H346   H     0.08016   0.18825   0.85596   0.00000  Uiso   1.00
H347   H     0.15332   0.06201   0.95249   0.00000  Uiso   1.00
H348   H     0.13444   0.37186   0.82158   0.00000  Uiso   1.00
H349   H     0.95875   0.10249   0.78699   0.00000  Uiso   1.00
H350   H     0.22496   0.96695   0.07021   0.00000  Uiso   1.00
H351   H     0.18514   0.62028   0.79417   0.00000  Uiso   1.00
H352   H     0.81466   0.05227   0.72123   0.00000  Uiso   1.00
H353   H     0.00714   0.53398   0.93835   0.00000  Uiso   1.00
H354   H     0.07629   0.42671   0.03941   0.00000  Uiso   1.00
H355   H     0.05742   0.73656   0.90850   0.00000  Uiso   1.00
H356   H     0.88173   0.46719   0.87391   0.00000  Uiso   1.00
H357   H     0.16245   0.26296   0.14076   0.00000  Uiso   1.00
H358   H     0.12262   0.91629   0.86471   0.00000  Uiso   1.00
H359   H     0.75215   0.34828   0.79178   0.00000  Uiso   1.00
O360   O     0.24053   0.03818   0.17048   0.00000  Uiso   1.00
O361   O     0.18827   0.89532   0.80831   0.00000  Uiso   1.00
O362   O     0.70222   0.15010   0.71262   0.00000  Uiso   1.00
N363   N     0.20075   0.05132   0.07294   0.00000  Uiso   1.00
N364   N     0.16353   0.66214   0.81487   0.00000  Uiso   1.00
N365   N     0.81716   0.13112   0.74667   0.00000  Uiso   1.00
N366   N     0.16711   0.21060   0.11090   0.00000  Uiso   1.00
N367   N     0.12989   0.82142   0.85283   0.00000  Uiso   1.00
N368   N     0.78352   0.29040   0.78463   0.00000  Uiso   1.00
