data_job_01749
_audit_creation_date              2018-12-19
_audit_creation_method            'Materials Studio'
_symmetry_space_group_name_H-M    'P1'
_symmetry_Int_Tables_number       1
_symmetry_cell_setting            triclinic
loop_
_symmetry_equiv_pos_as_xyz
  x,y,z
_cell_length_a                    9.1899
_cell_length_b                    11.7902
_cell_length_c                    16.4279
_cell_angle_alpha                 70.6870
_cell_angle_beta                  88.5068
_cell_angle_gamma                 70.9642
loop_
_atom_site_label
_atom_site_type_symbol
_atom_site_fract_x
_atom_site_fract_y
_atom_site_fract_z
_atom_site_U_iso_or_equiv
_atom_site_adp_type
_atom_site_occupancy
C1     C     0.85369   0.46794   0.76174   0.00000  Uiso   1.00
C2     C     0.94984   0.32994   0.81241   0.00000  Uiso   1.00
C3     C     0.09818   0.28865   0.85221   0.00000  Uiso   1.00
C4     C     0.16648   0.15847   0.89538   0.00000  Uiso   1.00
C5     C     0.32758   0.95723   0.97353   0.00000  Uiso   1.00
C6     C     0.81041   0.47002   0.67214   0.00000  Uiso   1.00
C7     C     0.84151   0.54653   0.59401   0.00000  Uiso   1.00
C8     C     0.79243   0.53427   0.51910   0.00000  Uiso   1.00
C9     C     0.73696   0.55058   0.37949   0.00000  Uiso   1.00
C10    C     0.70318   0.49572   0.80470   0.00000  Uiso   1.00
C11    C     0.64408   0.59385   0.83800   0.00000  Uiso   1.00
C12    C     0.50468   0.60324   0.87468   0.00000  Uiso   1.00
C13    C     0.28271   0.65945   0.94089   0.00000  Uiso   1.00
C14    C     0.71119   0.31016   0.76764   0.00000  Uiso   1.00
C15    C     0.87244   0.24425   0.81561   0.00000  Uiso   1.00
C16    C     0.94053   0.11409   0.85874   0.00000  Uiso   1.00
C17    C     0.08895   0.07262   0.89859   0.00000  Uiso   1.00
C18    C     0.73302   0.38433   0.67535   0.00000  Uiso   1.00
C19    C     0.68386   0.37197   0.60054   0.00000  Uiso   1.00
C20    C     0.71489   0.44842   0.52231   0.00000  Uiso   1.00
C21    C     0.62578   0.41002   0.80791   0.00000  Uiso   1.00
C22    C     0.48643   0.41928   0.84454   0.00000  Uiso   1.00
C23    C     0.42714   0.51739   0.87789   0.00000  Uiso   1.00
H24    H     0.91394   0.53466   0.75924   0.00000  Uiso   1.00
H25    H     0.15805   0.35500   0.84971   0.00000  Uiso   1.00
H26    H     0.90140   0.61284   0.59155   0.00000  Uiso   1.00
H27    H     0.70400   0.66014   0.83551   0.00000  Uiso   1.00
H28    H     0.39456   0.11802   0.95139   0.00000  Uiso   1.00
H29    H     0.85337   0.66172   0.40705   0.00000  Uiso   1.00
H30    H     0.43712   0.76148   0.92149   0.00000  Uiso   1.00
H31    H     0.65093   0.24344   0.77013   0.00000  Uiso   1.00
H32    H     0.88061   0.04780   0.86121   0.00000  Uiso   1.00
H33    H     0.62396   0.30564   0.60304   0.00000  Uiso   1.00
H34    H     0.42657   0.35295   0.84701   0.00000  Uiso   1.00
H35    H     0.16939   0.86868   0.96072   0.00000  Uiso   1.00
H36    H     0.62819   0.41239   0.41638   0.00000  Uiso   1.00
H37    H     0.21194   0.51214   0.93082   0.00000  Uiso   1.00
O38    O     0.43783   0.86990   0.01574   0.00000  Uiso   1.00
O39    O     0.72777   0.58324   0.30159   0.00000  Uiso   1.00
O40    O     0.18167   0.71411   0.97653   0.00000  Uiso   1.00
N41    N     0.31004   0.08619   0.94110   0.00000  Uiso   1.00
N42    N     0.80408   0.59451   0.43218   0.00000  Uiso   1.00
N43    N     0.41489   0.68779   0.91312   0.00000  Uiso   1.00
N44    N     0.18887   0.95203   0.94613   0.00000  Uiso   1.00
N45    N     0.68291   0.46034   0.43720   0.00000  Uiso   1.00
N46    N     0.29373   0.55363   0.91814   0.00000  Uiso   1.00
C47    C     0.14631   0.53206   0.23826   0.00000  Uiso   1.00
C48    C     0.05016   0.67006   0.18759   0.00000  Uiso   1.00
C49    C     0.90182   0.71135   0.14779   0.00000  Uiso   1.00
C50    C     0.83352   0.84153   0.10462   0.00000  Uiso   1.00
C51    C     0.67242   0.04277   0.02647   0.00000  Uiso   1.00
C52    C     0.18959   0.52998   0.32786   0.00000  Uiso   1.00
C53    C     0.15849   0.45347   0.40599   0.00000  Uiso   1.00
C54    C     0.20757   0.46573   0.48090   0.00000  Uiso   1.00
C55    C     0.26304   0.44942   0.62051   0.00000  Uiso   1.00
C56    C     0.29682   0.50428   0.19530   0.00000  Uiso   1.00
C57    C     0.35592   0.40615   0.16200   0.00000  Uiso   1.00
C58    C     0.49532   0.39676   0.12532   0.00000  Uiso   1.00
C59    C     0.71729   0.34055   0.05911   0.00000  Uiso   1.00
C60    C     0.28881   0.68984   0.23236   0.00000  Uiso   1.00
C61    C     0.12756   0.75575   0.18439   0.00000  Uiso   1.00
C62    C     0.05947   0.88591   0.14126   0.00000  Uiso   1.00
C63    C     0.91105   0.92738   0.10141   0.00000  Uiso   1.00
C64    C     0.26698   0.61567   0.32465   0.00000  Uiso   1.00
C65    C     0.31614   0.62803   0.39946   0.00000  Uiso   1.00
C66    C     0.28511   0.55158   0.47769   0.00000  Uiso   1.00
C67    C     0.37422   0.58998   0.19209   0.00000  Uiso   1.00
C68    C     0.51357   0.58072   0.15546   0.00000  Uiso   1.00
C69    C     0.57286   0.48261   0.12211   0.00000  Uiso   1.00
H70    H     0.08606   0.46534   0.24076   0.00000  Uiso   1.00
H71    H     0.84195   0.64500   0.15029   0.00000  Uiso   1.00
H72    H     0.09860   0.38716   0.40845   0.00000  Uiso   1.00
H73    H     0.29600   0.33986   0.16449   0.00000  Uiso   1.00
H74    H     0.60544   0.88198   0.04861   0.00000  Uiso   1.00
H75    H     0.14663   0.33828   0.59295   0.00000  Uiso   1.00
H76    H     0.56288   0.23852   0.07851   0.00000  Uiso   1.00
H77    H     0.34907   0.75656   0.22987   0.00000  Uiso   1.00
H78    H     0.11939   0.95220   0.13879   0.00000  Uiso   1.00
H79    H     0.37604   0.69436   0.39696   0.00000  Uiso   1.00
H80    H     0.57343   0.64705   0.15299   0.00000  Uiso   1.00
H81    H     0.83061   0.13132   0.03928   0.00000  Uiso   1.00
H82    H     0.37181   0.58761   0.58362   0.00000  Uiso   1.00
H83    H     0.78806   0.48786   0.06918   0.00000  Uiso   1.00
O84    O     0.56217   0.13010   0.98426   0.00000  Uiso   1.00
O85    O     0.27223   0.41676   0.69841   0.00000  Uiso   1.00
O86    O     0.81833   0.28589   0.02347   0.00000  Uiso   1.00
N87    N     0.68996   0.91381   0.05890   0.00000  Uiso   1.00
N88    N     0.19592   0.40549   0.56782   0.00000  Uiso   1.00
N89    N     0.58511   0.31221   0.08688   0.00000  Uiso   1.00
N90    N     0.81113   0.04797   0.05387   0.00000  Uiso   1.00
N91    N     0.31709   0.53966   0.56280   0.00000  Uiso   1.00
N92    N     0.70627   0.44637   0.08186   0.00000  Uiso   1.00
