data_job_02386
_audit_creation_date              2018-12-19
_audit_creation_method            'Materials Studio'
_symmetry_space_group_name_H-M    'P1'
_symmetry_Int_Tables_number       1
_symmetry_cell_setting            triclinic
loop_
_symmetry_equiv_pos_as_xyz
  x,y,z
_cell_length_a                    11.9867
_cell_length_b                    20.5124
_cell_length_c                    23.9499
_cell_angle_alpha                 90.0000
_cell_angle_beta                  90.0000
_cell_angle_gamma                 90.0000
loop_
_atom_site_label
_atom_site_type_symbol
_atom_site_fract_x
_atom_site_fract_y
_atom_site_fract_z
_atom_site_U_iso_or_equiv
_atom_site_adp_type
_atom_site_occupancy
C1     C     0.37752   0.76194   0.52470   0.00000  Uiso   1.00
C2     C     0.45697   0.74563   0.57242   0.00000  Uiso   1.00
C3     C     0.45088   0.69094   0.60640   0.00000  Uiso   1.00
C4     C     0.53144   0.68488   0.64772   0.00000  Uiso   1.00
C5     C     0.64213   0.65239   0.72074   0.00000  Uiso   1.00
C6     C     0.45027   0.77005   0.47293   0.00000  Uiso   1.00
C7     C     0.43854   0.73590   0.42325   0.00000  Uiso   1.00
C8     C     0.51346   0.75041   0.38082   0.00000  Uiso   1.00
C9     C     0.61370   0.75588   0.29936   0.00000  Uiso   1.00
C10    C     0.33078   0.82941   0.53763   0.00000  Uiso   1.00
C11    C     0.21858   0.84518   0.54234   0.00000  Uiso   1.00
C12    C     0.19290   0.90968   0.55437   0.00000  Uiso   1.00
C13    C     0.10762   0.00730   0.57336   0.00000  Uiso   1.00
C14    C     0.53141   0.84844   0.53768   0.00000  Uiso   1.00
C15    C     0.54056   0.79261   0.57947   0.00000  Uiso   1.00
C16    C     0.62115   0.78664   0.62076   0.00000  Uiso   1.00
C17    C     0.61518   0.73195   0.65479   0.00000  Uiso   1.00
C18    C     0.53386   0.81703   0.47998   0.00000  Uiso   1.00
C19    C     0.60881   0.83160   0.43761   0.00000  Uiso   1.00
C20    C     0.59720   0.79748   0.38788   0.00000  Uiso   1.00
C21    C     0.41437   0.87640   0.54468   0.00000  Uiso   1.00
C22    C     0.38886   0.94088   0.55670   0.00000  Uiso   1.00
C23    C     0.27665   0.95674   0.56143   0.00000  Uiso   1.00
H24    H     0.31244   0.72536   0.51921   0.00000  Uiso   1.00
H25    H     0.38618   0.65459   0.60092   0.00000  Uiso   1.00
H26    H     0.37384   0.69955   0.41781   0.00000  Uiso   1.00
H27    H     0.15392   0.80881   0.53688   0.00000  Uiso   1.00
H28    H     0.50483   0.59683   0.69462   0.00000  Uiso   1.00
H29    H     0.47878   0.69165   0.30850   0.00000  Uiso   1.00
H30    H     0.01503   0.92205   0.55958   0.00000  Uiso   1.00
H31    H     0.59650   0.88502   0.54316   0.00000  Uiso   1.00
H32    H     0.68583   0.82300   0.62620   0.00000  Uiso   1.00
H33    H     0.67348   0.86796   0.44308   0.00000  Uiso   1.00
H34    H     0.45357   0.97722   0.56215   0.00000  Uiso   1.00
H35    H     0.74804   0.73351   0.71513   0.00000  Uiso   1.00
H36    H     0.72198   0.82834   0.32901   0.00000  Uiso   1.00
H37    H     0.25824   0.05874   0.58010   0.00000  Uiso   1.00
O38    O     0.68010   0.62148   0.75906   0.00000  Uiso   1.00
O39    O     0.64590   0.74590   0.25248   0.00000  Uiso   1.00
O40    O     0.03749   0.04817   0.58190   0.00000  Uiso   1.00
N41    N     0.54980   0.63751   0.68806   0.00000  Uiso   1.00
N42    N     0.52545   0.72616   0.32706   0.00000  Uiso   1.00
N43    N     0.09189   0.94157   0.56179   0.00000  Uiso   1.00
N44    N     0.68066   0.71106   0.69910   0.00000  Uiso   1.00
N45    N     0.65632   0.79971   0.33810   0.00000  Uiso   1.00
N46    N     0.22276   0.01512   0.57283   0.00000  Uiso   1.00
C47    C     0.87752   0.26194   0.52470   0.00000  Uiso   1.00
C48    C     0.95697   0.24563   0.57242   0.00000  Uiso   1.00
C49    C     0.95088   0.19094   0.60640   0.00000  Uiso   1.00
C50    C     0.03144   0.18488   0.64772   0.00000  Uiso   1.00
C51    C     0.14213   0.15239   0.72074   0.00000  Uiso   1.00
C52    C     0.95027   0.27005   0.47293   0.00000  Uiso   1.00
C53    C     0.93854   0.23590   0.42325   0.00000  Uiso   1.00
C54    C     0.01346   0.25041   0.38082   0.00000  Uiso   1.00
C55    C     0.11370   0.25588   0.29936   0.00000  Uiso   1.00
C56    C     0.83078   0.32941   0.53763   0.00000  Uiso   1.00
C57    C     0.71858   0.34518   0.54234   0.00000  Uiso   1.00
C58    C     0.69290   0.40968   0.55437   0.00000  Uiso   1.00
C59    C     0.60762   0.50730   0.57336   0.00000  Uiso   1.00
C60    C     0.03141   0.34844   0.53768   0.00000  Uiso   1.00
C61    C     0.04056   0.29261   0.57947   0.00000  Uiso   1.00
C62    C     0.12115   0.28664   0.62076   0.00000  Uiso   1.00
C63    C     0.11518   0.23195   0.65479   0.00000  Uiso   1.00
C64    C     0.03386   0.31703   0.47998   0.00000  Uiso   1.00
C65    C     0.10881   0.33160   0.43761   0.00000  Uiso   1.00
C66    C     0.09720   0.29748   0.38788   0.00000  Uiso   1.00
C67    C     0.91437   0.37640   0.54468   0.00000  Uiso   1.00
C68    C     0.88886   0.44088   0.55670   0.00000  Uiso   1.00
C69    C     0.77665   0.45674   0.56143   0.00000  Uiso   1.00
H70    H     0.81244   0.22536   0.51921   0.00000  Uiso   1.00
H71    H     0.88618   0.15459   0.60092   0.00000  Uiso   1.00
H72    H     0.87384   0.19955   0.41781   0.00000  Uiso   1.00
H73    H     0.65392   0.30881   0.53688   0.00000  Uiso   1.00
H74    H     0.00483   0.09683   0.69462   0.00000  Uiso   1.00
H75    H     0.97878   0.19165   0.30850   0.00000  Uiso   1.00
H76    H     0.51503   0.42205   0.55958   0.00000  Uiso   1.00
H77    H     0.09650   0.38502   0.54316   0.00000  Uiso   1.00
H78    H     0.18583   0.32300   0.62620   0.00000  Uiso   1.00
H79    H     0.17348   0.36796   0.44308   0.00000  Uiso   1.00
H80    H     0.95357   0.47722   0.56215   0.00000  Uiso   1.00
H81    H     0.24804   0.23351   0.71513   0.00000  Uiso   1.00
H82    H     0.22198   0.32834   0.32901   0.00000  Uiso   1.00
H83    H     0.75824   0.55874   0.58010   0.00000  Uiso   1.00
O84    O     0.18010   0.12148   0.75906   0.00000  Uiso   1.00
O85    O     0.14590   0.24590   0.25248   0.00000  Uiso   1.00
O86    O     0.53749   0.54817   0.58190   0.00000  Uiso   1.00
N87    N     0.04980   0.13751   0.68806   0.00000  Uiso   1.00
N88    N     0.02545   0.22616   0.32706   0.00000  Uiso   1.00
N89    N     0.59189   0.44157   0.56179   0.00000  Uiso   1.00
N90    N     0.18066   0.21106   0.69910   0.00000  Uiso   1.00
N91    N     0.15632   0.29971   0.33810   0.00000  Uiso   1.00
N92    N     0.72276   0.51512   0.57283   0.00000  Uiso   1.00
C93    C     0.62248   0.23806   0.02470   0.00000  Uiso   1.00
C94    C     0.54303   0.25437   0.07242   0.00000  Uiso   1.00
C95    C     0.54912   0.30906   0.10640   0.00000  Uiso   1.00
C96    C     0.46856   0.31512   0.14772   0.00000  Uiso   1.00
C97    C     0.35787   0.34761   0.22074   0.00000  Uiso   1.00
C98    C     0.54973   0.22995   0.97293   0.00000  Uiso   1.00
C99    C     0.56146   0.26410   0.92325   0.00000  Uiso   1.00
C100   C     0.48654   0.24959   0.88082   0.00000  Uiso   1.00
C101   C     0.38630   0.24412   0.79936   0.00000  Uiso   1.00
C102   C     0.66922   0.17059   0.03763   0.00000  Uiso   1.00
C103   C     0.78142   0.15482   0.04234   0.00000  Uiso   1.00
C104   C     0.80710   0.09032   0.05437   0.00000  Uiso   1.00
C105   C     0.89238   0.99270   0.07336   0.00000  Uiso   1.00
C106   C     0.46859   0.15156   0.03768   0.00000  Uiso   1.00
C107   C     0.45944   0.20739   0.07947   0.00000  Uiso   1.00
C108   C     0.37885   0.21336   0.12076   0.00000  Uiso   1.00
C109   C     0.38482   0.26805   0.15479   0.00000  Uiso   1.00
C110   C     0.46614   0.18297   0.97998   0.00000  Uiso   1.00
C111   C     0.39119   0.16840   0.93761   0.00000  Uiso   1.00
C112   C     0.40280   0.20252   0.88788   0.00000  Uiso   1.00
C113   C     0.58563   0.12360   0.04468   0.00000  Uiso   1.00
C114   C     0.61114   0.05912   0.05670   0.00000  Uiso   1.00
C115   C     0.72335   0.04326   0.06143   0.00000  Uiso   1.00
H116   H     0.68756   0.27464   0.01921   0.00000  Uiso   1.00
H117   H     0.61382   0.34541   0.10092   0.00000  Uiso   1.00
H118   H     0.62616   0.30045   0.91781   0.00000  Uiso   1.00
H119   H     0.84608   0.19119   0.03688   0.00000  Uiso   1.00
H120   H     0.49517   0.40317   0.19462   0.00000  Uiso   1.00
H121   H     0.52122   0.30835   0.80850   0.00000  Uiso   1.00
H122   H     0.98497   0.07795   0.05958   0.00000  Uiso   1.00
H123   H     0.40350   0.11498   0.04316   0.00000  Uiso   1.00
H124   H     0.31417   0.17700   0.12620   0.00000  Uiso   1.00
H125   H     0.32652   0.13204   0.94308   0.00000  Uiso   1.00
H126   H     0.54643   0.02278   0.06215   0.00000  Uiso   1.00
H127   H     0.25196   0.26649   0.21513   0.00000  Uiso   1.00
H128   H     0.27802   0.17166   0.82901   0.00000  Uiso   1.00
H129   H     0.74176   0.94126   0.08010   0.00000  Uiso   1.00
O130   O     0.31990   0.37852   0.25906   0.00000  Uiso   1.00
O131   O     0.35410   0.25410   0.75248   0.00000  Uiso   1.00
O132   O     0.96251   0.95183   0.08190   0.00000  Uiso   1.00
N133   N     0.45020   0.36249   0.18806   0.00000  Uiso   1.00
N134   N     0.47455   0.27384   0.82706   0.00000  Uiso   1.00
N135   N     0.90811   0.05843   0.06179   0.00000  Uiso   1.00
N136   N     0.31934   0.28894   0.19910   0.00000  Uiso   1.00
N137   N     0.34368   0.20029   0.83810   0.00000  Uiso   1.00
N138   N     0.77724   0.98488   0.07283   0.00000  Uiso   1.00
C139   C     0.12248   0.73806   0.02470   0.00000  Uiso   1.00
C140   C     0.04303   0.75437   0.07242   0.00000  Uiso   1.00
C141   C     0.04912   0.80906   0.10640   0.00000  Uiso   1.00
C142   C     0.96856   0.81512   0.14772   0.00000  Uiso   1.00
C143   C     0.85787   0.84761   0.22074   0.00000  Uiso   1.00
C144   C     0.04973   0.72995   0.97293   0.00000  Uiso   1.00
C145   C     0.06146   0.76410   0.92325   0.00000  Uiso   1.00
C146   C     0.98654   0.74959   0.88082   0.00000  Uiso   1.00
C147   C     0.88630   0.74412   0.79936   0.00000  Uiso   1.00
C148   C     0.16922   0.67059   0.03763   0.00000  Uiso   1.00
C149   C     0.28142   0.65482   0.04234   0.00000  Uiso   1.00
C150   C     0.30710   0.59032   0.05437   0.00000  Uiso   1.00
C151   C     0.39238   0.49270   0.07336   0.00000  Uiso   1.00
C152   C     0.96859   0.65156   0.03768   0.00000  Uiso   1.00
C153   C     0.95944   0.70739   0.07947   0.00000  Uiso   1.00
C154   C     0.87885   0.71336   0.12076   0.00000  Uiso   1.00
C155   C     0.88482   0.76805   0.15479   0.00000  Uiso   1.00
C156   C     0.96614   0.68297   0.97998   0.00000  Uiso   1.00
C157   C     0.89119   0.66840   0.93761   0.00000  Uiso   1.00
C158   C     0.90280   0.70252   0.88788   0.00000  Uiso   1.00
C159   C     0.08563   0.62360   0.04468   0.00000  Uiso   1.00
C160   C     0.11114   0.55912   0.05670   0.00000  Uiso   1.00
C161   C     0.22335   0.54326   0.06143   0.00000  Uiso   1.00
H162   H     0.18756   0.77464   0.01921   0.00000  Uiso   1.00
H163   H     0.11382   0.84541   0.10092   0.00000  Uiso   1.00
H164   H     0.12616   0.80045   0.91781   0.00000  Uiso   1.00
H165   H     0.34608   0.69119   0.03688   0.00000  Uiso   1.00
H166   H     0.99517   0.90317   0.19462   0.00000  Uiso   1.00
H167   H     0.02122   0.80835   0.80850   0.00000  Uiso   1.00
H168   H     0.48497   0.57795   0.05958   0.00000  Uiso   1.00
H169   H     0.90350   0.61498   0.04316   0.00000  Uiso   1.00
H170   H     0.81417   0.67700   0.12620   0.00000  Uiso   1.00
H171   H     0.82652   0.63204   0.94308   0.00000  Uiso   1.00
H172   H     0.04643   0.52278   0.06215   0.00000  Uiso   1.00
H173   H     0.75196   0.76649   0.21513   0.00000  Uiso   1.00
H174   H     0.77802   0.67166   0.82901   0.00000  Uiso   1.00
H175   H     0.24176   0.44126   0.08010   0.00000  Uiso   1.00
O176   O     0.81990   0.87852   0.25906   0.00000  Uiso   1.00
O177   O     0.85410   0.75410   0.75248   0.00000  Uiso   1.00
O178   O     0.46251   0.45183   0.08190   0.00000  Uiso   1.00
N179   N     0.95020   0.86249   0.18806   0.00000  Uiso   1.00
N180   N     0.97455   0.77384   0.82706   0.00000  Uiso   1.00
N181   N     0.40811   0.55843   0.06179   0.00000  Uiso   1.00
N182   N     0.81934   0.78894   0.19910   0.00000  Uiso   1.00
N183   N     0.84368   0.70029   0.83810   0.00000  Uiso   1.00
N184   N     0.27724   0.48488   0.07283   0.00000  Uiso   1.00
C185   C     0.62248   0.76194   0.97530   0.00000  Uiso   1.00
C186   C     0.54303   0.74563   0.92758   0.00000  Uiso   1.00
C187   C     0.54912   0.69094   0.89360   0.00000  Uiso   1.00
C188   C     0.46856   0.68488   0.85228   0.00000  Uiso   1.00
C189   C     0.35787   0.65239   0.77926   0.00000  Uiso   1.00
C190   C     0.54973   0.77005   0.02707   0.00000  Uiso   1.00
C191   C     0.56146   0.73590   0.07675   0.00000  Uiso   1.00
C192   C     0.48654   0.75041   0.11918   0.00000  Uiso   1.00
C193   C     0.38630   0.75588   0.20064   0.00000  Uiso   1.00
C194   C     0.66922   0.82941   0.96237   0.00000  Uiso   1.00
C195   C     0.78142   0.84518   0.95766   0.00000  Uiso   1.00
C196   C     0.80710   0.90968   0.94563   0.00000  Uiso   1.00
C197   C     0.89238   0.00730   0.92664   0.00000  Uiso   1.00
C198   C     0.46859   0.84844   0.96232   0.00000  Uiso   1.00
C199   C     0.45944   0.79261   0.92053   0.00000  Uiso   1.00
C200   C     0.37885   0.78664   0.87924   0.00000  Uiso   1.00
C201   C     0.38482   0.73195   0.84521   0.00000  Uiso   1.00
C202   C     0.46614   0.81703   0.02002   0.00000  Uiso   1.00
C203   C     0.39119   0.83160   0.06239   0.00000  Uiso   1.00
C204   C     0.40280   0.79748   0.11212   0.00000  Uiso   1.00
C205   C     0.58563   0.87640   0.95532   0.00000  Uiso   1.00
C206   C     0.61114   0.94088   0.94330   0.00000  Uiso   1.00
C207   C     0.72335   0.95674   0.93857   0.00000  Uiso   1.00
H208   H     0.68756   0.72536   0.98079   0.00000  Uiso   1.00
H209   H     0.61382   0.65459   0.89908   0.00000  Uiso   1.00
H210   H     0.62616   0.69955   0.08219   0.00000  Uiso   1.00
H211   H     0.84608   0.80881   0.96312   0.00000  Uiso   1.00
H212   H     0.49517   0.59683   0.80538   0.00000  Uiso   1.00
H213   H     0.52122   0.69165   0.19150   0.00000  Uiso   1.00
H214   H     0.98497   0.92205   0.94042   0.00000  Uiso   1.00
H215   H     0.40350   0.88502   0.95684   0.00000  Uiso   1.00
H216   H     0.31417   0.82300   0.87380   0.00000  Uiso   1.00
H217   H     0.32652   0.86796   0.05692   0.00000  Uiso   1.00
H218   H     0.54643   0.97722   0.93785   0.00000  Uiso   1.00
H219   H     0.25196   0.73351   0.78487   0.00000  Uiso   1.00
H220   H     0.27802   0.82834   0.17099   0.00000  Uiso   1.00
H221   H     0.74176   0.05874   0.91990   0.00000  Uiso   1.00
O222   O     0.31990   0.62148   0.74094   0.00000  Uiso   1.00
O223   O     0.35410   0.74590   0.24752   0.00000  Uiso   1.00
O224   O     0.96251   0.04817   0.91810   0.00000  Uiso   1.00
N225   N     0.45020   0.63751   0.81194   0.00000  Uiso   1.00
N226   N     0.47455   0.72616   0.17294   0.00000  Uiso   1.00
N227   N     0.90811   0.94157   0.93821   0.00000  Uiso   1.00
N228   N     0.31934   0.71106   0.80090   0.00000  Uiso   1.00
N229   N     0.34368   0.79971   0.16190   0.00000  Uiso   1.00
N230   N     0.77724   0.01512   0.92717   0.00000  Uiso   1.00
C231   C     0.12248   0.26194   0.97530   0.00000  Uiso   1.00
C232   C     0.04303   0.24563   0.92758   0.00000  Uiso   1.00
C233   C     0.04912   0.19094   0.89360   0.00000  Uiso   1.00
C234   C     0.96856   0.18488   0.85228   0.00000  Uiso   1.00
C235   C     0.85787   0.15239   0.77926   0.00000  Uiso   1.00
C236   C     0.04973   0.27005   0.02707   0.00000  Uiso   1.00
C237   C     0.06146   0.23590   0.07675   0.00000  Uiso   1.00
C238   C     0.98654   0.25041   0.11918   0.00000  Uiso   1.00
C239   C     0.88630   0.25588   0.20064   0.00000  Uiso   1.00
C240   C     0.16922   0.32941   0.96237   0.00000  Uiso   1.00
C241   C     0.28142   0.34518   0.95766   0.00000  Uiso   1.00
C242   C     0.30710   0.40968   0.94563   0.00000  Uiso   1.00
C243   C     0.39238   0.50730   0.92664   0.00000  Uiso   1.00
C244   C     0.96859   0.34844   0.96232   0.00000  Uiso   1.00
C245   C     0.95944   0.29261   0.92053   0.00000  Uiso   1.00
C246   C     0.87885   0.28664   0.87924   0.00000  Uiso   1.00
C247   C     0.88482   0.23195   0.84521   0.00000  Uiso   1.00
C248   C     0.96614   0.31703   0.02002   0.00000  Uiso   1.00
C249   C     0.89119   0.33160   0.06239   0.00000  Uiso   1.00
C250   C     0.90280   0.29748   0.11212   0.00000  Uiso   1.00
C251   C     0.08563   0.37640   0.95532   0.00000  Uiso   1.00
C252   C     0.11114   0.44088   0.94330   0.00000  Uiso   1.00
C253   C     0.22335   0.45674   0.93857   0.00000  Uiso   1.00
H254   H     0.18756   0.22536   0.98079   0.00000  Uiso   1.00
H255   H     0.11382   0.15459   0.89908   0.00000  Uiso   1.00
H256   H     0.12616   0.19955   0.08219   0.00000  Uiso   1.00
H257   H     0.34608   0.30881   0.96312   0.00000  Uiso   1.00
H258   H     0.99517   0.09683   0.80538   0.00000  Uiso   1.00
H259   H     0.02122   0.19165   0.19150   0.00000  Uiso   1.00
H260   H     0.48497   0.42205   0.94042   0.00000  Uiso   1.00
H261   H     0.90350   0.38502   0.95684   0.00000  Uiso   1.00
H262   H     0.81417   0.32300   0.87380   0.00000  Uiso   1.00
H263   H     0.82652   0.36796   0.05692   0.00000  Uiso   1.00
H264   H     0.04643   0.47722   0.93785   0.00000  Uiso   1.00
H265   H     0.75196   0.23351   0.78487   0.00000  Uiso   1.00
H266   H     0.77802   0.32834   0.17099   0.00000  Uiso   1.00
H267   H     0.24176   0.55874   0.91990   0.00000  Uiso   1.00
O268   O     0.81990   0.12148   0.74094   0.00000  Uiso   1.00
O269   O     0.85410   0.24590   0.24752   0.00000  Uiso   1.00
O270   O     0.46251   0.54817   0.91810   0.00000  Uiso   1.00
N271   N     0.95020   0.13751   0.81194   0.00000  Uiso   1.00
N272   N     0.97455   0.22616   0.17294   0.00000  Uiso   1.00
N273   N     0.40811   0.44157   0.93821   0.00000  Uiso   1.00
N274   N     0.81934   0.21106   0.80090   0.00000  Uiso   1.00
N275   N     0.84368   0.29971   0.16190   0.00000  Uiso   1.00
N276   N     0.27724   0.51512   0.92717   0.00000  Uiso   1.00
C277   C     0.37752   0.23806   0.47530   0.00000  Uiso   1.00
C278   C     0.45697   0.25437   0.42758   0.00000  Uiso   1.00
C279   C     0.45088   0.30906   0.39360   0.00000  Uiso   1.00
C280   C     0.53144   0.31512   0.35228   0.00000  Uiso   1.00
C281   C     0.64213   0.34761   0.27926   0.00000  Uiso   1.00
C282   C     0.45027   0.22995   0.52707   0.00000  Uiso   1.00
C283   C     0.43854   0.26410   0.57675   0.00000  Uiso   1.00
C284   C     0.51346   0.24959   0.61918   0.00000  Uiso   1.00
C285   C     0.61370   0.24412   0.70064   0.00000  Uiso   1.00
C286   C     0.33078   0.17059   0.46237   0.00000  Uiso   1.00
C287   C     0.21858   0.15482   0.45766   0.00000  Uiso   1.00
C288   C     0.19290   0.09032   0.44563   0.00000  Uiso   1.00
C289   C     0.10762   0.99270   0.42664   0.00000  Uiso   1.00
C290   C     0.53141   0.15156   0.46232   0.00000  Uiso   1.00
C291   C     0.54056   0.20739   0.42053   0.00000  Uiso   1.00
C292   C     0.62115   0.21336   0.37924   0.00000  Uiso   1.00
C293   C     0.61518   0.26805   0.34521   0.00000  Uiso   1.00
C294   C     0.53386   0.18297   0.52002   0.00000  Uiso   1.00
C295   C     0.60881   0.16840   0.56239   0.00000  Uiso   1.00
C296   C     0.59720   0.20252   0.61212   0.00000  Uiso   1.00
C297   C     0.41437   0.12360   0.45532   0.00000  Uiso   1.00
C298   C     0.38886   0.05912   0.44330   0.00000  Uiso   1.00
C299   C     0.27665   0.04326   0.43857   0.00000  Uiso   1.00
H300   H     0.31244   0.27464   0.48079   0.00000  Uiso   1.00
H301   H     0.38618   0.34541   0.39908   0.00000  Uiso   1.00
H302   H     0.37384   0.30045   0.58219   0.00000  Uiso   1.00
H303   H     0.15392   0.19119   0.46312   0.00000  Uiso   1.00
H304   H     0.50483   0.40317   0.30538   0.00000  Uiso   1.00
H305   H     0.47878   0.30835   0.69150   0.00000  Uiso   1.00
H306   H     0.01503   0.07795   0.44042   0.00000  Uiso   1.00
H307   H     0.59650   0.11498   0.45684   0.00000  Uiso   1.00
H308   H     0.68583   0.17700   0.37380   0.00000  Uiso   1.00
H309   H     0.67348   0.13204   0.55692   0.00000  Uiso   1.00
H310   H     0.45357   0.02278   0.43785   0.00000  Uiso   1.00
H311   H     0.74804   0.26649   0.28487   0.00000  Uiso   1.00
H312   H     0.72198   0.17166   0.67099   0.00000  Uiso   1.00
H313   H     0.25824   0.94126   0.41990   0.00000  Uiso   1.00
O314   O     0.68010   0.37852   0.24094   0.00000  Uiso   1.00
O315   O     0.64590   0.25410   0.74752   0.00000  Uiso   1.00
O316   O     0.03749   0.95183   0.41810   0.00000  Uiso   1.00
N317   N     0.54980   0.36249   0.31194   0.00000  Uiso   1.00
N318   N     0.52545   0.27384   0.67294   0.00000  Uiso   1.00
N319   N     0.09189   0.05843   0.43821   0.00000  Uiso   1.00
N320   N     0.68066   0.28894   0.30090   0.00000  Uiso   1.00
N321   N     0.65632   0.20029   0.66190   0.00000  Uiso   1.00
N322   N     0.22276   0.98488   0.42717   0.00000  Uiso   1.00
C323   C     0.87752   0.73806   0.47530   0.00000  Uiso   1.00
C324   C     0.95697   0.75437   0.42758   0.00000  Uiso   1.00
C325   C     0.95088   0.80906   0.39360   0.00000  Uiso   1.00
C326   C     0.03144   0.81512   0.35228   0.00000  Uiso   1.00
C327   C     0.14213   0.84761   0.27926   0.00000  Uiso   1.00
C328   C     0.95027   0.72995   0.52707   0.00000  Uiso   1.00
C329   C     0.93854   0.76410   0.57675   0.00000  Uiso   1.00
C330   C     0.01346   0.74959   0.61918   0.00000  Uiso   1.00
C331   C     0.11370   0.74412   0.70064   0.00000  Uiso   1.00
C332   C     0.83078   0.67059   0.46237   0.00000  Uiso   1.00
C333   C     0.71858   0.65482   0.45766   0.00000  Uiso   1.00
C334   C     0.69290   0.59032   0.44563   0.00000  Uiso   1.00
C335   C     0.60762   0.49270   0.42664   0.00000  Uiso   1.00
C336   C     0.03141   0.65156   0.46232   0.00000  Uiso   1.00
C337   C     0.04056   0.70739   0.42053   0.00000  Uiso   1.00
C338   C     0.12115   0.71336   0.37924   0.00000  Uiso   1.00
C339   C     0.11518   0.76805   0.34521   0.00000  Uiso   1.00
C340   C     0.03386   0.68297   0.52002   0.00000  Uiso   1.00
C341   C     0.10881   0.66840   0.56239   0.00000  Uiso   1.00
C342   C     0.09720   0.70252   0.61212   0.00000  Uiso   1.00
C343   C     0.91437   0.62360   0.45532   0.00000  Uiso   1.00
C344   C     0.88886   0.55912   0.44330   0.00000  Uiso   1.00
C345   C     0.77665   0.54326   0.43857   0.00000  Uiso   1.00
H346   H     0.81244   0.77464   0.48079   0.00000  Uiso   1.00
H347   H     0.88618   0.84541   0.39908   0.00000  Uiso   1.00
H348   H     0.87384   0.80045   0.58219   0.00000  Uiso   1.00
H349   H     0.65392   0.69119   0.46312   0.00000  Uiso   1.00
H350   H     0.00483   0.90317   0.30538   0.00000  Uiso   1.00
H351   H     0.97878   0.80835   0.69150   0.00000  Uiso   1.00
H352   H     0.51503   0.57795   0.44042   0.00000  Uiso   1.00
H353   H     0.09650   0.61498   0.45684   0.00000  Uiso   1.00
H354   H     0.18583   0.67700   0.37380   0.00000  Uiso   1.00
H355   H     0.17348   0.63204   0.55692   0.00000  Uiso   1.00
H356   H     0.95357   0.52278   0.43785   0.00000  Uiso   1.00
H357   H     0.24804   0.76649   0.28487   0.00000  Uiso   1.00
H358   H     0.22198   0.67166   0.67099   0.00000  Uiso   1.00
H359   H     0.75824   0.44126   0.41990   0.00000  Uiso   1.00
O360   O     0.18010   0.87852   0.24094   0.00000  Uiso   1.00
O361   O     0.14590   0.75410   0.74752   0.00000  Uiso   1.00
O362   O     0.53749   0.45183   0.41810   0.00000  Uiso   1.00
N363   N     0.04980   0.86249   0.31194   0.00000  Uiso   1.00
N364   N     0.02545   0.77384   0.67294   0.00000  Uiso   1.00
N365   N     0.59189   0.55843   0.43821   0.00000  Uiso   1.00
N366   N     0.18066   0.78894   0.30090   0.00000  Uiso   1.00
N367   N     0.15632   0.70029   0.66190   0.00000  Uiso   1.00
N368   N     0.72276   0.48488   0.42717   0.00000  Uiso   1.00
