data_job_05631
_audit_creation_date              2018-12-19
_audit_creation_method            'Materials Studio'
_symmetry_space_group_name_H-M    'P1'
_symmetry_Int_Tables_number       1
_symmetry_cell_setting            triclinic
loop_
_symmetry_equiv_pos_as_xyz
  x,y,z
_cell_length_a                    17.2241
_cell_length_b                    17.0751
_cell_length_c                    12.4316
_cell_angle_alpha                 90.0000
_cell_angle_beta                  85.9132
_cell_angle_gamma                 90.0000
loop_
_atom_site_label
_atom_site_type_symbol
_atom_site_fract_x
_atom_site_fract_y
_atom_site_fract_z
_atom_site_U_iso_or_equiv
_atom_site_adp_type
_atom_site_occupancy
C1     C     0.33147   0.05326   0.33986   0.00000  Uiso   1.00
C2     C     0.26406   0.04363   0.26781   0.00000  Uiso   1.00
C3     C     0.25287   0.08684   0.17565   0.00000  Uiso   1.00
C4     C     0.18759   0.06913   0.12093   0.00000  Uiso   1.00
C5     C     0.09084   0.06315   0.00357   0.00000  Uiso   1.00
C6     C     0.29460   0.06891   0.45300   0.00000  Uiso   1.00
C7     C     0.30909   0.13338   0.51654   0.00000  Uiso   1.00
C8     C     0.26952   0.13694   0.61770   0.00000  Uiso   1.00
C9     C     0.22022   0.17019   0.78788   0.00000  Uiso   1.00
C10    C     0.36994   0.97301   0.34450   0.00000  Uiso   1.00
C11    C     0.44777   0.95684   0.31684   0.00000  Uiso   1.00
C12    C     0.47164   0.87966   0.32668   0.00000  Uiso   1.00
C13    C     0.53931   0.76401   0.32839   0.00000  Uiso   1.00
C14    C     0.23545   0.94494   0.40656   0.00000  Uiso   1.00
C15    C     0.21191   0.98479   0.30405   0.00000  Uiso   1.00
C16    C     0.14663   0.96700   0.24944   0.00000  Uiso   1.00
C17    C     0.13534   0.01019   0.15721   0.00000  Uiso   1.00
C18    C     0.24245   0.01008   0.48922   0.00000  Uiso   1.00
C19    C     0.20286   0.01355   0.59033   0.00000  Uiso   1.00
C20    C     0.21727   0.07801   0.65400   0.00000  Uiso   1.00
C21    C     0.31778   0.91418   0.38072   0.00000  Uiso   1.00
C22    C     0.34154   0.83701   0.39062   0.00000  Uiso   1.00
C23    C     0.41939   0.82073   0.36298   0.00000  Uiso   1.00
H24    H     0.37207   0.09906   0.31167   0.00000  Uiso   1.00
H25    H     0.29324   0.13237   0.14765   0.00000  Uiso   1.00
H26    H     0.34945   0.17890   0.48848   0.00000  Uiso   1.00
H27    H     0.48811   0.00239   0.28881   0.00000  Uiso   1.00
H28    H     0.18282   0.14338   0.98180   0.00000  Uiso   1.00
H29    H     0.30138   0.24147   0.70048   0.00000  Uiso   1.00
H30    H     0.59377   0.86926   0.27943   0.00000  Uiso   1.00
H31    H     0.19485   0.89914   0.43477   0.00000  Uiso   1.00
H32    H     0.10629   0.92147   0.27750   0.00000  Uiso   1.00
H33    H     0.16250   0.96800   0.61833   0.00000  Uiso   1.00
H34    H     0.30116   0.79150   0.41866   0.00000  Uiso   1.00
H35    H     0.03108   0.97221   0.08719   0.00000  Uiso   1.00
H36    H     0.14964   0.07030   0.80588   0.00000  Uiso   1.00
H37    H     0.44203   0.69809   0.38482   0.00000  Uiso   1.00
O38    O     0.05187   0.07611   0.92884   0.00000  Uiso   1.00
O39    O     0.20743   0.20479   0.87173   0.00000  Uiso   1.00
O40    O     0.59104   0.71647   0.31931   0.00000  Uiso   1.00
N41    N     0.15927   0.10001   0.02818   0.00000  Uiso   1.00
N42    N     0.27011   0.19173   0.70009   0.00000  Uiso   1.00
N43    N     0.54347   0.84375   0.30648   0.00000  Uiso   1.00
N44    N     0.07762   0.00791   0.08488   0.00000  Uiso   1.00
N45    N     0.18846   0.09963   0.75680   0.00000  Uiso   1.00
N46    N     0.46182   0.75165   0.36318   0.00000  Uiso   1.00
C47    C     0.66853   0.55326   0.16014   0.00000  Uiso   1.00
C48    C     0.73594   0.54363   0.23219   0.00000  Uiso   1.00
C49    C     0.74713   0.58684   0.32435   0.00000  Uiso   1.00
C50    C     0.81241   0.56913   0.37907   0.00000  Uiso   1.00
C51    C     0.90916   0.56315   0.49643   0.00000  Uiso   1.00
C52    C     0.70540   0.56891   0.04700   0.00000  Uiso   1.00
C53    C     0.69091   0.63338   0.98346   0.00000  Uiso   1.00
C54    C     0.73048   0.63694   0.88230   0.00000  Uiso   1.00
C55    C     0.77978   0.67019   0.71212   0.00000  Uiso   1.00
C56    C     0.63006   0.47301   0.15550   0.00000  Uiso   1.00
C57    C     0.55223   0.45684   0.18316   0.00000  Uiso   1.00
C58    C     0.52836   0.37966   0.17332   0.00000  Uiso   1.00
C59    C     0.46069   0.26401   0.17161   0.00000  Uiso   1.00
C60    C     0.76455   0.44494   0.09344   0.00000  Uiso   1.00
C61    C     0.78809   0.48479   0.19595   0.00000  Uiso   1.00
C62    C     0.85337   0.46700   0.25056   0.00000  Uiso   1.00
C63    C     0.86466   0.51019   0.34279   0.00000  Uiso   1.00
C64    C     0.75755   0.51008   0.01078   0.00000  Uiso   1.00
C65    C     0.79714   0.51355   0.90967   0.00000  Uiso   1.00
C66    C     0.78273   0.57801   0.84600   0.00000  Uiso   1.00
C67    C     0.68222   0.41418   0.11928   0.00000  Uiso   1.00
C68    C     0.65846   0.33701   0.10938   0.00000  Uiso   1.00
C69    C     0.58061   0.32073   0.13702   0.00000  Uiso   1.00
H70    H     0.62793   0.59906   0.18833   0.00000  Uiso   1.00
H71    H     0.70676   0.63237   0.35235   0.00000  Uiso   1.00
H72    H     0.65055   0.67890   0.01152   0.00000  Uiso   1.00
H73    H     0.51189   0.50239   0.21119   0.00000  Uiso   1.00
H74    H     0.81718   0.64338   0.51820   0.00000  Uiso   1.00
H75    H     0.69862   0.74147   0.79952   0.00000  Uiso   1.00
H76    H     0.40623   0.36926   0.22057   0.00000  Uiso   1.00
H77    H     0.80515   0.39914   0.06523   0.00000  Uiso   1.00
H78    H     0.89371   0.42147   0.22250   0.00000  Uiso   1.00
H79    H     0.83750   0.46800   0.88167   0.00000  Uiso   1.00
H80    H     0.69884   0.29150   0.08134   0.00000  Uiso   1.00
H81    H     0.96892   0.47221   0.41281   0.00000  Uiso   1.00
H82    H     0.85036   0.57030   0.69412   0.00000  Uiso   1.00
H83    H     0.55797   0.19809   0.11518   0.00000  Uiso   1.00
O84    O     0.94813   0.57611   0.57116   0.00000  Uiso   1.00
O85    O     0.79257   0.70479   0.62827   0.00000  Uiso   1.00
O86    O     0.40896   0.21647   0.18069   0.00000  Uiso   1.00
N87    N     0.84073   0.60001   0.47182   0.00000  Uiso   1.00
N88    N     0.72989   0.69173   0.79991   0.00000  Uiso   1.00
N89    N     0.45653   0.34375   0.19352   0.00000  Uiso   1.00
N90    N     0.92238   0.50791   0.41512   0.00000  Uiso   1.00
N91    N     0.81154   0.59963   0.74320   0.00000  Uiso   1.00
N92    N     0.53818   0.25165   0.13682   0.00000  Uiso   1.00
C93    C     0.66853   0.94674   0.66014   0.00000  Uiso   1.00
C94    C     0.73594   0.95637   0.73219   0.00000  Uiso   1.00
C95    C     0.74713   0.91316   0.82435   0.00000  Uiso   1.00
C96    C     0.81241   0.93087   0.87907   0.00000  Uiso   1.00
C97    C     0.90916   0.93685   0.99643   0.00000  Uiso   1.00
C98    C     0.70540   0.93109   0.54700   0.00000  Uiso   1.00
C99    C     0.69091   0.86662   0.48346   0.00000  Uiso   1.00
C100   C     0.73048   0.86306   0.38230   0.00000  Uiso   1.00
C101   C     0.77978   0.82981   0.21212   0.00000  Uiso   1.00
C102   C     0.63006   0.02699   0.65550   0.00000  Uiso   1.00
C103   C     0.55223   0.04316   0.68316   0.00000  Uiso   1.00
C104   C     0.52836   0.12034   0.67332   0.00000  Uiso   1.00
C105   C     0.46069   0.23599   0.67161   0.00000  Uiso   1.00
C106   C     0.76455   0.05506   0.59344   0.00000  Uiso   1.00
C107   C     0.78809   0.01521   0.69595   0.00000  Uiso   1.00
C108   C     0.85337   0.03300   0.75056   0.00000  Uiso   1.00
C109   C     0.86466   0.98981   0.84279   0.00000  Uiso   1.00
C110   C     0.75755   0.98992   0.51078   0.00000  Uiso   1.00
C111   C     0.79714   0.98645   0.40967   0.00000  Uiso   1.00
C112   C     0.78273   0.92199   0.34600   0.00000  Uiso   1.00
C113   C     0.68222   0.08582   0.61928   0.00000  Uiso   1.00
C114   C     0.65846   0.16299   0.60938   0.00000  Uiso   1.00
C115   C     0.58061   0.17927   0.63702   0.00000  Uiso   1.00
H116   H     0.62793   0.90094   0.68833   0.00000  Uiso   1.00
H117   H     0.70676   0.86763   0.85235   0.00000  Uiso   1.00
H118   H     0.65055   0.82110   0.51152   0.00000  Uiso   1.00
H119   H     0.51189   0.99761   0.71119   0.00000  Uiso   1.00
H120   H     0.81718   0.85662   0.01820   0.00000  Uiso   1.00
H121   H     0.69862   0.75853   0.29952   0.00000  Uiso   1.00
H122   H     0.40623   0.13074   0.72057   0.00000  Uiso   1.00
H123   H     0.80515   0.10086   0.56523   0.00000  Uiso   1.00
H124   H     0.89371   0.07853   0.72250   0.00000  Uiso   1.00
H125   H     0.83750   0.03200   0.38167   0.00000  Uiso   1.00
H126   H     0.69884   0.20850   0.58134   0.00000  Uiso   1.00
H127   H     0.96892   0.02779   0.91281   0.00000  Uiso   1.00
H128   H     0.85036   0.92970   0.19412   0.00000  Uiso   1.00
H129   H     0.55797   0.30191   0.61518   0.00000  Uiso   1.00
O130   O     0.94813   0.92389   0.07116   0.00000  Uiso   1.00
O131   O     0.79257   0.79521   0.12827   0.00000  Uiso   1.00
O132   O     0.40896   0.28353   0.68069   0.00000  Uiso   1.00
N133   N     0.84073   0.89999   0.97182   0.00000  Uiso   1.00
N134   N     0.72989   0.80827   0.29991   0.00000  Uiso   1.00
N135   N     0.45653   0.15625   0.69352   0.00000  Uiso   1.00
N136   N     0.92238   0.99209   0.91512   0.00000  Uiso   1.00
N137   N     0.81154   0.90037   0.24320   0.00000  Uiso   1.00
N138   N     0.53818   0.24835   0.63682   0.00000  Uiso   1.00
C139   C     0.33147   0.44674   0.83986   0.00000  Uiso   1.00
C140   C     0.26406   0.45637   0.76781   0.00000  Uiso   1.00
C141   C     0.25287   0.41316   0.67565   0.00000  Uiso   1.00
C142   C     0.18759   0.43087   0.62093   0.00000  Uiso   1.00
C143   C     0.09084   0.43685   0.50357   0.00000  Uiso   1.00
C144   C     0.29460   0.43109   0.95300   0.00000  Uiso   1.00
C145   C     0.30909   0.36662   0.01654   0.00000  Uiso   1.00
C146   C     0.26952   0.36306   0.11770   0.00000  Uiso   1.00
C147   C     0.22022   0.32981   0.28788   0.00000  Uiso   1.00
C148   C     0.36994   0.52699   0.84450   0.00000  Uiso   1.00
C149   C     0.44777   0.54316   0.81684   0.00000  Uiso   1.00
C150   C     0.47164   0.62034   0.82668   0.00000  Uiso   1.00
C151   C     0.53931   0.73599   0.82839   0.00000  Uiso   1.00
C152   C     0.23545   0.55506   0.90656   0.00000  Uiso   1.00
C153   C     0.21191   0.51521   0.80405   0.00000  Uiso   1.00
C154   C     0.14663   0.53300   0.74944   0.00000  Uiso   1.00
C155   C     0.13534   0.48981   0.65721   0.00000  Uiso   1.00
C156   C     0.24245   0.48992   0.98922   0.00000  Uiso   1.00
C157   C     0.20286   0.48645   0.09033   0.00000  Uiso   1.00
C158   C     0.21727   0.42199   0.15400   0.00000  Uiso   1.00
C159   C     0.31778   0.58582   0.88072   0.00000  Uiso   1.00
C160   C     0.34154   0.66299   0.89062   0.00000  Uiso   1.00
C161   C     0.41939   0.67927   0.86298   0.00000  Uiso   1.00
H162   H     0.37207   0.40094   0.81167   0.00000  Uiso   1.00
H163   H     0.29324   0.36763   0.64765   0.00000  Uiso   1.00
H164   H     0.34945   0.32110   0.98848   0.00000  Uiso   1.00
H165   H     0.48811   0.49761   0.78881   0.00000  Uiso   1.00
H166   H     0.18282   0.35662   0.48180   0.00000  Uiso   1.00
H167   H     0.30138   0.25853   0.20048   0.00000  Uiso   1.00
H168   H     0.59377   0.63074   0.77943   0.00000  Uiso   1.00
H169   H     0.19485   0.60086   0.93477   0.00000  Uiso   1.00
H170   H     0.10629   0.57853   0.77750   0.00000  Uiso   1.00
H171   H     0.16250   0.53200   0.11833   0.00000  Uiso   1.00
H172   H     0.30116   0.70850   0.91866   0.00000  Uiso   1.00
H173   H     0.03108   0.52779   0.58719   0.00000  Uiso   1.00
H174   H     0.14964   0.42970   0.30588   0.00000  Uiso   1.00
H175   H     0.44203   0.80191   0.88482   0.00000  Uiso   1.00
O176   O     0.05187   0.42389   0.42884   0.00000  Uiso   1.00
O177   O     0.20743   0.29521   0.37173   0.00000  Uiso   1.00
O178   O     0.59104   0.78353   0.81931   0.00000  Uiso   1.00
N179   N     0.15927   0.39999   0.52818   0.00000  Uiso   1.00
N180   N     0.27011   0.30827   0.20009   0.00000  Uiso   1.00
N181   N     0.54347   0.65625   0.80648   0.00000  Uiso   1.00
N182   N     0.07762   0.49209   0.58488   0.00000  Uiso   1.00
N183   N     0.18846   0.40037   0.25680   0.00000  Uiso   1.00
N184   N     0.46182   0.74835   0.86318   0.00000  Uiso   1.00
