data_job_05795
_audit_creation_date              2018-12-19
_audit_creation_method            'Materials Studio'
_symmetry_space_group_name_H-M    'P1'
_symmetry_Int_Tables_number       1
_symmetry_cell_setting            triclinic
loop_
_symmetry_equiv_pos_as_xyz
  x,y,z
_cell_length_a                    40.5764
_cell_length_b                    24.3181
_cell_length_c                    13.2414
_cell_angle_alpha                 90.0000
_cell_angle_beta                  90.0000
_cell_angle_gamma                 90.0000
loop_
_atom_site_label
_atom_site_type_symbol
_atom_site_fract_x
_atom_site_fract_y
_atom_site_fract_z
_atom_site_U_iso_or_equiv
_atom_site_adp_type
_atom_site_occupancy
C1     C     0.16557   0.80142   0.96911   0.00000  Uiso   1.00
C2     C     0.18022   0.84522   0.90000   0.00000  Uiso   1.00
C3     C     0.19202   0.89617   0.93040   0.00000  Uiso   1.00
C4     C     0.20444   0.93040   0.85563   0.00000  Uiso   1.00
C5     C     0.22708   0.00089   0.76375   0.00000  Uiso   1.00
C6     C     0.13131   0.78907   0.92754   0.00000  Uiso   1.00
C7     C     0.10199   0.79280   0.98109   0.00000  Uiso   1.00
C8     C     0.07325   0.77976   0.92949   0.00000  Uiso   1.00
C9     C     0.01997   0.76303   0.88038   0.00000  Uiso   1.00
C10    C     0.18591   0.74955   0.95175   0.00000  Uiso   1.00
C11    C     0.20250   0.72004   0.02567   0.00000  Uiso   1.00
C12    C     0.21972   0.67372   0.99446   0.00000  Uiso   1.00
C13    C     0.25122   0.59563   0.98295   0.00000  Uiso   1.00
C14    C     0.16665   0.77163   0.78227   0.00000  Uiso   1.00
C15    C     0.18080   0.82904   0.79852   0.00000  Uiso   1.00
C16    C     0.19321   0.86321   0.72368   0.00000  Uiso   1.00
C17    C     0.20503   0.91420   0.75396   0.00000  Uiso   1.00
C18    C     0.13190   0.77289   0.82606   0.00000  Uiso   1.00
C19    C     0.10319   0.75984   0.77437   0.00000  Uiso   1.00
C20    C     0.07384   0.76355   0.82782   0.00000  Uiso   1.00
C21    C     0.18650   0.73337   0.85027   0.00000  Uiso   1.00
C22    C     0.20370   0.68709   0.81894   0.00000  Uiso   1.00
C23    C     0.22031   0.65751   0.89279   0.00000  Uiso   1.00
H24    H     0.16511   0.81402   0.04812   0.00000  Uiso   1.00
H25    H     0.19156   0.90867   0.00894   0.00000  Uiso   1.00
H26    H     0.10155   0.80531   0.05963   0.00000  Uiso   1.00
H27    H     0.20204   0.73257   0.10419   0.00000  Uiso   1.00
H28    H     0.22113   0.00649   0.92075   0.00000  Uiso   1.00
H29    H     0.03134   0.78853   0.02762   0.00000  Uiso   1.00
H30    H     0.24325   0.63514   0.12161   0.00000  Uiso   1.00
H31    H     0.16711   0.75904   0.70326   0.00000  Uiso   1.00
H32    H     0.19366   0.85068   0.64515   0.00000  Uiso   1.00
H33    H     0.10365   0.74732   0.69584   0.00000  Uiso   1.00
H34    H     0.20415   0.67458   0.74040   0.00000  Uiso   1.00
H35    H     0.22283   0.95943   0.62548   0.00000  Uiso   1.00
H36    H     0.03305   0.74146   0.73236   0.00000  Uiso   1.00
H37    H     0.24495   0.58807   0.82634   0.00000  Uiso   1.00
O38    O     0.23940   0.04425   0.74110   0.00000  Uiso   1.00
O39    O     0.99041   0.75828   0.88133   0.00000  Uiso   1.00
O40    O     0.26843   0.55703   0.00464   0.00000  Uiso   1.00
N41    N     0.21789   0.98284   0.85923   0.00000  Uiso   1.00
N42    N     0.04045   0.77906   0.95915   0.00000  Uiso   1.00
N43    N     0.23856   0.63564   0.04702   0.00000  Uiso   1.00
N44    N     0.21881   0.95751   0.70035   0.00000  Uiso   1.00
N45    N     0.04137   0.75374   0.80027   0.00000  Uiso   1.00
N46    N     0.23948   0.61032   0.88814   0.00000  Uiso   1.00
C47    C     0.33443   0.69858   0.46911   0.00000  Uiso   1.00
C48    C     0.31978   0.65478   0.40000   0.00000  Uiso   1.00
C49    C     0.30798   0.60383   0.43040   0.00000  Uiso   1.00
C50    C     0.29556   0.56960   0.35563   0.00000  Uiso   1.00
C51    C     0.27292   0.49911   0.26375   0.00000  Uiso   1.00
C52    C     0.36869   0.71093   0.42754   0.00000  Uiso   1.00
C53    C     0.39801   0.70720   0.48109   0.00000  Uiso   1.00
C54    C     0.42675   0.72024   0.42949   0.00000  Uiso   1.00
C55    C     0.48003   0.73697   0.38038   0.00000  Uiso   1.00
C56    C     0.31409   0.75045   0.45175   0.00000  Uiso   1.00
C57    C     0.29750   0.77996   0.52567   0.00000  Uiso   1.00
C58    C     0.28028   0.82628   0.49446   0.00000  Uiso   1.00
C59    C     0.24878   0.90437   0.48295   0.00000  Uiso   1.00
C60    C     0.33335   0.72837   0.28227   0.00000  Uiso   1.00
C61    C     0.31920   0.67096   0.29852   0.00000  Uiso   1.00
C62    C     0.30679   0.63679   0.22368   0.00000  Uiso   1.00
C63    C     0.29497   0.58580   0.25396   0.00000  Uiso   1.00
C64    C     0.36810   0.72711   0.32606   0.00000  Uiso   1.00
C65    C     0.39681   0.74016   0.27437   0.00000  Uiso   1.00
C66    C     0.42616   0.73645   0.32782   0.00000  Uiso   1.00
C67    C     0.31350   0.76663   0.35027   0.00000  Uiso   1.00
C68    C     0.29630   0.81291   0.31894   0.00000  Uiso   1.00
C69    C     0.27969   0.84249   0.39279   0.00000  Uiso   1.00
H70    H     0.33489   0.68598   0.54812   0.00000  Uiso   1.00
H71    H     0.30844   0.59133   0.50894   0.00000  Uiso   1.00
H72    H     0.39845   0.69469   0.55963   0.00000  Uiso   1.00
H73    H     0.29796   0.76743   0.60419   0.00000  Uiso   1.00
H74    H     0.27887   0.49351   0.42075   0.00000  Uiso   1.00
H75    H     0.46866   0.71147   0.52762   0.00000  Uiso   1.00
H76    H     0.25675   0.86486   0.62161   0.00000  Uiso   1.00
H77    H     0.33289   0.74096   0.20326   0.00000  Uiso   1.00
H78    H     0.30634   0.64932   0.14515   0.00000  Uiso   1.00
H79    H     0.39635   0.75268   0.19584   0.00000  Uiso   1.00
H80    H     0.29585   0.82542   0.24040   0.00000  Uiso   1.00
H81    H     0.27717   0.54057   0.12548   0.00000  Uiso   1.00
H82    H     0.46695   0.75854   0.23236   0.00000  Uiso   1.00
H83    H     0.25505   0.91193   0.32634   0.00000  Uiso   1.00
O84    O     0.26060   0.45575   0.24110   0.00000  Uiso   1.00
O85    O     0.50959   0.74172   0.38133   0.00000  Uiso   1.00
O86    O     0.23157   0.94297   0.50464   0.00000  Uiso   1.00
N87    N     0.28211   0.51716   0.35923   0.00000  Uiso   1.00
N88    N     0.45955   0.72094   0.45915   0.00000  Uiso   1.00
N89    N     0.26144   0.86436   0.54702   0.00000  Uiso   1.00
N90    N     0.28119   0.54249   0.20035   0.00000  Uiso   1.00
N91    N     0.45863   0.74626   0.30027   0.00000  Uiso   1.00
N92    N     0.26052   0.88968   0.38814   0.00000  Uiso   1.00
C93    C     0.83443   0.80142   0.53089   0.00000  Uiso   1.00
C94    C     0.81978   0.84522   0.60000   0.00000  Uiso   1.00
C95    C     0.80798   0.89617   0.56960   0.00000  Uiso   1.00
C96    C     0.79556   0.93040   0.64437   0.00000  Uiso   1.00
C97    C     0.77292   0.00089   0.73625   0.00000  Uiso   1.00
C98    C     0.86869   0.78907   0.57246   0.00000  Uiso   1.00
C99    C     0.89801   0.79280   0.51891   0.00000  Uiso   1.00
C100   C     0.92675   0.77976   0.57051   0.00000  Uiso   1.00
C101   C     0.98003   0.76303   0.61962   0.00000  Uiso   1.00
C102   C     0.81409   0.74955   0.54825   0.00000  Uiso   1.00
C103   C     0.79750   0.72004   0.47433   0.00000  Uiso   1.00
C104   C     0.78028   0.67372   0.50554   0.00000  Uiso   1.00
C105   C     0.74878   0.59563   0.51705   0.00000  Uiso   1.00
C106   C     0.83335   0.77163   0.71773   0.00000  Uiso   1.00
C107   C     0.81920   0.82904   0.70148   0.00000  Uiso   1.00
C108   C     0.80679   0.86321   0.77632   0.00000  Uiso   1.00
C109   C     0.79497   0.91420   0.74604   0.00000  Uiso   1.00
C110   C     0.86810   0.77289   0.67394   0.00000  Uiso   1.00
C111   C     0.89681   0.75984   0.72563   0.00000  Uiso   1.00
C112   C     0.92616   0.76355   0.67218   0.00000  Uiso   1.00
C113   C     0.81350   0.73337   0.64973   0.00000  Uiso   1.00
C114   C     0.79630   0.68709   0.68106   0.00000  Uiso   1.00
C115   C     0.77969   0.65751   0.60721   0.00000  Uiso   1.00
H116   H     0.83489   0.81402   0.45188   0.00000  Uiso   1.00
H117   H     0.80844   0.90867   0.49106   0.00000  Uiso   1.00
H118   H     0.89845   0.80531   0.44037   0.00000  Uiso   1.00
H119   H     0.79796   0.73257   0.39581   0.00000  Uiso   1.00
H120   H     0.77887   0.00649   0.57925   0.00000  Uiso   1.00
H121   H     0.96866   0.78853   0.47238   0.00000  Uiso   1.00
H122   H     0.75675   0.63514   0.37839   0.00000  Uiso   1.00
H123   H     0.83289   0.75904   0.79674   0.00000  Uiso   1.00
H124   H     0.80634   0.85068   0.85485   0.00000  Uiso   1.00
H125   H     0.89635   0.74732   0.80416   0.00000  Uiso   1.00
H126   H     0.79585   0.67458   0.75960   0.00000  Uiso   1.00
H127   H     0.77717   0.95943   0.87452   0.00000  Uiso   1.00
H128   H     0.96695   0.74146   0.76764   0.00000  Uiso   1.00
H129   H     0.75505   0.58807   0.67366   0.00000  Uiso   1.00
O130   O     0.76060   0.04425   0.75890   0.00000  Uiso   1.00
O131   O     0.00959   0.75828   0.61867   0.00000  Uiso   1.00
O132   O     0.73157   0.55703   0.49536   0.00000  Uiso   1.00
N133   N     0.78211   0.98284   0.64077   0.00000  Uiso   1.00
N134   N     0.95955   0.77906   0.54085   0.00000  Uiso   1.00
N135   N     0.76144   0.63564   0.45298   0.00000  Uiso   1.00
N136   N     0.78119   0.95751   0.79965   0.00000  Uiso   1.00
N137   N     0.95863   0.75374   0.69973   0.00000  Uiso   1.00
N138   N     0.76052   0.61032   0.61186   0.00000  Uiso   1.00
C139   C     0.66557   0.69858   0.03089   0.00000  Uiso   1.00
C140   C     0.68022   0.65478   0.10000   0.00000  Uiso   1.00
C141   C     0.69202   0.60383   0.06960   0.00000  Uiso   1.00
C142   C     0.70444   0.56960   0.14437   0.00000  Uiso   1.00
C143   C     0.72708   0.49911   0.23625   0.00000  Uiso   1.00
C144   C     0.63131   0.71093   0.07246   0.00000  Uiso   1.00
C145   C     0.60199   0.70720   0.01891   0.00000  Uiso   1.00
C146   C     0.57325   0.72024   0.07051   0.00000  Uiso   1.00
C147   C     0.51997   0.73697   0.11962   0.00000  Uiso   1.00
C148   C     0.68591   0.75045   0.04825   0.00000  Uiso   1.00
C149   C     0.70250   0.77996   0.97433   0.00000  Uiso   1.00
C150   C     0.71972   0.82628   0.00554   0.00000  Uiso   1.00
C151   C     0.75122   0.90437   0.01705   0.00000  Uiso   1.00
C152   C     0.66665   0.72837   0.21773   0.00000  Uiso   1.00
C153   C     0.68080   0.67096   0.20148   0.00000  Uiso   1.00
C154   C     0.69321   0.63679   0.27632   0.00000  Uiso   1.00
C155   C     0.70503   0.58580   0.24604   0.00000  Uiso   1.00
C156   C     0.63190   0.72711   0.17394   0.00000  Uiso   1.00
C157   C     0.60319   0.74016   0.22563   0.00000  Uiso   1.00
C158   C     0.57384   0.73645   0.17218   0.00000  Uiso   1.00
C159   C     0.68650   0.76663   0.14973   0.00000  Uiso   1.00
C160   C     0.70370   0.81291   0.18106   0.00000  Uiso   1.00
C161   C     0.72031   0.84249   0.10721   0.00000  Uiso   1.00
H162   H     0.66511   0.68598   0.95188   0.00000  Uiso   1.00
H163   H     0.69156   0.59133   0.99106   0.00000  Uiso   1.00
H164   H     0.60155   0.69469   0.94037   0.00000  Uiso   1.00
H165   H     0.70204   0.76743   0.89581   0.00000  Uiso   1.00
H166   H     0.72113   0.49351   0.07925   0.00000  Uiso   1.00
H167   H     0.53134   0.71147   0.97238   0.00000  Uiso   1.00
H168   H     0.74325   0.86486   0.87839   0.00000  Uiso   1.00
H169   H     0.66711   0.74096   0.29674   0.00000  Uiso   1.00
H170   H     0.69366   0.64932   0.35485   0.00000  Uiso   1.00
H171   H     0.60365   0.75268   0.30416   0.00000  Uiso   1.00
H172   H     0.70415   0.82542   0.25960   0.00000  Uiso   1.00
H173   H     0.72283   0.54057   0.37452   0.00000  Uiso   1.00
H174   H     0.53305   0.75854   0.26764   0.00000  Uiso   1.00
H175   H     0.74495   0.91193   0.17366   0.00000  Uiso   1.00
O176   O     0.73940   0.45575   0.25890   0.00000  Uiso   1.00
O177   O     0.49041   0.74172   0.11867   0.00000  Uiso   1.00
O178   O     0.76843   0.94297   0.99536   0.00000  Uiso   1.00
N179   N     0.71789   0.51716   0.14077   0.00000  Uiso   1.00
N180   N     0.54045   0.72094   0.04085   0.00000  Uiso   1.00
N181   N     0.73856   0.86436   0.95298   0.00000  Uiso   1.00
N182   N     0.71881   0.54249   0.29965   0.00000  Uiso   1.00
N183   N     0.54137   0.74626   0.19973   0.00000  Uiso   1.00
N184   N     0.73948   0.88968   0.11186   0.00000  Uiso   1.00
C185   C     0.83443   0.19858   0.03089   0.00000  Uiso   1.00
C186   C     0.81978   0.15478   0.10000   0.00000  Uiso   1.00
C187   C     0.80798   0.10383   0.06960   0.00000  Uiso   1.00
C188   C     0.79556   0.06960   0.14437   0.00000  Uiso   1.00
C189   C     0.77292   0.99911   0.23625   0.00000  Uiso   1.00
C190   C     0.86869   0.21093   0.07246   0.00000  Uiso   1.00
C191   C     0.89801   0.20720   0.01891   0.00000  Uiso   1.00
C192   C     0.92675   0.22024   0.07051   0.00000  Uiso   1.00
C193   C     0.98003   0.23697   0.11962   0.00000  Uiso   1.00
C194   C     0.81409   0.25045   0.04825   0.00000  Uiso   1.00
C195   C     0.79750   0.27996   0.97433   0.00000  Uiso   1.00
C196   C     0.78028   0.32628   0.00554   0.00000  Uiso   1.00
C197   C     0.74878   0.40437   0.01705   0.00000  Uiso   1.00
C198   C     0.83335   0.22837   0.21773   0.00000  Uiso   1.00
C199   C     0.81920   0.17096   0.20148   0.00000  Uiso   1.00
C200   C     0.80679   0.13679   0.27632   0.00000  Uiso   1.00
C201   C     0.79497   0.08580   0.24604   0.00000  Uiso   1.00
C202   C     0.86810   0.22711   0.17394   0.00000  Uiso   1.00
C203   C     0.89681   0.24016   0.22563   0.00000  Uiso   1.00
C204   C     0.92616   0.23645   0.17218   0.00000  Uiso   1.00
C205   C     0.81350   0.26663   0.14973   0.00000  Uiso   1.00
C206   C     0.79630   0.31291   0.18106   0.00000  Uiso   1.00
C207   C     0.77969   0.34249   0.10721   0.00000  Uiso   1.00
H208   H     0.83489   0.18598   0.95188   0.00000  Uiso   1.00
H209   H     0.80844   0.09133   0.99106   0.00000  Uiso   1.00
H210   H     0.89845   0.19469   0.94037   0.00000  Uiso   1.00
H211   H     0.79796   0.26743   0.89581   0.00000  Uiso   1.00
H212   H     0.77887   0.99351   0.07925   0.00000  Uiso   1.00
H213   H     0.96866   0.21147   0.97238   0.00000  Uiso   1.00
H214   H     0.75675   0.36486   0.87839   0.00000  Uiso   1.00
H215   H     0.83289   0.24096   0.29674   0.00000  Uiso   1.00
H216   H     0.80634   0.14932   0.35485   0.00000  Uiso   1.00
H217   H     0.89635   0.25268   0.30416   0.00000  Uiso   1.00
H218   H     0.79585   0.32542   0.25960   0.00000  Uiso   1.00
H219   H     0.77717   0.04057   0.37452   0.00000  Uiso   1.00
H220   H     0.96695   0.25854   0.26764   0.00000  Uiso   1.00
H221   H     0.75505   0.41193   0.17366   0.00000  Uiso   1.00
O222   O     0.76060   0.95575   0.25890   0.00000  Uiso   1.00
O223   O     0.00959   0.24172   0.11867   0.00000  Uiso   1.00
O224   O     0.73157   0.44297   0.99536   0.00000  Uiso   1.00
N225   N     0.78211   0.01716   0.14077   0.00000  Uiso   1.00
N226   N     0.95955   0.22094   0.04085   0.00000  Uiso   1.00
N227   N     0.76144   0.36436   0.95298   0.00000  Uiso   1.00
N228   N     0.78119   0.04249   0.29965   0.00000  Uiso   1.00
N229   N     0.95863   0.24626   0.19973   0.00000  Uiso   1.00
N230   N     0.76052   0.38968   0.11186   0.00000  Uiso   1.00
C231   C     0.66557   0.30142   0.53089   0.00000  Uiso   1.00
C232   C     0.68022   0.34522   0.60000   0.00000  Uiso   1.00
C233   C     0.69202   0.39617   0.56960   0.00000  Uiso   1.00
C234   C     0.70444   0.43040   0.64437   0.00000  Uiso   1.00
C235   C     0.72708   0.50089   0.73625   0.00000  Uiso   1.00
C236   C     0.63131   0.28907   0.57246   0.00000  Uiso   1.00
C237   C     0.60199   0.29280   0.51891   0.00000  Uiso   1.00
C238   C     0.57325   0.27976   0.57051   0.00000  Uiso   1.00
C239   C     0.51997   0.26303   0.61962   0.00000  Uiso   1.00
C240   C     0.68591   0.24955   0.54825   0.00000  Uiso   1.00
C241   C     0.70250   0.22004   0.47433   0.00000  Uiso   1.00
C242   C     0.71972   0.17372   0.50554   0.00000  Uiso   1.00
C243   C     0.75122   0.09563   0.51705   0.00000  Uiso   1.00
C244   C     0.66665   0.27163   0.71773   0.00000  Uiso   1.00
C245   C     0.68080   0.32904   0.70148   0.00000  Uiso   1.00
C246   C     0.69321   0.36321   0.77632   0.00000  Uiso   1.00
C247   C     0.70503   0.41420   0.74604   0.00000  Uiso   1.00
C248   C     0.63190   0.27289   0.67394   0.00000  Uiso   1.00
C249   C     0.60319   0.25984   0.72563   0.00000  Uiso   1.00
C250   C     0.57384   0.26355   0.67218   0.00000  Uiso   1.00
C251   C     0.68650   0.23337   0.64973   0.00000  Uiso   1.00
C252   C     0.70370   0.18709   0.68106   0.00000  Uiso   1.00
C253   C     0.72031   0.15751   0.60721   0.00000  Uiso   1.00
H254   H     0.66511   0.31402   0.45188   0.00000  Uiso   1.00
H255   H     0.69156   0.40867   0.49106   0.00000  Uiso   1.00
H256   H     0.60155   0.30531   0.44037   0.00000  Uiso   1.00
H257   H     0.70204   0.23257   0.39581   0.00000  Uiso   1.00
H258   H     0.72113   0.50649   0.57925   0.00000  Uiso   1.00
H259   H     0.53134   0.28853   0.47238   0.00000  Uiso   1.00
H260   H     0.74325   0.13514   0.37839   0.00000  Uiso   1.00
H261   H     0.66711   0.25904   0.79674   0.00000  Uiso   1.00
H262   H     0.69366   0.35068   0.85485   0.00000  Uiso   1.00
H263   H     0.60365   0.24732   0.80416   0.00000  Uiso   1.00
H264   H     0.70415   0.17458   0.75960   0.00000  Uiso   1.00
H265   H     0.72283   0.45943   0.87452   0.00000  Uiso   1.00
H266   H     0.53305   0.24146   0.76764   0.00000  Uiso   1.00
H267   H     0.74495   0.08807   0.67366   0.00000  Uiso   1.00
O268   O     0.73940   0.54425   0.75890   0.00000  Uiso   1.00
O269   O     0.49041   0.25828   0.61867   0.00000  Uiso   1.00
O270   O     0.76843   0.05703   0.49536   0.00000  Uiso   1.00
N271   N     0.71789   0.48284   0.64077   0.00000  Uiso   1.00
N272   N     0.54045   0.27906   0.54085   0.00000  Uiso   1.00
N273   N     0.73856   0.13564   0.45298   0.00000  Uiso   1.00
N274   N     0.71881   0.45751   0.79965   0.00000  Uiso   1.00
N275   N     0.54137   0.25374   0.69973   0.00000  Uiso   1.00
N276   N     0.73948   0.11032   0.61186   0.00000  Uiso   1.00
C277   C     0.16557   0.19858   0.46911   0.00000  Uiso   1.00
C278   C     0.18022   0.15478   0.40000   0.00000  Uiso   1.00
C279   C     0.19202   0.10383   0.43040   0.00000  Uiso   1.00
C280   C     0.20444   0.06960   0.35563   0.00000  Uiso   1.00
C281   C     0.22708   0.99911   0.26375   0.00000  Uiso   1.00
C282   C     0.13131   0.21093   0.42754   0.00000  Uiso   1.00
C283   C     0.10199   0.20720   0.48109   0.00000  Uiso   1.00
C284   C     0.07325   0.22024   0.42949   0.00000  Uiso   1.00
C285   C     0.01997   0.23697   0.38038   0.00000  Uiso   1.00
C286   C     0.18591   0.25045   0.45175   0.00000  Uiso   1.00
C287   C     0.20250   0.27996   0.52567   0.00000  Uiso   1.00
C288   C     0.21972   0.32628   0.49446   0.00000  Uiso   1.00
C289   C     0.25122   0.40437   0.48295   0.00000  Uiso   1.00
C290   C     0.16665   0.22837   0.28227   0.00000  Uiso   1.00
C291   C     0.18080   0.17096   0.29852   0.00000  Uiso   1.00
C292   C     0.19321   0.13679   0.22368   0.00000  Uiso   1.00
C293   C     0.20503   0.08580   0.25396   0.00000  Uiso   1.00
C294   C     0.13190   0.22711   0.32606   0.00000  Uiso   1.00
C295   C     0.10319   0.24016   0.27437   0.00000  Uiso   1.00
C296   C     0.07384   0.23645   0.32782   0.00000  Uiso   1.00
C297   C     0.18650   0.26663   0.35027   0.00000  Uiso   1.00
C298   C     0.20370   0.31291   0.31894   0.00000  Uiso   1.00
C299   C     0.22031   0.34249   0.39279   0.00000  Uiso   1.00
H300   H     0.16511   0.18598   0.54812   0.00000  Uiso   1.00
H301   H     0.19156   0.09133   0.50894   0.00000  Uiso   1.00
H302   H     0.10155   0.19469   0.55963   0.00000  Uiso   1.00
H303   H     0.20204   0.26743   0.60419   0.00000  Uiso   1.00
H304   H     0.22113   0.99351   0.42075   0.00000  Uiso   1.00
H305   H     0.03134   0.21147   0.52762   0.00000  Uiso   1.00
H306   H     0.24325   0.36486   0.62161   0.00000  Uiso   1.00
H307   H     0.16711   0.24096   0.20326   0.00000  Uiso   1.00
H308   H     0.19366   0.14932   0.14515   0.00000  Uiso   1.00
H309   H     0.10365   0.25268   0.19584   0.00000  Uiso   1.00
H310   H     0.20415   0.32542   0.24040   0.00000  Uiso   1.00
H311   H     0.22283   0.04057   0.12548   0.00000  Uiso   1.00
H312   H     0.03305   0.25854   0.23236   0.00000  Uiso   1.00
H313   H     0.24495   0.41193   0.32634   0.00000  Uiso   1.00
O314   O     0.23940   0.95575   0.24110   0.00000  Uiso   1.00
O315   O     0.99041   0.24172   0.38133   0.00000  Uiso   1.00
O316   O     0.26843   0.44297   0.50464   0.00000  Uiso   1.00
N317   N     0.21789   0.01716   0.35923   0.00000  Uiso   1.00
N318   N     0.04045   0.22094   0.45915   0.00000  Uiso   1.00
N319   N     0.23856   0.36436   0.54702   0.00000  Uiso   1.00
N320   N     0.21881   0.04249   0.20035   0.00000  Uiso   1.00
N321   N     0.04137   0.24626   0.30027   0.00000  Uiso   1.00
N322   N     0.23948   0.38968   0.38814   0.00000  Uiso   1.00
C323   C     0.33443   0.30142   0.96911   0.00000  Uiso   1.00
C324   C     0.31978   0.34522   0.90000   0.00000  Uiso   1.00
C325   C     0.30798   0.39617   0.93040   0.00000  Uiso   1.00
C326   C     0.29556   0.43040   0.85563   0.00000  Uiso   1.00
C327   C     0.27292   0.50089   0.76375   0.00000  Uiso   1.00
C328   C     0.36869   0.28907   0.92754   0.00000  Uiso   1.00
C329   C     0.39801   0.29280   0.98109   0.00000  Uiso   1.00
C330   C     0.42675   0.27976   0.92949   0.00000  Uiso   1.00
C331   C     0.48003   0.26303   0.88038   0.00000  Uiso   1.00
C332   C     0.31409   0.24955   0.95175   0.00000  Uiso   1.00
C333   C     0.29750   0.22004   0.02567   0.00000  Uiso   1.00
C334   C     0.28028   0.17372   0.99446   0.00000  Uiso   1.00
C335   C     0.24878   0.09563   0.98295   0.00000  Uiso   1.00
C336   C     0.33335   0.27163   0.78227   0.00000  Uiso   1.00
C337   C     0.31920   0.32904   0.79852   0.00000  Uiso   1.00
C338   C     0.30679   0.36321   0.72368   0.00000  Uiso   1.00
C339   C     0.29497   0.41420   0.75396   0.00000  Uiso   1.00
C340   C     0.36810   0.27289   0.82606   0.00000  Uiso   1.00
C341   C     0.39681   0.25984   0.77437   0.00000  Uiso   1.00
C342   C     0.42616   0.26355   0.82782   0.00000  Uiso   1.00
C343   C     0.31350   0.23337   0.85027   0.00000  Uiso   1.00
C344   C     0.29630   0.18709   0.81894   0.00000  Uiso   1.00
C345   C     0.27969   0.15751   0.89279   0.00000  Uiso   1.00
H346   H     0.33489   0.31402   0.04812   0.00000  Uiso   1.00
H347   H     0.30844   0.40867   0.00894   0.00000  Uiso   1.00
H348   H     0.39845   0.30531   0.05963   0.00000  Uiso   1.00
H349   H     0.29796   0.23257   0.10419   0.00000  Uiso   1.00
H350   H     0.27887   0.50649   0.92075   0.00000  Uiso   1.00
H351   H     0.46866   0.28853   0.02762   0.00000  Uiso   1.00
H352   H     0.25675   0.13514   0.12161   0.00000  Uiso   1.00
H353   H     0.33289   0.25904   0.70326   0.00000  Uiso   1.00
H354   H     0.30634   0.35068   0.64515   0.00000  Uiso   1.00
H355   H     0.39635   0.24732   0.69584   0.00000  Uiso   1.00
H356   H     0.29585   0.17458   0.74040   0.00000  Uiso   1.00
H357   H     0.27717   0.45943   0.62548   0.00000  Uiso   1.00
H358   H     0.46695   0.24146   0.73236   0.00000  Uiso   1.00
H359   H     0.25505   0.08807   0.82634   0.00000  Uiso   1.00
O360   O     0.26060   0.54425   0.74110   0.00000  Uiso   1.00
O361   O     0.50959   0.25828   0.88133   0.00000  Uiso   1.00
O362   O     0.23157   0.05703   0.00464   0.00000  Uiso   1.00
N363   N     0.28211   0.48284   0.85923   0.00000  Uiso   1.00
N364   N     0.45955   0.27906   0.95915   0.00000  Uiso   1.00
N365   N     0.26144   0.13564   0.04702   0.00000  Uiso   1.00
N366   N     0.28119   0.45751   0.70035   0.00000  Uiso   1.00
N367   N     0.45863   0.25374   0.80027   0.00000  Uiso   1.00
N368   N     0.26052   0.11032   0.88814   0.00000  Uiso   1.00
