data_job_06397
_audit_creation_date              2018-12-19
_audit_creation_method            'Materials Studio'
_symmetry_space_group_name_H-M    'P1'
_symmetry_Int_Tables_number       1
_symmetry_cell_setting            triclinic
loop_
_symmetry_equiv_pos_as_xyz
  x,y,z
_cell_length_a                    17.3432
_cell_length_b                    16.2081
_cell_length_c                    15.9243
_cell_angle_alpha                 101.5980
_cell_angle_beta                  99.9593
_cell_angle_gamma                 100.6070
loop_
_atom_site_label
_atom_site_type_symbol
_atom_site_fract_x
_atom_site_fract_y
_atom_site_fract_z
_atom_site_U_iso_or_equiv
_atom_site_adp_type
_atom_site_occupancy
C1     C     0.65357   0.08579   0.51686   0.00000  Uiso   1.00
C2     C     0.57706   0.11734   0.49238   0.00000  Uiso   1.00
C3     C     0.56490   0.19840   0.52703   0.00000  Uiso   1.00
C4     C     0.49070   0.21473   0.49607   0.00000  Uiso   1.00
C5     C     0.38098   0.27322   0.46772   0.00000  Uiso   1.00
C6     C     0.62810   0.00342   0.54715   0.00000  Uiso   1.00
C7     C     0.65886   0.98870   0.62785   0.00000  Uiso   1.00
C8     C     0.62763   0.90913   0.64299   0.00000  Uiso   1.00
C9     C     0.59719   0.79074   0.69964   0.00000  Uiso   1.00
C10    C     0.68007   0.05770   0.43116   0.00000  Uiso   1.00
C11    C     0.75454   0.08859   0.41435   0.00000  Uiso   1.00
C12    C     0.76708   0.05470   0.33184   0.00000  Uiso   1.00
C13    C     0.81734   0.02058   0.20841   0.00000  Uiso   1.00
C14    C     0.54342   0.97065   0.40025   0.00000  Uiso   1.00
C15    C     0.51723   0.05480   0.42904   0.00000  Uiso   1.00
C16    C     0.44303   0.07101   0.39801   0.00000  Uiso   1.00
C17    C     0.43076   0.15208   0.43262   0.00000  Uiso   1.00
C18    C     0.56827   0.94088   0.48381   0.00000  Uiso   1.00
C19    C     0.53699   0.86132   0.49883   0.00000  Uiso   1.00
C20    C     0.56769   0.84648   0.57954   0.00000  Uiso   1.00
C21    C     0.62024   0.99516   0.36782   0.00000  Uiso   1.00
C22    C     0.63267   0.96121   0.28532   0.00000  Uiso   1.00
C23    C     0.70714   0.99205   0.26838   0.00000  Uiso   1.00
H24    H     0.70015   0.13447   0.56618   0.00000  Uiso   1.00
H25    H     0.61122   0.24678   0.57606   0.00000  Uiso   1.00
H26    H     0.70516   0.03711   0.67685   0.00000  Uiso   1.00
H27    H     0.80083   0.13699   0.46338   0.00000  Uiso   1.00
H28    H     0.48622   0.34369   0.55910   0.00000  Uiso   1.00
H29    H     0.68433   0.90158   0.77162   0.00000  Uiso   1.00
H30    H     0.88606   0.11220   0.32147   0.00000  Uiso   1.00
H31    H     0.49684   0.92196   0.35094   0.00000  Uiso   1.00
H32    H     0.39674   0.02261   0.34900   0.00000  Uiso   1.00
H33    H     0.49069   0.81294   0.44980   0.00000  Uiso   1.00
H34    H     0.58636   0.91282   0.23632   0.00000  Uiso   1.00
H35    H     0.31214   0.16175   0.37481   0.00000  Uiso   1.00
H36    H     0.51026   0.71963   0.58733   0.00000  Uiso   1.00
H37    H     0.71199   0.93025   0.13718   0.00000  Uiso   1.00
O38    O     0.33699   0.32275   0.46958   0.00000  Uiso   1.00
O39    O     0.59692   0.74272   0.74839   0.00000  Uiso   1.00
O40    O     0.86159   0.01905   0.15781   0.00000  Uiso   1.00
N41    N     0.45899   0.28707   0.51598   0.00000  Uiso   1.00
N42    N     0.64421   0.87372   0.71468   0.00000  Uiso   1.00
N43    N     0.83282   0.07062   0.29384   0.00000  Uiso   1.00
N44    N     0.36532   0.18916   0.41681   0.00000  Uiso   1.00
N45    N     0.55054   0.77582   0.61551   0.00000  Uiso   1.00
N46    N     0.73915   0.97271   0.19467   0.00000  Uiso   1.00
C47    C     0.51247   0.65460   0.08566   0.00000  Uiso   1.00
C48    C     0.48733   0.57249   0.11649   0.00000  Uiso   1.00
C49    C     0.51844   0.55824   0.19731   0.00000  Uiso   1.00
C50    C     0.48750   0.47883   0.21296   0.00000  Uiso   1.00
C51    C     0.45761   0.36088   0.27039   0.00000  Uiso   1.00
C52    C     0.53870   0.62614   0.99986   0.00000  Uiso   1.00
C53    C     0.61300   0.65701   0.98263   0.00000  Uiso   1.00
C54    C     0.62529   0.62277   0.90010   0.00000  Uiso   1.00
C55    C     0.67513   0.58816   0.77644   0.00000  Uiso   1.00
C56    C     0.43581   0.68590   0.06120   0.00000  Uiso   1.00
C57    C     0.42360   0.76703   0.09550   0.00000  Uiso   1.00
C58    C     0.34927   0.78311   0.06460   0.00000  Uiso   1.00
C59    C     0.23935   0.84127   0.03617   0.00000  Uiso   1.00
C60    C     0.40220   0.53892   0.96975   0.00000  Uiso   1.00
C61    C     0.42744   0.50966   0.05352   0.00000  Uiso   1.00
C62    C     0.39644   0.43025   0.06906   0.00000  Uiso   1.00
C63    C     0.42749   0.41589   0.14989   0.00000  Uiso   1.00
C64    C     0.47881   0.56331   0.93690   0.00000  Uiso   1.00
C65    C     0.49100   0.52902   0.85438   0.00000  Uiso   1.00
C66    C     0.56529   0.55983   0.83702   0.00000  Uiso   1.00
C67    C     0.37592   0.62306   0.99824   0.00000  Uiso   1.00
C68    C     0.30159   0.63903   0.96726   0.00000  Uiso   1.00
C69    C     0.28926   0.72016   0.00152   0.00000  Uiso   1.00
H70    H     0.55910   0.70352   0.13468   0.00000  Uiso   1.00
H71    H     0.56480   0.60688   0.24601   0.00000  Uiso   1.00
H72    H     0.65933   0.70564   0.03136   0.00000  Uiso   1.00
H73    H     0.46996   0.81563   0.14423   0.00000  Uiso   1.00
H74    H     0.54472   0.47202   0.34167   0.00000  Uiso   1.00
H75    H     0.74404   0.68028   0.88905   0.00000  Uiso   1.00
H76    H     0.34472   0.91222   0.12705   0.00000  Uiso   1.00
H77    H     0.35557   0.49000   0.92073   0.00000  Uiso   1.00
H78    H     0.35009   0.38164   0.02033   0.00000  Uiso   1.00
H79    H     0.44463   0.48040   0.80567   0.00000  Uiso   1.00
H80    H     0.25526   0.59039   0.91854   0.00000  Uiso   1.00
H81    H     0.37045   0.28920   0.15849   0.00000  Uiso   1.00
H82    H     0.56978   0.49747   0.70587   0.00000  Uiso   1.00
H83    H     0.17045   0.72940   0.94388   0.00000  Uiso   1.00
O84    O     0.45767   0.31317   0.31945   0.00000  Uiso   1.00
O85    O     0.71918   0.58641   0.72563   0.00000  Uiso   1.00
O86    O     0.19527   0.89071   0.03788   0.00000  Uiso   1.00
N87    N     0.50444   0.44387   0.28490   0.00000  Uiso   1.00
N88    N     0.69081   0.63857   0.86173   0.00000  Uiso   1.00
N89    N     0.31748   0.85542   0.08423   0.00000  Uiso   1.00
N90    N     0.41067   0.34549   0.18633   0.00000  Uiso   1.00
N91    N     0.59704   0.54020   0.76317   0.00000  Uiso   1.00
N92    N     0.22371   0.75705   0.98566   0.00000  Uiso   1.00
C93    C     0.08115   0.51509   0.65415   0.00000  Uiso   1.00
C94    C     0.10789   0.48698   0.56860   0.00000  Uiso   1.00
C95    C     0.18230   0.51822   0.55184   0.00000  Uiso   1.00
C96    C     0.19507   0.48428   0.46947   0.00000  Uiso   1.00
C97    C     0.24563   0.45023   0.34624   0.00000  Uiso   1.00
C98    C     0.00439   0.54610   0.62930   0.00000  Uiso   1.00
C99    C     0.99178   0.62705   0.66359   0.00000  Uiso   1.00
C100   C     0.91742   0.64287   0.63232   0.00000  Uiso   1.00
C101   C     0.80729   0.70059   0.60338   0.00000  Uiso   1.00
C102   C     0.05602   0.43282   0.68471   0.00000  Uiso   1.00
C103   C     0.08681   0.41852   0.76561   0.00000  Uiso   1.00
C104   C     0.05591   0.33897   0.78100   0.00000  Uiso   1.00
C105   C     0.02594   0.22080   0.83809   0.00000  Uiso   1.00
C106   C     0.97150   0.39926   0.53764   0.00000  Uiso   1.00
C107   C     0.04833   0.42407   0.50532   0.00000  Uiso   1.00
C108   C     0.06099   0.39006   0.42295   0.00000  Uiso   1.00
C109   C     0.13541   0.42125   0.40608   0.00000  Uiso   1.00
C110   C     0.94484   0.48319   0.56602   0.00000  Uiso   1.00
C111   C     0.87048   0.49889   0.53470   0.00000  Uiso   1.00
C112   C     0.85776   0.57984   0.56893   0.00000  Uiso   1.00
C113   C     0.99647   0.36990   0.62143   0.00000  Uiso   1.00
C114   C     0.96551   0.29036   0.63670   0.00000  Uiso   1.00
C115   C     0.99625   0.27594   0.71761   0.00000  Uiso   1.00
H116   H     0.12751   0.56408   0.70341   0.00000  Uiso   1.00
H117   H     0.22837   0.56692   0.60083   0.00000  Uiso   1.00
H118   H     0.03788   0.67572   0.71257   0.00000  Uiso   1.00
H119   H     0.13290   0.46723   0.81456   0.00000  Uiso   1.00
H120   H     0.31392   0.54234   0.45918   0.00000  Uiso   1.00
H121   H     0.91225   0.77175   0.69481   0.00000  Uiso   1.00
H122   H     0.11261   0.33210   0.90988   0.00000  Uiso   1.00
H123   H     0.92513   0.35028   0.48838   0.00000  Uiso   1.00
H124   H     0.01489   0.34138   0.37399   0.00000  Uiso   1.00
H125   H     0.82440   0.45019   0.48573   0.00000  Uiso   1.00
H126   H     0.91942   0.24169   0.58772   0.00000  Uiso   1.00
H127   H     0.14065   0.35929   0.27506   0.00000  Uiso   1.00
H128   H     0.73898   0.58870   0.51070   0.00000  Uiso   1.00
H129   H     0.93935   0.14905   0.72577   0.00000  Uiso   1.00
O130   O     0.28997   0.44884   0.29574   0.00000  Uiso   1.00
O131   O     0.76300   0.74981   0.60490   0.00000  Uiso   1.00
O132   O     0.02587   0.17300   0.88706   0.00000  Uiso   1.00
N133   N     0.26083   0.50047   0.43155   0.00000  Uiso   1.00
N134   N     0.88530   0.71496   0.65184   0.00000  Uiso   1.00
N135   N     0.07260   0.30393   0.85292   0.00000  Uiso   1.00
N136   N     0.16759   0.40197   0.33248   0.00000  Uiso   1.00
N137   N     0.79206   0.61646   0.55277   0.00000  Uiso   1.00
N138   N     0.97937   0.20543   0.75385   0.00000  Uiso   1.00
C139   C     0.15355   0.01633   0.58658   0.00000  Uiso   1.00
C140   C     0.07691   0.99190   0.61937   0.00000  Uiso   1.00
C141   C     0.06465   0.02622   0.70184   0.00000  Uiso   1.00
C142   C     0.99034   0.99538   0.71914   0.00000  Uiso   1.00
C143   C     0.88043   0.96705   0.77962   0.00000  Uiso   1.00
C144   C     0.12832   0.04550   0.50274   0.00000  Uiso   1.00
C145   C     0.15929   0.12490   0.48715   0.00000  Uiso   1.00
C146   C     0.12827   0.13917   0.40628   0.00000  Uiso   1.00
C147   C     0.09821   0.19404   0.28566   0.00000  Uiso   1.00
C148   C     0.17992   0.93222   0.55819   0.00000  Uiso   1.00
C149   C     0.25429   0.91637   0.58920   0.00000  Uiso   1.00
C150   C     0.26672   0.83528   0.55498   0.00000  Uiso   1.00
C151   C     0.31679   0.71426   0.52046   0.00000  Uiso   1.00
C152   C     0.04340   0.90051   0.47066   0.00000  Uiso   1.00
C153   C     0.01708   0.92899   0.55640   0.00000  Uiso   1.00
C154   C     0.94278   0.89808   0.57359   0.00000  Uiso   1.00
C155   C     0.93041   0.93236   0.65607   0.00000  Uiso   1.00
C156   C     0.06849   0.98260   0.43978   0.00000  Uiso   1.00
C157   C     0.03742   0.99676   0.35890   0.00000  Uiso   1.00
C158   C     0.06833   0.07616   0.34320   0.00000  Uiso   1.00
C159   C     0.12009   0.86931   0.49523   0.00000  Uiso   1.00
C160   C     0.13241   0.78823   0.46095   0.00000  Uiso   1.00
C161   C     0.20678   0.77226   0.49191   0.00000  Uiso   1.00
H162   H     0.20013   0.06531   0.63559   0.00000  Uiso   1.00
H163   H     0.11096   0.07491   0.75054   0.00000  Uiso   1.00
H164   H     0.20560   0.17356   0.53589   0.00000  Uiso   1.00
H165   H     0.30058   0.96507   0.63792   0.00000  Uiso   1.00
H166   H     0.98571   0.05784   0.85021   0.00000  Uiso   1.00
H167   H     0.18527   0.26584   0.39758   0.00000  Uiso   1.00
H168   H     0.38556   0.82619   0.61274   0.00000  Uiso   1.00
H169   H     0.99681   0.85153   0.42164   0.00000  Uiso   1.00
H170   H     0.89649   0.84940   0.52485   0.00000  Uiso   1.00
H171   H     0.99112   0.94806   0.31019   0.00000  Uiso   1.00
H172   H     0.08610   0.73957   0.41223   0.00000  Uiso   1.00
H173   H     0.81163   0.87481   0.66703   0.00000  Uiso   1.00
H174   H     0.01120   0.08282   0.21440   0.00000  Uiso   1.00
H175   H     0.21148   0.64317   0.42956   0.00000  Uiso   1.00
O176   O     0.83633   0.96880   0.83036   0.00000  Uiso   1.00
O177   O     0.09816   0.24169   0.23653   0.00000  Uiso   1.00
O178   O     0.36093   0.66488   0.51882   0.00000  Uiso   1.00
N179   N     0.95852   0.01504   0.79294   0.00000  Uiso   1.00
N180   N     0.14508   0.20952   0.36977   0.00000  Uiso   1.00
N181   N     0.33234   0.79849   0.57090   0.00000  Uiso   1.00
N182   N     0.86485   0.91656   0.69437   0.00000  Uiso   1.00
N183   N     0.05141   0.11103   0.27120   0.00000  Uiso   1.00
N184   N     0.23867   0.70001   0.47233   0.00000  Uiso   1.00
C185   C     0.01254   0.58491   0.15453   0.00000  Uiso   1.00
C186   C     0.98765   0.61463   0.07095   0.00000  Uiso   1.00
C187   C     0.01896   0.69414   0.05584   0.00000  Uiso   1.00
C188   C     0.98823   0.70892   0.97512   0.00000  Uiso   1.00
C189   C     0.95873   0.76456   0.85494   0.00000  Uiso   1.00
C190   C     0.03865   0.50071   0.12576   0.00000  Uiso   1.00
C191   C     0.11284   0.48444   0.15675   0.00000  Uiso   1.00
C192   C     0.12502   0.40333   0.12218   0.00000  Uiso   1.00
C193   C     0.17467   0.28208   0.08716   0.00000  Uiso   1.00
C194   C     0.93576   0.56050   0.18706   0.00000  Uiso   1.00
C195   C     0.92344   0.59449   0.26960   0.00000  Uiso   1.00
C196   C     0.84900   0.56369   0.28665   0.00000  Uiso   1.00
C197   C     0.73890   0.53528   0.34680   0.00000  Uiso   1.00
C198   C     0.90227   0.46978   0.03805   0.00000  Uiso   1.00
C199   C     0.92776   0.55209   0.00768   0.00000  Uiso   1.00
C200   C     0.89696   0.56676   0.92697   0.00000  Uiso   1.00
C201   C     0.92823   0.64628   0.91174   0.00000  Uiso   1.00
C202   C     0.97876   0.43818   0.06250   0.00000  Uiso   1.00
C203   C     0.99084   0.35706   0.02788   0.00000  Uiso   1.00
C204   C     0.06502   0.34068   0.05881   0.00000  Uiso   1.00
C205   C     0.87586   0.49797   0.12380   0.00000  Uiso   1.00
C206   C     0.80143   0.46711   0.14073   0.00000  Uiso   1.00
C207   C     0.78900   0.50104   0.22327   0.00000  Uiso   1.00
H208   H     0.05917   0.63360   0.20379   0.00000  Uiso   1.00
H209   H     0.06532   0.74252   0.10481   0.00000  Uiso   1.00
H210   H     0.15917   0.53285   0.20572   0.00000  Uiso   1.00
H211   H     0.96980   0.64288   0.31854   0.00000  Uiso   1.00
H212   H     0.04575   0.83568   0.96717   0.00000  Uiso   1.00
H213   H     0.24363   0.39358   0.17995   0.00000  Uiso   1.00
H214   H     0.84430   0.62559   0.41787   0.00000  Uiso   1.00
H215   H     0.85564   0.42109   0.98880   0.00000  Uiso   1.00
H216   H     0.85061   0.51835   0.87802   0.00000  Uiso   1.00
H217   H     0.94447   0.30869   0.97893   0.00000  Uiso   1.00
H218   H     0.75510   0.41872   0.09175   0.00000  Uiso   1.00
H219   H     0.87149   0.65374   0.78309   0.00000  Uiso   1.00
H220   H     0.06937   0.21164   0.99588   0.00000  Uiso   1.00
H221   H     0.67004   0.44366   0.23380   0.00000  Uiso   1.00
O222   O     0.95901   0.81251   0.80612   0.00000  Uiso   1.00
O223   O     0.21861   0.23249   0.08531   0.00000  Uiso   1.00
O224   O     0.69470   0.53689   0.39745   0.00000  Uiso   1.00
N225   N     0.00541   0.77952   0.93905   0.00000  Uiso   1.00
N226   N     0.19042   0.36618   0.13799   0.00000  Uiso   1.00
N227   N     0.81709   0.58309   0.36043   0.00000  Uiso   1.00
N228   N     0.91164   0.68162   0.84000   0.00000  Uiso   1.00
N229   N     0.09666   0.26829   0.03894   0.00000  Uiso   1.00
N230   N     0.72333   0.48519   0.26138   0.00000  Uiso   1.00
C231   C     0.58110   0.15424   0.01556   0.00000  Uiso   1.00
C232   C     0.60772   0.07029   0.98715   0.00000  Uiso   1.00
C233   C     0.68203   0.05450   0.01851   0.00000  Uiso   1.00
C234   C     0.69469   0.97354   0.98424   0.00000  Uiso   1.00
C235   C     0.74506   0.85272   0.94978   0.00000  Uiso   1.00
C236   C     0.50422   0.12945   0.04780   0.00000  Uiso   1.00
C237   C     0.49151   0.16342   0.13016   0.00000  Uiso   1.00
C238   C     0.41705   0.13227   0.14695   0.00000  Uiso   1.00
C239   C     0.30672   0.10336   0.20665   0.00000  Uiso   1.00
C240   C     0.55623   0.18370   0.93182   0.00000  Uiso   1.00
C241   C     0.58722   0.26328   0.91666   0.00000  Uiso   1.00
C242   C     0.55653   0.27781   0.83580   0.00000  Uiso   1.00
C243   C     0.52695   0.33312   0.71540   0.00000  Uiso   1.00
C244   C     0.47146   0.03854   0.89893   0.00000  Uiso   1.00
C245   C     0.54816   0.00744   0.92380   0.00000  Uiso   1.00
C246   C     0.56072   0.92649   0.88947   0.00000  Uiso   1.00
C247   C     0.63503   0.91058   0.92077   0.00000  Uiso   1.00
C248   C     0.44467   0.06661   0.98446   0.00000  Uiso   1.00
C249   C     0.37021   0.03541   0.00112   0.00000  Uiso   1.00
C250   C     0.35739   0.06931   0.08349   0.00000  Uiso   1.00
C251   C     0.49667   0.12085   0.86846   0.00000  Uiso   1.00
C252   C     0.46592   0.13526   0.78762   0.00000  Uiso   1.00
C253   C     0.49687   0.21485   0.77233   0.00000  Uiso   1.00
H254   H     0.62746   0.20317   0.06489   0.00000  Uiso   1.00
H255   H     0.72810   0.10315   0.06754   0.00000  Uiso   1.00
H256   H     0.53761   0.21206   0.17917   0.00000  Uiso   1.00
H257   H     0.63331   0.31190   0.96570   0.00000  Uiso   1.00
H258   H     0.81339   0.96453   0.04257   0.00000  Uiso   1.00
H259   H     0.41173   0.19419   0.27794   0.00000  Uiso   1.00
H260   H     0.61353   0.40473   0.82779   0.00000  Uiso   1.00
H261   H     0.42509   0.98961   0.84961   0.00000  Uiso   1.00
H262   H     0.51462   0.87786   0.84044   0.00000  Uiso   1.00
H263   H     0.32413   0.98677   0.95208   0.00000  Uiso   1.00
H264   H     0.41983   0.08661   0.73861   0.00000  Uiso   1.00
H265   H     0.64013   0.78168   0.85825   0.00000  Uiso   1.00
H266   H     0.23846   0.01134   0.09362   0.00000  Uiso   1.00
H267   H     0.44027   0.22188   0.64347   0.00000  Uiso   1.00
O268   O     0.78930   0.80344   0.94829   0.00000  Uiso   1.00
O269   O     0.26232   0.10476   0.25708   0.00000  Uiso   1.00
O270   O     0.52709   0.38098   0.66650   0.00000  Uiso   1.00
N271   N     0.76033   0.93684   0.00043   0.00000  Uiso   1.00
N272   N     0.38480   0.15155   0.22050   0.00000  Uiso   1.00
N273   N     0.57346   0.34839   0.79965   0.00000  Uiso   1.00
N274   N     0.66710   0.83845   0.90125   0.00000  Uiso   1.00
N275   N     0.29157   0.05316   0.12132   0.00000  Uiso   1.00
N276   N     0.48023   0.25000   0.70047   0.00000  Uiso   1.00
