data_job_02971
_audit_creation_date              2018-12-19
_audit_creation_method            'Materials Studio'
_symmetry_space_group_name_H-M    'P1'
_symmetry_Int_Tables_number       1
_symmetry_cell_setting            triclinic
loop_
_symmetry_equiv_pos_as_xyz
  x,y,z
_cell_length_a                    13.2405
_cell_length_b                    15.7694
_cell_length_c                    22.2476
_cell_angle_alpha                 90.0000
_cell_angle_beta                  143.2612
_cell_angle_gamma                 90.0000
loop_
_atom_site_label
_atom_site_type_symbol
_atom_site_fract_x
_atom_site_fract_y
_atom_site_fract_z
_atom_site_U_iso_or_equiv
_atom_site_adp_type
_atom_site_occupancy
C1     C     0.25689   0.34894   0.78129   0.00000  Uiso   1.00
C2     C     0.12714   0.28410   0.69814   0.00000  Uiso   1.00
C3     C     0.15877   0.21648   0.67493   0.00000  Uiso   1.00
C4     C     0.02315   0.16436   0.59616   0.00000  Uiso   1.00
C5     C     0.84621   0.06141   0.47517   0.00000  Uiso   1.00
C6     C     0.18712   0.43554   0.73031   0.00000  Uiso   1.00
C7     C     0.26920   0.49526   0.73417   0.00000  Uiso   1.00
C8     C     0.18407   0.57063   0.68249   0.00000  Uiso   1.00
C9     C     0.10030   0.70283   0.61151   0.00000  Uiso   1.00
C10    C     0.25279   0.34615   0.84783   0.00000  Uiso   1.00
C11    C     0.39011   0.33072   0.95050   0.00000  Uiso   1.00
C12    C     0.36028   0.33084   0.99778   0.00000  Uiso   1.00
C13    C     0.37849   0.32424   0.10926   0.00000  Uiso   1.00
C14    C     0.95977   0.37661   0.68269   0.00000  Uiso   1.00
C15    C     0.96575   0.29913   0.64458   0.00000  Uiso   1.00
C16    C     0.83004   0.24709   0.56583   0.00000  Uiso   1.00
C17    C     0.86148   0.17941   0.54251   0.00000  Uiso   1.00
C18    C     0.02574   0.45057   0.67676   0.00000  Uiso   1.00
C19    C     0.94047   0.52587   0.62507   0.00000  Uiso   1.00
C20    C     0.02239   0.58568   0.62884   0.00000  Uiso   1.00
C21    C     0.09141   0.36117   0.79428   0.00000  Uiso   1.00
C22    C     0.06137   0.36133   0.84140   0.00000  Uiso   1.00
C23    C     0.19860   0.34590   0.94412   0.00000  Uiso   1.00
H24    H     0.38253   0.33725   0.82298   0.00000  Uiso   1.00
H25    H     0.28369   0.20488   0.71639   0.00000  Uiso   1.00
H26    H     0.39410   0.48362   0.77563   0.00000  Uiso   1.00
H27    H     0.51498   0.31910   0.99192   0.00000  Uiso   1.00
H28    H     0.10291   0.06477   0.57456   0.00000  Uiso   1.00
H29    H     0.33574   0.65251   0.69950   0.00000  Uiso   1.00
H30    H     0.59065   0.30560   0.15560   0.00000  Uiso   1.00
H31    H     0.83411   0.38831   0.64099   0.00000  Uiso   1.00
H32    H     0.70517   0.25873   0.52440   0.00000  Uiso   1.00
H33    H     0.81558   0.53748   0.58364   0.00000  Uiso   1.00
H34    H     0.93646   0.37296   0.79994   0.00000  Uiso   1.00
H35    H     0.63336   0.10848   0.41873   0.00000  Uiso   1.00
H36    H     0.86620   0.69623   0.54368   0.00000  Uiso   1.00
H37    H     0.12110   0.34931   0.99978   0.00000  Uiso   1.00
O38    O     0.79319   0.00049   0.42321   0.00000  Uiso   1.00
O39    O     0.09868   0.77159   0.58715   0.00000  Uiso   1.00
O40    O     0.43310   0.31644   0.18554   0.00000  Uiso   1.00
N41    N     0.01010   0.09283   0.55390   0.00000  Uiso   1.00
N42    N     0.22778   0.64233   0.67070   0.00000  Uiso   1.00
N43    N     0.46610   0.31802   0.09712   0.00000  Uiso   1.00
N44    N     0.75744   0.11635   0.47005   0.00000  Uiso   1.00
N45    N     0.97512   0.66585   0.58685   0.00000  Uiso   1.00
N46    N     0.21344   0.34154   0.01327   0.00000  Uiso   1.00
C47    C     0.74311   0.84894   0.71871   0.00000  Uiso   1.00
C48    C     0.87286   0.78410   0.80186   0.00000  Uiso   1.00
C49    C     0.84123   0.71648   0.82507   0.00000  Uiso   1.00
C50    C     0.97685   0.66436   0.90384   0.00000  Uiso   1.00
C51    C     0.15379   0.56141   0.02483   0.00000  Uiso   1.00
C52    C     0.81288   0.93554   0.76969   0.00000  Uiso   1.00
C53    C     0.73080   0.99526   0.76583   0.00000  Uiso   1.00
C54    C     0.81593   0.07063   0.81751   0.00000  Uiso   1.00
C55    C     0.89970   0.20283   0.88849   0.00000  Uiso   1.00
C56    C     0.74721   0.84615   0.65217   0.00000  Uiso   1.00
C57    C     0.60989   0.83072   0.54950   0.00000  Uiso   1.00
C58    C     0.63972   0.83084   0.50222   0.00000  Uiso   1.00
C59    C     0.62151   0.82424   0.39074   0.00000  Uiso   1.00
C60    C     0.04023   0.87661   0.81731   0.00000  Uiso   1.00
C61    C     0.03425   0.79913   0.85542   0.00000  Uiso   1.00
C62    C     0.16996   0.74709   0.93417   0.00000  Uiso   1.00
C63    C     0.13852   0.67941   0.95749   0.00000  Uiso   1.00
C64    C     0.97426   0.95057   0.82324   0.00000  Uiso   1.00
C65    C     0.05953   0.02587   0.87493   0.00000  Uiso   1.00
C66    C     0.97761   0.08568   0.87116   0.00000  Uiso   1.00
C67    C     0.90859   0.86117   0.70572   0.00000  Uiso   1.00
C68    C     0.93863   0.86133   0.65860   0.00000  Uiso   1.00
C69    C     0.80140   0.84590   0.55588   0.00000  Uiso   1.00
H70    H     0.61747   0.83725   0.67702   0.00000  Uiso   1.00
H71    H     0.71631   0.70488   0.78361   0.00000  Uiso   1.00
H72    H     0.60590   0.98362   0.72437   0.00000  Uiso   1.00
H73    H     0.48502   0.81910   0.50808   0.00000  Uiso   1.00
H74    H     0.89709   0.56477   0.92544   0.00000  Uiso   1.00
H75    H     0.66426   0.15251   0.80050   0.00000  Uiso   1.00
H76    H     0.40935   0.80560   0.34440   0.00000  Uiso   1.00
H77    H     0.16589   0.88831   0.85901   0.00000  Uiso   1.00
H78    H     0.29483   0.75873   0.97560   0.00000  Uiso   1.00
H79    H     0.18442   0.03748   0.91636   0.00000  Uiso   1.00
H80    H     0.06354   0.87296   0.70006   0.00000  Uiso   1.00
H81    H     0.36664   0.60848   0.08127   0.00000  Uiso   1.00
H82    H     0.13380   0.19623   0.95632   0.00000  Uiso   1.00
H83    H     0.87890   0.84931   0.50022   0.00000  Uiso   1.00
O84    O     0.20681   0.50049   0.07679   0.00000  Uiso   1.00
O85    O     0.90132   0.27159   0.91285   0.00000  Uiso   1.00
O86    O     0.56690   0.81644   0.31446   0.00000  Uiso   1.00
N87    N     0.98990   0.59283   0.94610   0.00000  Uiso   1.00
N88    N     0.77222   0.14233   0.82930   0.00000  Uiso   1.00
N89    N     0.53390   0.81802   0.40288   0.00000  Uiso   1.00
N90    N     0.24256   0.61635   0.02995   0.00000  Uiso   1.00
N91    N     0.02488   0.16585   0.91315   0.00000  Uiso   1.00
N92    N     0.78656   0.84154   0.48673   0.00000  Uiso   1.00
C93    C     0.74311   0.65106   0.21871   0.00000  Uiso   1.00
C94    C     0.87286   0.71590   0.30186   0.00000  Uiso   1.00
C95    C     0.84123   0.78352   0.32507   0.00000  Uiso   1.00
C96    C     0.97685   0.83564   0.40384   0.00000  Uiso   1.00
C97    C     0.15379   0.93859   0.52483   0.00000  Uiso   1.00
C98    C     0.81288   0.56446   0.26969   0.00000  Uiso   1.00
C99    C     0.73080   0.50474   0.26583   0.00000  Uiso   1.00
C100   C     0.81593   0.42937   0.31751   0.00000  Uiso   1.00
C101   C     0.89970   0.29717   0.38849   0.00000  Uiso   1.00
C102   C     0.74721   0.65385   0.15217   0.00000  Uiso   1.00
C103   C     0.60989   0.66928   0.04950   0.00000  Uiso   1.00
C104   C     0.63972   0.66916   0.00222   0.00000  Uiso   1.00
C105   C     0.62151   0.67576   0.89074   0.00000  Uiso   1.00
C106   C     0.04023   0.62339   0.31731   0.00000  Uiso   1.00
C107   C     0.03425   0.70087   0.35542   0.00000  Uiso   1.00
C108   C     0.16996   0.75291   0.43417   0.00000  Uiso   1.00
C109   C     0.13852   0.82059   0.45749   0.00000  Uiso   1.00
C110   C     0.97426   0.54943   0.32324   0.00000  Uiso   1.00
C111   C     0.05953   0.47413   0.37493   0.00000  Uiso   1.00
C112   C     0.97761   0.41432   0.37116   0.00000  Uiso   1.00
C113   C     0.90859   0.63883   0.20572   0.00000  Uiso   1.00
C114   C     0.93863   0.63867   0.15860   0.00000  Uiso   1.00
C115   C     0.80140   0.65410   0.05588   0.00000  Uiso   1.00
H116   H     0.61747   0.66275   0.17702   0.00000  Uiso   1.00
H117   H     0.71631   0.79512   0.28361   0.00000  Uiso   1.00
H118   H     0.60590   0.51638   0.22437   0.00000  Uiso   1.00
H119   H     0.48502   0.68090   0.00808   0.00000  Uiso   1.00
H120   H     0.89709   0.93523   0.42544   0.00000  Uiso   1.00
H121   H     0.66426   0.34749   0.30050   0.00000  Uiso   1.00
H122   H     0.40935   0.69440   0.84440   0.00000  Uiso   1.00
H123   H     0.16589   0.61169   0.35901   0.00000  Uiso   1.00
H124   H     0.29483   0.74127   0.47560   0.00000  Uiso   1.00
H125   H     0.18442   0.46252   0.41636   0.00000  Uiso   1.00
H126   H     0.06354   0.62704   0.20006   0.00000  Uiso   1.00
H127   H     0.36664   0.89152   0.58127   0.00000  Uiso   1.00
H128   H     0.13380   0.30377   0.45632   0.00000  Uiso   1.00
H129   H     0.87890   0.65069   0.00022   0.00000  Uiso   1.00
O130   O     0.20681   0.99951   0.57679   0.00000  Uiso   1.00
O131   O     0.90132   0.22841   0.41285   0.00000  Uiso   1.00
O132   O     0.56690   0.68356   0.81446   0.00000  Uiso   1.00
N133   N     0.98990   0.90717   0.44610   0.00000  Uiso   1.00
N134   N     0.77222   0.35767   0.32930   0.00000  Uiso   1.00
N135   N     0.53390   0.68198   0.90288   0.00000  Uiso   1.00
N136   N     0.24256   0.88365   0.52995   0.00000  Uiso   1.00
N137   N     0.02488   0.33415   0.41315   0.00000  Uiso   1.00
N138   N     0.78656   0.65846   0.98673   0.00000  Uiso   1.00
C139   C     0.25689   0.15106   0.28129   0.00000  Uiso   1.00
C140   C     0.12714   0.21590   0.19814   0.00000  Uiso   1.00
C141   C     0.15877   0.28352   0.17493   0.00000  Uiso   1.00
C142   C     0.02315   0.33564   0.09616   0.00000  Uiso   1.00
C143   C     0.84621   0.43859   0.97517   0.00000  Uiso   1.00
C144   C     0.18712   0.06446   0.23031   0.00000  Uiso   1.00
C145   C     0.26920   0.00474   0.23417   0.00000  Uiso   1.00
C146   C     0.18407   0.92937   0.18249   0.00000  Uiso   1.00
C147   C     0.10030   0.79717   0.11151   0.00000  Uiso   1.00
C148   C     0.25279   0.15385   0.34783   0.00000  Uiso   1.00
C149   C     0.39011   0.16928   0.45050   0.00000  Uiso   1.00
C150   C     0.36028   0.16916   0.49778   0.00000  Uiso   1.00
C151   C     0.37849   0.17576   0.60926   0.00000  Uiso   1.00
C152   C     0.95977   0.12339   0.18269   0.00000  Uiso   1.00
C153   C     0.96575   0.20087   0.14458   0.00000  Uiso   1.00
C154   C     0.83004   0.25291   0.06583   0.00000  Uiso   1.00
C155   C     0.86148   0.32059   0.04251   0.00000  Uiso   1.00
C156   C     0.02574   0.04943   0.17676   0.00000  Uiso   1.00
C157   C     0.94047   0.97413   0.12507   0.00000  Uiso   1.00
C158   C     0.02239   0.91432   0.12884   0.00000  Uiso   1.00
C159   C     0.09141   0.13883   0.29428   0.00000  Uiso   1.00
C160   C     0.06137   0.13867   0.34140   0.00000  Uiso   1.00
C161   C     0.19860   0.15410   0.44412   0.00000  Uiso   1.00
H162   H     0.38253   0.16275   0.32298   0.00000  Uiso   1.00
H163   H     0.28369   0.29512   0.21639   0.00000  Uiso   1.00
H164   H     0.39410   0.01638   0.27563   0.00000  Uiso   1.00
H165   H     0.51498   0.18090   0.49192   0.00000  Uiso   1.00
H166   H     0.10291   0.43523   0.07456   0.00000  Uiso   1.00
H167   H     0.33574   0.84749   0.19950   0.00000  Uiso   1.00
H168   H     0.59065   0.19440   0.65560   0.00000  Uiso   1.00
H169   H     0.83411   0.11169   0.14099   0.00000  Uiso   1.00
H170   H     0.70517   0.24127   0.02440   0.00000  Uiso   1.00
H171   H     0.81558   0.96252   0.08364   0.00000  Uiso   1.00
H172   H     0.93646   0.12704   0.29994   0.00000  Uiso   1.00
H173   H     0.63336   0.39152   0.91873   0.00000  Uiso   1.00
H174   H     0.86620   0.80377   0.04368   0.00000  Uiso   1.00
H175   H     0.12110   0.15069   0.49978   0.00000  Uiso   1.00
O176   O     0.79319   0.49951   0.92321   0.00000  Uiso   1.00
O177   O     0.09868   0.72841   0.08715   0.00000  Uiso   1.00
O178   O     0.43310   0.18356   0.68554   0.00000  Uiso   1.00
N179   N     0.01010   0.40717   0.05390   0.00000  Uiso   1.00
N180   N     0.22778   0.85767   0.17070   0.00000  Uiso   1.00
N181   N     0.46610   0.18198   0.59712   0.00000  Uiso   1.00
N182   N     0.75744   0.38365   0.97005   0.00000  Uiso   1.00
N183   N     0.97512   0.83415   0.08685   0.00000  Uiso   1.00
N184   N     0.21344   0.15846   0.51327   0.00000  Uiso   1.00
