data_job_05126
_audit_creation_date              2018-12-19
_audit_creation_method            'Materials Studio'
_symmetry_space_group_name_H-M    'P1'
_symmetry_Int_Tables_number       1
_symmetry_cell_setting            triclinic
loop_
_symmetry_equiv_pos_as_xyz
  x,y,z
_cell_length_a                    17.4541
_cell_length_b                    10.7914
_cell_length_c                    28.3244
_cell_angle_alpha                 90.0000
_cell_angle_beta                  90.0000
_cell_angle_gamma                 90.0000
loop_
_atom_site_label
_atom_site_type_symbol
_atom_site_fract_x
_atom_site_fract_y
_atom_site_fract_z
_atom_site_U_iso_or_equiv
_atom_site_adp_type
_atom_site_occupancy
C1     C     0.78686   0.07982   0.10826   0.00000  Uiso   1.00
C2     C     0.71600   0.12954   0.08310   0.00000  Uiso   1.00
C3     C     0.71553   0.22059   0.04850   0.00000  Uiso   1.00
C4     C     0.64479   0.25323   0.02984   0.00000  Uiso   1.00
C5     C     0.54507   0.33906   0.98844   0.00000  Uiso   1.00
C6     C     0.77245   0.09861   0.16088   0.00000  Uiso   1.00
C7     C     0.81943   0.16365   0.19167   0.00000  Uiso   1.00
C8     C     0.79621   0.17023   0.23849   0.00000  Uiso   1.00
C9     C     0.78415   0.20796   0.31785   0.00000  Uiso   1.00
C10    C     0.78663   0.94009   0.10026   0.00000  Uiso   1.00
C11    C     0.84555   0.87182   0.08011   0.00000  Uiso   1.00
C12    C     0.83428   0.74494   0.07591   0.00000  Uiso   1.00
C13    C     0.84424   0.53654   0.06116   0.00000  Uiso   1.00
C14    C     0.66209   0.97586   0.13664   0.00000  Uiso   1.00
C15    C     0.64823   0.07307   0.09852   0.00000  Uiso   1.00
C16    C     0.57748   0.10557   0.07990   0.00000  Uiso   1.00
C17    C     0.57690   0.19666   0.04528   0.00000  Uiso   1.00
C18    C     0.70468   0.04214   0.17629   0.00000  Uiso   1.00
C19    C     0.68139   0.04862   0.22308   0.00000  Uiso   1.00
C20    C     0.72832   0.11366   0.25394   0.00000  Uiso   1.00
C21    C     0.71886   0.88361   0.11568   0.00000  Uiso   1.00
C22    C     0.70750   0.75680   0.11151   0.00000  Uiso   1.00
C23    C     0.76639   0.68837   0.09135   0.00000  Uiso   1.00
H24    H     0.83962   0.12379   0.09626   0.00000  Uiso   1.00
H25    H     0.76798   0.26428   0.03658   0.00000  Uiso   1.00
H26    H     0.87188   0.20732   0.17973   0.00000  Uiso   1.00
H27    H     0.89799   0.91556   0.06818   0.00000  Uiso   1.00
H28    H     0.65867   0.39517   0.97723   0.00000  Uiso   1.00
H29    H     0.87774   0.27505   0.27908   0.00000  Uiso   1.00
H30    H     0.93281   0.65979   0.04385   0.00000  Uiso   1.00
H31    H     0.60933   0.93189   0.14865   0.00000  Uiso   1.00
H32    H     0.52505   0.06185   0.09184   0.00000  Uiso   1.00
H33    H     0.62894   0.00490   0.23499   0.00000  Uiso   1.00
H34    H     0.65505   0.71314   0.12344   0.00000  Uiso   1.00
H35    H     0.46149   0.23088   0.02208   0.00000  Uiso   1.00
H36    H     0.68057   0.11075   0.32393   0.00000  Uiso   1.00
H37    H     0.73563   0.49550   0.08870   0.00000  Uiso   1.00
O38    O     0.50879   0.40201   0.96135   0.00000  Uiso   1.00
O39    O     0.79622   0.24439   0.35736   0.00000  Uiso   1.00
O40    O     0.86846   0.43720   0.04875   0.00000  Uiso   1.00
N41    N     0.62383   0.33865   0.99557   0.00000  Uiso   1.00
N42    N     0.82865   0.22636   0.27778   0.00000  Uiso   1.00
N43    N     0.88013   0.65114   0.05788   0.00000  Uiso   1.00
N44    N     0.51773   0.25025   0.01971   0.00000  Uiso   1.00
N45    N     0.72255   0.13795   0.30192   0.00000  Uiso   1.00
N46    N     0.77404   0.56274   0.08201   0.00000  Uiso   1.00
C47    C     0.70544   0.55490   0.38561   0.00000  Uiso   1.00
C48    C     0.77802   0.50390   0.40843   0.00000  Uiso   1.00
C49    C     0.78101   0.41023   0.44195   0.00000  Uiso   1.00
C50    C     0.85299   0.37679   0.45846   0.00000  Uiso   1.00
C51    C     0.95557   0.28870   0.49637   0.00000  Uiso   1.00
C52    C     0.71645   0.54029   0.33249   0.00000  Uiso   1.00
C53    C     0.66765   0.47724   0.30217   0.00000  Uiso   1.00
C54    C     0.68779   0.47445   0.25476   0.00000  Uiso   1.00
C55    C     0.69474   0.44293   0.17477   0.00000  Uiso   1.00
C56    C     0.70584   0.69397   0.39516   0.00000  Uiso   1.00
C57    C     0.64811   0.76014   0.41751   0.00000  Uiso   1.00
C58    C     0.65931   0.88675   0.42286   0.00000  Uiso   1.00
C59    C     0.64978   0.09383   0.44017   0.00000  Uiso   1.00
C60    C     0.82798   0.66209   0.35533   0.00000  Uiso   1.00
C61    C     0.84458   0.56212   0.39198   0.00000  Uiso   1.00
C62    C     0.91658   0.52882   0.40845   0.00000  Uiso   1.00
C63    C     0.91967   0.43512   0.44199   0.00000  Uiso   1.00
C64    C     0.78300   0.59851   0.31604   0.00000  Uiso   1.00
C65    C     0.80322   0.59583   0.26867   0.00000  Uiso   1.00
C66    C     0.75447   0.53278   0.23828   0.00000  Uiso   1.00
C67    C     0.77239   0.75219   0.37871   0.00000  Uiso   1.00
C68    C     0.78368   0.87872   0.38402   0.00000  Uiso   1.00
C69    C     0.72599   0.94507   0.40638   0.00000  Uiso   1.00
H70    H     0.65363   0.50958   0.39841   0.00000  Uiso   1.00
H71    H     0.72949   0.36519   0.45466   0.00000  Uiso   1.00
H72    H     0.61614   0.43220   0.31490   0.00000  Uiso   1.00
H73    H     0.59661   0.71505   0.43023   0.00000  Uiso   1.00
H74    H     0.84295   0.23076   0.50976   0.00000  Uiso   1.00
H75    H     0.60394   0.37209   0.21507   0.00000  Uiso   1.00
H76    H     0.56275   0.96854   0.45827   0.00000  Uiso   1.00
H77    H     0.87980   0.70742   0.34252   0.00000  Uiso   1.00
H78    H     0.96807   0.57389   0.39571   0.00000  Uiso   1.00
H79    H     0.85473   0.64090   0.25595   0.00000  Uiso   1.00
H80    H     0.83520   0.92375   0.37128   0.00000  Uiso   1.00
H81    H     0.03659   0.40014   0.46192   0.00000  Uiso   1.00
H82    H     0.79758   0.54147   0.16722   0.00000  Uiso   1.00
H83    H     0.75640   0.13792   0.41042   0.00000  Uiso   1.00
O84    O     0.99376   0.22401   0.52182   0.00000  Uiso   1.00
O85    O     0.68019   0.40945   0.13520   0.00000  Uiso   1.00
O86    O     0.62615   0.19197   0.45427   0.00000  Uiso   1.00
N87    N     0.87641   0.28896   0.49121   0.00000  Uiso   1.00
N88    N     0.65296   0.42108   0.21569   0.00000  Uiso   1.00
N89    N     0.61444   0.97871   0.44305   0.00000  Uiso   1.00
N90    N     0.98060   0.38011   0.46546   0.00000  Uiso   1.00
N91    N     0.75715   0.51222   0.18995   0.00000  Uiso   1.00
N92    N     0.71864   0.06986   0.41730   0.00000  Uiso   1.00
C93    C     0.21314   0.92018   0.60826   0.00000  Uiso   1.00
C94    C     0.28400   0.87046   0.58310   0.00000  Uiso   1.00
C95    C     0.28447   0.77941   0.54850   0.00000  Uiso   1.00
C96    C     0.35521   0.74677   0.52984   0.00000  Uiso   1.00
C97    C     0.45493   0.66094   0.48844   0.00000  Uiso   1.00
C98    C     0.22755   0.90139   0.66088   0.00000  Uiso   1.00
C99    C     0.18057   0.83635   0.69167   0.00000  Uiso   1.00
C100   C     0.20379   0.82977   0.73849   0.00000  Uiso   1.00
C101   C     0.21585   0.79204   0.81785   0.00000  Uiso   1.00
C102   C     0.21337   0.05991   0.60026   0.00000  Uiso   1.00
C103   C     0.15445   0.12818   0.58011   0.00000  Uiso   1.00
C104   C     0.16572   0.25506   0.57591   0.00000  Uiso   1.00
C105   C     0.15576   0.46346   0.56116   0.00000  Uiso   1.00
C106   C     0.33791   0.02414   0.63664   0.00000  Uiso   1.00
C107   C     0.35177   0.92693   0.59852   0.00000  Uiso   1.00
C108   C     0.42252   0.89443   0.57990   0.00000  Uiso   1.00
C109   C     0.42310   0.80334   0.54528   0.00000  Uiso   1.00
C110   C     0.29532   0.95786   0.67629   0.00000  Uiso   1.00
C111   C     0.31861   0.95138   0.72308   0.00000  Uiso   1.00
C112   C     0.27168   0.88634   0.75394   0.00000  Uiso   1.00
C113   C     0.28114   0.11639   0.61568   0.00000  Uiso   1.00
C114   C     0.29250   0.24320   0.61151   0.00000  Uiso   1.00
C115   C     0.23361   0.31163   0.59135   0.00000  Uiso   1.00
H116   H     0.16038   0.87621   0.59626   0.00000  Uiso   1.00
H117   H     0.23202   0.73572   0.53658   0.00000  Uiso   1.00
H118   H     0.12812   0.79268   0.67973   0.00000  Uiso   1.00
H119   H     0.10201   0.08444   0.56818   0.00000  Uiso   1.00
H120   H     0.34133   0.60483   0.47723   0.00000  Uiso   1.00
H121   H     0.12226   0.72495   0.77908   0.00000  Uiso   1.00
H122   H     0.06719   0.34021   0.54385   0.00000  Uiso   1.00
H123   H     0.39067   0.06811   0.64865   0.00000  Uiso   1.00
H124   H     0.47495   0.93815   0.59184   0.00000  Uiso   1.00
H125   H     0.37106   0.99510   0.73499   0.00000  Uiso   1.00
H126   H     0.34495   0.28686   0.62344   0.00000  Uiso   1.00
H127   H     0.53851   0.76912   0.52208   0.00000  Uiso   1.00
H128   H     0.31943   0.88925   0.82393   0.00000  Uiso   1.00
H129   H     0.26437   0.50450   0.58870   0.00000  Uiso   1.00
O130   O     0.49121   0.59799   0.46135   0.00000  Uiso   1.00
O131   O     0.20378   0.75561   0.85736   0.00000  Uiso   1.00
O132   O     0.13154   0.56280   0.54875   0.00000  Uiso   1.00
N133   N     0.37617   0.66135   0.49557   0.00000  Uiso   1.00
N134   N     0.17135   0.77364   0.77778   0.00000  Uiso   1.00
N135   N     0.11987   0.34886   0.55788   0.00000  Uiso   1.00
N136   N     0.48227   0.74975   0.51971   0.00000  Uiso   1.00
N137   N     0.27745   0.86205   0.80192   0.00000  Uiso   1.00
N138   N     0.22596   0.43726   0.58201   0.00000  Uiso   1.00
C139   C     0.29456   0.44510   0.88561   0.00000  Uiso   1.00
C140   C     0.22198   0.49610   0.90843   0.00000  Uiso   1.00
C141   C     0.21899   0.58977   0.94195   0.00000  Uiso   1.00
C142   C     0.14701   0.62321   0.95846   0.00000  Uiso   1.00
C143   C     0.04443   0.71130   0.99637   0.00000  Uiso   1.00
C144   C     0.28355   0.45971   0.83249   0.00000  Uiso   1.00
C145   C     0.33235   0.52276   0.80217   0.00000  Uiso   1.00
C146   C     0.31221   0.52555   0.75476   0.00000  Uiso   1.00
C147   C     0.30526   0.55707   0.67477   0.00000  Uiso   1.00
C148   C     0.29416   0.30603   0.89516   0.00000  Uiso   1.00
C149   C     0.35189   0.23986   0.91751   0.00000  Uiso   1.00
C150   C     0.34069   0.11325   0.92286   0.00000  Uiso   1.00
C151   C     0.35022   0.90617   0.94017   0.00000  Uiso   1.00
C152   C     0.17202   0.33791   0.85533   0.00000  Uiso   1.00
C153   C     0.15542   0.43788   0.89198   0.00000  Uiso   1.00
C154   C     0.08342   0.47118   0.90845   0.00000  Uiso   1.00
C155   C     0.08033   0.56488   0.94199   0.00000  Uiso   1.00
C156   C     0.21700   0.40149   0.81604   0.00000  Uiso   1.00
C157   C     0.19678   0.40417   0.76867   0.00000  Uiso   1.00
C158   C     0.24553   0.46722   0.73828   0.00000  Uiso   1.00
C159   C     0.22761   0.24781   0.87871   0.00000  Uiso   1.00
C160   C     0.21632   0.12128   0.88402   0.00000  Uiso   1.00
C161   C     0.27401   0.05493   0.90638   0.00000  Uiso   1.00
H162   H     0.34637   0.49042   0.89841   0.00000  Uiso   1.00
H163   H     0.27051   0.63481   0.95466   0.00000  Uiso   1.00
H164   H     0.38386   0.56780   0.81490   0.00000  Uiso   1.00
H165   H     0.40339   0.28495   0.93023   0.00000  Uiso   1.00
H166   H     0.15705   0.76924   0.00976   0.00000  Uiso   1.00
H167   H     0.39606   0.62791   0.71507   0.00000  Uiso   1.00
H168   H     0.43725   0.03146   0.95827   0.00000  Uiso   1.00
H169   H     0.12020   0.29258   0.84252   0.00000  Uiso   1.00
H170   H     0.03193   0.42611   0.89571   0.00000  Uiso   1.00
H171   H     0.14527   0.35910   0.75595   0.00000  Uiso   1.00
H172   H     0.16480   0.07625   0.87128   0.00000  Uiso   1.00
H173   H     0.96341   0.59986   0.96192   0.00000  Uiso   1.00
H174   H     0.20242   0.45853   0.66722   0.00000  Uiso   1.00
H175   H     0.24360   0.86208   0.91042   0.00000  Uiso   1.00
O176   O     0.00624   0.77599   0.02182   0.00000  Uiso   1.00
O177   O     0.31981   0.59055   0.63520   0.00000  Uiso   1.00
O178   O     0.37385   0.80803   0.95427   0.00000  Uiso   1.00
N179   N     0.12359   0.71104   0.99121   0.00000  Uiso   1.00
N180   N     0.34704   0.57892   0.71569   0.00000  Uiso   1.00
N181   N     0.38556   0.02129   0.94305   0.00000  Uiso   1.00
N182   N     0.01940   0.61989   0.96546   0.00000  Uiso   1.00
N183   N     0.24285   0.48777   0.68995   0.00000  Uiso   1.00
N184   N     0.28136   0.93014   0.91730   0.00000  Uiso   1.00
C185   C     0.21314   0.07982   0.39174   0.00000  Uiso   1.00
C186   C     0.28400   0.12954   0.41690   0.00000  Uiso   1.00
C187   C     0.28447   0.22059   0.45150   0.00000  Uiso   1.00
C188   C     0.35521   0.25323   0.47016   0.00000  Uiso   1.00
C189   C     0.45493   0.33906   0.51156   0.00000  Uiso   1.00
C190   C     0.22755   0.09861   0.33912   0.00000  Uiso   1.00
C191   C     0.18057   0.16365   0.30833   0.00000  Uiso   1.00
C192   C     0.20379   0.17023   0.26151   0.00000  Uiso   1.00
C193   C     0.21585   0.20796   0.18215   0.00000  Uiso   1.00
C194   C     0.21337   0.94009   0.39974   0.00000  Uiso   1.00
C195   C     0.15445   0.87182   0.41989   0.00000  Uiso   1.00
C196   C     0.16572   0.74494   0.42409   0.00000  Uiso   1.00
C197   C     0.15576   0.53654   0.43884   0.00000  Uiso   1.00
C198   C     0.33791   0.97586   0.36336   0.00000  Uiso   1.00
C199   C     0.35177   0.07307   0.40148   0.00000  Uiso   1.00
C200   C     0.42252   0.10557   0.42010   0.00000  Uiso   1.00
C201   C     0.42310   0.19666   0.45472   0.00000  Uiso   1.00
C202   C     0.29532   0.04214   0.32371   0.00000  Uiso   1.00
C203   C     0.31861   0.04862   0.27692   0.00000  Uiso   1.00
C204   C     0.27168   0.11366   0.24606   0.00000  Uiso   1.00
C205   C     0.28114   0.88361   0.38432   0.00000  Uiso   1.00
C206   C     0.29250   0.75680   0.38849   0.00000  Uiso   1.00
C207   C     0.23361   0.68837   0.40865   0.00000  Uiso   1.00
H208   H     0.16038   0.12379   0.40374   0.00000  Uiso   1.00
H209   H     0.23202   0.26428   0.46342   0.00000  Uiso   1.00
H210   H     0.12812   0.20732   0.32027   0.00000  Uiso   1.00
H211   H     0.10201   0.91556   0.43182   0.00000  Uiso   1.00
H212   H     0.34133   0.39517   0.52277   0.00000  Uiso   1.00
H213   H     0.12226   0.27505   0.22092   0.00000  Uiso   1.00
H214   H     0.06719   0.65979   0.45615   0.00000  Uiso   1.00
H215   H     0.39067   0.93189   0.35135   0.00000  Uiso   1.00
H216   H     0.47495   0.06185   0.40816   0.00000  Uiso   1.00
H217   H     0.37106   0.00490   0.26501   0.00000  Uiso   1.00
H218   H     0.34495   0.71314   0.37656   0.00000  Uiso   1.00
H219   H     0.53851   0.23088   0.47792   0.00000  Uiso   1.00
H220   H     0.31943   0.11075   0.17607   0.00000  Uiso   1.00
H221   H     0.26437   0.49550   0.41130   0.00000  Uiso   1.00
O222   O     0.49121   0.40201   0.53865   0.00000  Uiso   1.00
O223   O     0.20378   0.24439   0.14264   0.00000  Uiso   1.00
O224   O     0.13154   0.43720   0.45125   0.00000  Uiso   1.00
N225   N     0.37617   0.33865   0.50443   0.00000  Uiso   1.00
N226   N     0.17135   0.22636   0.22222   0.00000  Uiso   1.00
N227   N     0.11987   0.65114   0.44212   0.00000  Uiso   1.00
N228   N     0.48227   0.25025   0.48029   0.00000  Uiso   1.00
N229   N     0.27745   0.13795   0.19808   0.00000  Uiso   1.00
N230   N     0.22596   0.56274   0.41799   0.00000  Uiso   1.00
C231   C     0.29456   0.55490   0.11439   0.00000  Uiso   1.00
C232   C     0.22198   0.50390   0.09157   0.00000  Uiso   1.00
C233   C     0.21899   0.41023   0.05805   0.00000  Uiso   1.00
C234   C     0.14701   0.37679   0.04154   0.00000  Uiso   1.00
C235   C     0.04443   0.28870   0.00363   0.00000  Uiso   1.00
C236   C     0.28355   0.54029   0.16751   0.00000  Uiso   1.00
C237   C     0.33235   0.47724   0.19783   0.00000  Uiso   1.00
C238   C     0.31221   0.47445   0.24524   0.00000  Uiso   1.00
C239   C     0.30526   0.44293   0.32523   0.00000  Uiso   1.00
C240   C     0.29416   0.69397   0.10484   0.00000  Uiso   1.00
C241   C     0.35189   0.76014   0.08249   0.00000  Uiso   1.00
C242   C     0.34069   0.88675   0.07714   0.00000  Uiso   1.00
C243   C     0.35022   0.09383   0.05983   0.00000  Uiso   1.00
C244   C     0.17202   0.66209   0.14467   0.00000  Uiso   1.00
C245   C     0.15542   0.56212   0.10802   0.00000  Uiso   1.00
C246   C     0.08342   0.52882   0.09155   0.00000  Uiso   1.00
C247   C     0.08033   0.43512   0.05801   0.00000  Uiso   1.00
C248   C     0.21700   0.59851   0.18396   0.00000  Uiso   1.00
C249   C     0.19678   0.59583   0.23133   0.00000  Uiso   1.00
C250   C     0.24553   0.53278   0.26172   0.00000  Uiso   1.00
C251   C     0.22761   0.75219   0.12129   0.00000  Uiso   1.00
C252   C     0.21632   0.87872   0.11598   0.00000  Uiso   1.00
C253   C     0.27401   0.94507   0.09362   0.00000  Uiso   1.00
H254   H     0.34637   0.50958   0.10159   0.00000  Uiso   1.00
H255   H     0.27051   0.36519   0.04534   0.00000  Uiso   1.00
H256   H     0.38386   0.43220   0.18510   0.00000  Uiso   1.00
H257   H     0.40339   0.71505   0.06977   0.00000  Uiso   1.00
H258   H     0.15705   0.23076   0.99024   0.00000  Uiso   1.00
H259   H     0.39606   0.37209   0.28493   0.00000  Uiso   1.00
H260   H     0.43725   0.96854   0.04173   0.00000  Uiso   1.00
H261   H     0.12020   0.70742   0.15748   0.00000  Uiso   1.00
H262   H     0.03193   0.57389   0.10429   0.00000  Uiso   1.00
H263   H     0.14527   0.64090   0.24405   0.00000  Uiso   1.00
H264   H     0.16480   0.92375   0.12872   0.00000  Uiso   1.00
H265   H     0.96341   0.40014   0.03808   0.00000  Uiso   1.00
H266   H     0.20242   0.54147   0.33278   0.00000  Uiso   1.00
H267   H     0.24360   0.13792   0.08958   0.00000  Uiso   1.00
O268   O     0.00624   0.22401   0.97818   0.00000  Uiso   1.00
O269   O     0.31981   0.40945   0.36480   0.00000  Uiso   1.00
O270   O     0.37385   0.19197   0.04573   0.00000  Uiso   1.00
N271   N     0.12359   0.28896   0.00879   0.00000  Uiso   1.00
N272   N     0.34704   0.42108   0.28431   0.00000  Uiso   1.00
N273   N     0.38556   0.97871   0.05695   0.00000  Uiso   1.00
N274   N     0.01940   0.38011   0.03454   0.00000  Uiso   1.00
N275   N     0.24285   0.51222   0.31005   0.00000  Uiso   1.00
N276   N     0.28136   0.06986   0.08270   0.00000  Uiso   1.00
C277   C     0.78686   0.92018   0.89174   0.00000  Uiso   1.00
C278   C     0.71600   0.87046   0.91690   0.00000  Uiso   1.00
C279   C     0.71553   0.77941   0.95150   0.00000  Uiso   1.00
C280   C     0.64479   0.74677   0.97016   0.00000  Uiso   1.00
C281   C     0.54507   0.66094   0.01156   0.00000  Uiso   1.00
C282   C     0.77245   0.90139   0.83912   0.00000  Uiso   1.00
C283   C     0.81943   0.83635   0.80833   0.00000  Uiso   1.00
C284   C     0.79621   0.82977   0.76151   0.00000  Uiso   1.00
C285   C     0.78415   0.79204   0.68215   0.00000  Uiso   1.00
C286   C     0.78663   0.05991   0.89974   0.00000  Uiso   1.00
C287   C     0.84555   0.12818   0.91989   0.00000  Uiso   1.00
C288   C     0.83428   0.25506   0.92409   0.00000  Uiso   1.00
C289   C     0.84424   0.46346   0.93884   0.00000  Uiso   1.00
C290   C     0.66209   0.02414   0.86336   0.00000  Uiso   1.00
C291   C     0.64823   0.92693   0.90148   0.00000  Uiso   1.00
C292   C     0.57748   0.89443   0.92010   0.00000  Uiso   1.00
C293   C     0.57690   0.80334   0.95472   0.00000  Uiso   1.00
C294   C     0.70468   0.95786   0.82371   0.00000  Uiso   1.00
C295   C     0.68139   0.95138   0.77692   0.00000  Uiso   1.00
C296   C     0.72832   0.88634   0.74606   0.00000  Uiso   1.00
C297   C     0.71886   0.11639   0.88432   0.00000  Uiso   1.00
C298   C     0.70750   0.24320   0.88849   0.00000  Uiso   1.00
C299   C     0.76639   0.31163   0.90865   0.00000  Uiso   1.00
H300   H     0.83962   0.87621   0.90374   0.00000  Uiso   1.00
H301   H     0.76798   0.73572   0.96342   0.00000  Uiso   1.00
H302   H     0.87188   0.79268   0.82027   0.00000  Uiso   1.00
H303   H     0.89799   0.08444   0.93182   0.00000  Uiso   1.00
H304   H     0.65867   0.60483   0.02277   0.00000  Uiso   1.00
H305   H     0.87774   0.72495   0.72092   0.00000  Uiso   1.00
H306   H     0.93281   0.34021   0.95615   0.00000  Uiso   1.00
H307   H     0.60933   0.06811   0.85135   0.00000  Uiso   1.00
H308   H     0.52505   0.93815   0.90816   0.00000  Uiso   1.00
H309   H     0.62894   0.99510   0.76501   0.00000  Uiso   1.00
H310   H     0.65505   0.28686   0.87656   0.00000  Uiso   1.00
H311   H     0.46149   0.76912   0.97792   0.00000  Uiso   1.00
H312   H     0.68057   0.88925   0.67607   0.00000  Uiso   1.00
H313   H     0.73563   0.50450   0.91130   0.00000  Uiso   1.00
O314   O     0.50879   0.59799   0.03865   0.00000  Uiso   1.00
O315   O     0.79622   0.75561   0.64264   0.00000  Uiso   1.00
O316   O     0.86846   0.56280   0.95125   0.00000  Uiso   1.00
N317   N     0.62383   0.66135   0.00443   0.00000  Uiso   1.00
N318   N     0.82865   0.77364   0.72222   0.00000  Uiso   1.00
N319   N     0.88013   0.34886   0.94212   0.00000  Uiso   1.00
N320   N     0.51773   0.74975   0.98029   0.00000  Uiso   1.00
N321   N     0.72255   0.86205   0.69808   0.00000  Uiso   1.00
N322   N     0.77404   0.43726   0.91799   0.00000  Uiso   1.00
C323   C     0.70544   0.44510   0.61439   0.00000  Uiso   1.00
C324   C     0.77802   0.49610   0.59157   0.00000  Uiso   1.00
C325   C     0.78101   0.58977   0.55805   0.00000  Uiso   1.00
C326   C     0.85299   0.62321   0.54154   0.00000  Uiso   1.00
C327   C     0.95557   0.71130   0.50363   0.00000  Uiso   1.00
C328   C     0.71645   0.45971   0.66751   0.00000  Uiso   1.00
C329   C     0.66765   0.52276   0.69783   0.00000  Uiso   1.00
C330   C     0.68779   0.52555   0.74524   0.00000  Uiso   1.00
C331   C     0.69474   0.55707   0.82523   0.00000  Uiso   1.00
C332   C     0.70584   0.30603   0.60484   0.00000  Uiso   1.00
C333   C     0.64811   0.23986   0.58249   0.00000  Uiso   1.00
C334   C     0.65931   0.11325   0.57714   0.00000  Uiso   1.00
C335   C     0.64978   0.90617   0.55983   0.00000  Uiso   1.00
C336   C     0.82798   0.33791   0.64467   0.00000  Uiso   1.00
C337   C     0.84458   0.43788   0.60802   0.00000  Uiso   1.00
C338   C     0.91658   0.47118   0.59155   0.00000  Uiso   1.00
C339   C     0.91967   0.56488   0.55801   0.00000  Uiso   1.00
C340   C     0.78300   0.40149   0.68396   0.00000  Uiso   1.00
C341   C     0.80322   0.40417   0.73133   0.00000  Uiso   1.00
C342   C     0.75447   0.46722   0.76172   0.00000  Uiso   1.00
C343   C     0.77239   0.24781   0.62129   0.00000  Uiso   1.00
C344   C     0.78368   0.12128   0.61598   0.00000  Uiso   1.00
C345   C     0.72599   0.05493   0.59362   0.00000  Uiso   1.00
H346   H     0.65363   0.49042   0.60159   0.00000  Uiso   1.00
H347   H     0.72949   0.63481   0.54534   0.00000  Uiso   1.00
H348   H     0.61614   0.56780   0.68510   0.00000  Uiso   1.00
H349   H     0.59661   0.28495   0.56977   0.00000  Uiso   1.00
H350   H     0.84295   0.76924   0.49024   0.00000  Uiso   1.00
H351   H     0.60394   0.62791   0.78493   0.00000  Uiso   1.00
H352   H     0.56275   0.03146   0.54173   0.00000  Uiso   1.00
H353   H     0.87980   0.29258   0.65748   0.00000  Uiso   1.00
H354   H     0.96807   0.42611   0.60429   0.00000  Uiso   1.00
H355   H     0.85473   0.35910   0.74405   0.00000  Uiso   1.00
H356   H     0.83520   0.07625   0.62872   0.00000  Uiso   1.00
H357   H     0.03659   0.59986   0.53808   0.00000  Uiso   1.00
H358   H     0.79758   0.45853   0.83278   0.00000  Uiso   1.00
H359   H     0.75640   0.86208   0.58958   0.00000  Uiso   1.00
O360   O     0.99376   0.77599   0.47818   0.00000  Uiso   1.00
O361   O     0.68019   0.59055   0.86480   0.00000  Uiso   1.00
O362   O     0.62615   0.80803   0.54573   0.00000  Uiso   1.00
N363   N     0.87641   0.71104   0.50879   0.00000  Uiso   1.00
N364   N     0.65296   0.57892   0.78431   0.00000  Uiso   1.00
N365   N     0.61444   0.02129   0.55695   0.00000  Uiso   1.00
N366   N     0.98060   0.61989   0.53454   0.00000  Uiso   1.00
N367   N     0.75715   0.48777   0.81005   0.00000  Uiso   1.00
N368   N     0.71864   0.93014   0.58270   0.00000  Uiso   1.00
