data_job_05606
_audit_creation_date              2018-12-19
_audit_creation_method            'Materials Studio'
_symmetry_space_group_name_H-M    'P1'
_symmetry_Int_Tables_number       1
_symmetry_cell_setting            triclinic
loop_
_symmetry_equiv_pos_as_xyz
  x,y,z
_cell_length_a                    16.3028
_cell_length_b                    12.6109
_cell_length_c                    28.9399
_cell_angle_alpha                 90.0000
_cell_angle_beta                  80.3523
_cell_angle_gamma                 90.0000
loop_
_atom_site_label
_atom_site_type_symbol
_atom_site_fract_x
_atom_site_fract_y
_atom_site_fract_z
_atom_site_U_iso_or_equiv
_atom_site_adp_type
_atom_site_occupancy
C1     C     0.44164   0.07617   0.17054   0.00000  Uiso   1.00
C2     C     0.44097   0.99012   0.13358   0.00000  Uiso   1.00
C3     C     0.47942   0.89188   0.13324   0.00000  Uiso   1.00
C4     C     0.47156   0.82429   0.09636   0.00000  Uiso   1.00
C5     C     0.47736   0.68618   0.04433   0.00000  Uiso   1.00
C6     C     0.47688   0.17508   0.14407   0.00000  Uiso   1.00
C7     C     0.54552   0.23236   0.15255   0.00000  Uiso   1.00
C8     C     0.56788   0.32050   0.12450   0.00000  Uiso   1.00
C9     C     0.62939   0.46959   0.08877   0.00000  Uiso   1.00
C10    C     0.35065   0.10078   0.18950   0.00000  Uiso   1.00
C11    C     0.31314   0.09561   0.23618   0.00000  Uiso   1.00
C12    C     0.22922   0.12121   0.24638   0.00000  Uiso   1.00
C13    C     0.09474   0.15493   0.28119   0.00000  Uiso   1.00
C14    C     0.35930   0.13084   0.10566   0.00000  Uiso   1.00
C15    C     0.39625   0.01982   0.09834   0.00000  Uiso   1.00
C16    C     0.38832   0.95237   0.06146   0.00000  Uiso   1.00
C17    C     0.42675   0.85404   0.06106   0.00000  Uiso   1.00
C18    C     0.43216   0.20478   0.10883   0.00000  Uiso   1.00
C19    C     0.45442   0.29285   0.08077   0.00000  Uiso   1.00
C20    C     0.52307   0.35025   0.08920   0.00000  Uiso   1.00
C21    C     0.30592   0.13047   0.15426   0.00000  Uiso   1.00
C22    C     0.22204   0.15609   0.16440   0.00000  Uiso   1.00
C23    C     0.18442   0.15096   0.21108   0.00000  Uiso   1.00
H24    H     0.47646   0.05305   0.19797   0.00000  Uiso   1.00
H25    H     0.51404   0.86893   0.16052   0.00000  Uiso   1.00
H26    H     0.58011   0.20937   0.17982   0.00000  Uiso   1.00
H27    H     0.34777   0.07262   0.26344   0.00000  Uiso   1.00
H28    H     0.53599   0.67790   0.10344   0.00000  Uiso   1.00
H29    H     0.67530   0.39576   0.14416   0.00000  Uiso   1.00
H30    H     0.18537   0.10742   0.32048   0.00000  Uiso   1.00
H31    H     0.32448   0.15397   0.07822   0.00000  Uiso   1.00
H32    H     0.35371   0.97537   0.03419   0.00000  Uiso   1.00
H33    H     0.41979   0.31582   0.05350   0.00000  Uiso   1.00
H34    H     0.18745   0.17907   0.13712   0.00000  Uiso   1.00
H35    H     0.40587   0.76430   0.00091   0.00000  Uiso   1.00
H36    H     0.54518   0.48216   0.04163   0.00000  Uiso   1.00
H37    H     0.05525   0.19381   0.21795   0.00000  Uiso   1.00
O38    O     0.49292   0.60180   0.02536   0.00000  Uiso   1.00
O39    O     0.67569   0.54362   0.07880   0.00000  Uiso   1.00
O40    O     0.03291   0.16531   0.31012   0.00000  Uiso   1.00
N41    N     0.50134   0.72273   0.08535   0.00000  Uiso   1.00
N42    N     0.63160   0.39388   0.12342   0.00000  Uiso   1.00
N43    N     0.17356   0.12433   0.28827   0.00000  Uiso   1.00
N44    N     0.43132   0.76922   0.03018   0.00000  Uiso   1.00
N45    N     0.56158   0.44037   0.06825   0.00000  Uiso   1.00
N46    N     0.10354   0.17082   0.23310   0.00000  Uiso   1.00
C47    C     0.94164   0.57617   0.17054   0.00000  Uiso   1.00
C48    C     0.94097   0.49012   0.13358   0.00000  Uiso   1.00
C49    C     0.97942   0.39188   0.13324   0.00000  Uiso   1.00
C50    C     0.97156   0.32429   0.09636   0.00000  Uiso   1.00
C51    C     0.97736   0.18618   0.04433   0.00000  Uiso   1.00
C52    C     0.97688   0.67508   0.14407   0.00000  Uiso   1.00
C53    C     0.04552   0.73236   0.15255   0.00000  Uiso   1.00
C54    C     0.06788   0.82050   0.12450   0.00000  Uiso   1.00
C55    C     0.12939   0.96959   0.08877   0.00000  Uiso   1.00
C56    C     0.85065   0.60078   0.18950   0.00000  Uiso   1.00
C57    C     0.81314   0.59561   0.23618   0.00000  Uiso   1.00
C58    C     0.72922   0.62121   0.24638   0.00000  Uiso   1.00
C59    C     0.59474   0.65493   0.28119   0.00000  Uiso   1.00
C60    C     0.85930   0.63084   0.10566   0.00000  Uiso   1.00
C61    C     0.89625   0.51982   0.09834   0.00000  Uiso   1.00
C62    C     0.88832   0.45237   0.06146   0.00000  Uiso   1.00
C63    C     0.92675   0.35404   0.06106   0.00000  Uiso   1.00
C64    C     0.93216   0.70478   0.10883   0.00000  Uiso   1.00
C65    C     0.95442   0.79285   0.08077   0.00000  Uiso   1.00
C66    C     0.02307   0.85025   0.08920   0.00000  Uiso   1.00
C67    C     0.80592   0.63047   0.15426   0.00000  Uiso   1.00
C68    C     0.72204   0.65609   0.16440   0.00000  Uiso   1.00
C69    C     0.68442   0.65096   0.21108   0.00000  Uiso   1.00
H70    H     0.97646   0.55305   0.19797   0.00000  Uiso   1.00
H71    H     0.01404   0.36893   0.16052   0.00000  Uiso   1.00
H72    H     0.08011   0.70937   0.17982   0.00000  Uiso   1.00
H73    H     0.84777   0.57262   0.26344   0.00000  Uiso   1.00
H74    H     0.03599   0.17790   0.10344   0.00000  Uiso   1.00
H75    H     0.17530   0.89576   0.14416   0.00000  Uiso   1.00
H76    H     0.68537   0.60742   0.32048   0.00000  Uiso   1.00
H77    H     0.82448   0.65397   0.07822   0.00000  Uiso   1.00
H78    H     0.85371   0.47537   0.03419   0.00000  Uiso   1.00
H79    H     0.91979   0.81582   0.05350   0.00000  Uiso   1.00
H80    H     0.68745   0.67907   0.13712   0.00000  Uiso   1.00
H81    H     0.90587   0.26430   0.00091   0.00000  Uiso   1.00
H82    H     0.04518   0.98216   0.04163   0.00000  Uiso   1.00
H83    H     0.55525   0.69381   0.21795   0.00000  Uiso   1.00
O84    O     0.99292   0.10180   0.02536   0.00000  Uiso   1.00
O85    O     0.17569   0.04362   0.07880   0.00000  Uiso   1.00
O86    O     0.53291   0.66531   0.31012   0.00000  Uiso   1.00
N87    N     0.00134   0.22273   0.08535   0.00000  Uiso   1.00
N88    N     0.13160   0.89388   0.12342   0.00000  Uiso   1.00
N89    N     0.67356   0.62433   0.28827   0.00000  Uiso   1.00
N90    N     0.93132   0.26922   0.03018   0.00000  Uiso   1.00
N91    N     0.06158   0.94037   0.06825   0.00000  Uiso   1.00
N92    N     0.60354   0.67082   0.23310   0.00000  Uiso   1.00
C93    C     0.55836   0.07617   0.32946   0.00000  Uiso   1.00
C94    C     0.55903   0.99012   0.36642   0.00000  Uiso   1.00
C95    C     0.52058   0.89188   0.36676   0.00000  Uiso   1.00
C96    C     0.52844   0.82429   0.40364   0.00000  Uiso   1.00
C97    C     0.52264   0.68618   0.45567   0.00000  Uiso   1.00
C98    C     0.52312   0.17508   0.35593   0.00000  Uiso   1.00
C99    C     0.45448   0.23236   0.34745   0.00000  Uiso   1.00
C100   C     0.43212   0.32050   0.37550   0.00000  Uiso   1.00
C101   C     0.37061   0.46959   0.41123   0.00000  Uiso   1.00
C102   C     0.64935   0.10078   0.31050   0.00000  Uiso   1.00
C103   C     0.68686   0.09561   0.26382   0.00000  Uiso   1.00
C104   C     0.77078   0.12121   0.25362   0.00000  Uiso   1.00
C105   C     0.90526   0.15493   0.21881   0.00000  Uiso   1.00
C106   C     0.64070   0.13084   0.39434   0.00000  Uiso   1.00
C107   C     0.60375   0.01982   0.40166   0.00000  Uiso   1.00
C108   C     0.61168   0.95237   0.43854   0.00000  Uiso   1.00
C109   C     0.57325   0.85404   0.43894   0.00000  Uiso   1.00
C110   C     0.56784   0.20478   0.39117   0.00000  Uiso   1.00
C111   C     0.54558   0.29285   0.41923   0.00000  Uiso   1.00
C112   C     0.47693   0.35025   0.41080   0.00000  Uiso   1.00
C113   C     0.69408   0.13047   0.34574   0.00000  Uiso   1.00
C114   C     0.77796   0.15609   0.33560   0.00000  Uiso   1.00
C115   C     0.81558   0.15096   0.28892   0.00000  Uiso   1.00
H116   H     0.52354   0.05305   0.30203   0.00000  Uiso   1.00
H117   H     0.48596   0.86893   0.33948   0.00000  Uiso   1.00
H118   H     0.41989   0.20937   0.32018   0.00000  Uiso   1.00
H119   H     0.65223   0.07262   0.23656   0.00000  Uiso   1.00
H120   H     0.46401   0.67790   0.39656   0.00000  Uiso   1.00
H121   H     0.32470   0.39576   0.35584   0.00000  Uiso   1.00
H122   H     0.81463   0.10742   0.17952   0.00000  Uiso   1.00
H123   H     0.67552   0.15397   0.42178   0.00000  Uiso   1.00
H124   H     0.64629   0.97537   0.46581   0.00000  Uiso   1.00
H125   H     0.58021   0.31582   0.44650   0.00000  Uiso   1.00
H126   H     0.81255   0.17907   0.36288   0.00000  Uiso   1.00
H127   H     0.59413   0.76430   0.49909   0.00000  Uiso   1.00
H128   H     0.45482   0.48216   0.45837   0.00000  Uiso   1.00
H129   H     0.94475   0.19381   0.28205   0.00000  Uiso   1.00
O130   O     0.50708   0.60180   0.47464   0.00000  Uiso   1.00
O131   O     0.32431   0.54362   0.42120   0.00000  Uiso   1.00
O132   O     0.96709   0.16531   0.18988   0.00000  Uiso   1.00
N133   N     0.49866   0.72273   0.41465   0.00000  Uiso   1.00
N134   N     0.36840   0.39388   0.37658   0.00000  Uiso   1.00
N135   N     0.82644   0.12433   0.21173   0.00000  Uiso   1.00
N136   N     0.56868   0.76922   0.46982   0.00000  Uiso   1.00
N137   N     0.43842   0.44037   0.43175   0.00000  Uiso   1.00
N138   N     0.89646   0.17082   0.26690   0.00000  Uiso   1.00
C139   C     0.05836   0.57617   0.32946   0.00000  Uiso   1.00
C140   C     0.05903   0.49012   0.36642   0.00000  Uiso   1.00
C141   C     0.02058   0.39188   0.36676   0.00000  Uiso   1.00
C142   C     0.02844   0.32429   0.40364   0.00000  Uiso   1.00
C143   C     0.02264   0.18618   0.45567   0.00000  Uiso   1.00
C144   C     0.02312   0.67508   0.35593   0.00000  Uiso   1.00
C145   C     0.95448   0.73236   0.34745   0.00000  Uiso   1.00
C146   C     0.93212   0.82050   0.37550   0.00000  Uiso   1.00
C147   C     0.87061   0.96959   0.41123   0.00000  Uiso   1.00
C148   C     0.14935   0.60078   0.31050   0.00000  Uiso   1.00
C149   C     0.18686   0.59561   0.26382   0.00000  Uiso   1.00
C150   C     0.27078   0.62121   0.25362   0.00000  Uiso   1.00
C151   C     0.40526   0.65493   0.21881   0.00000  Uiso   1.00
C152   C     0.14070   0.63084   0.39434   0.00000  Uiso   1.00
C153   C     0.10375   0.51982   0.40166   0.00000  Uiso   1.00
C154   C     0.11168   0.45237   0.43854   0.00000  Uiso   1.00
C155   C     0.07325   0.35404   0.43894   0.00000  Uiso   1.00
C156   C     0.06784   0.70478   0.39117   0.00000  Uiso   1.00
C157   C     0.04558   0.79285   0.41923   0.00000  Uiso   1.00
C158   C     0.97693   0.85025   0.41080   0.00000  Uiso   1.00
C159   C     0.19408   0.63047   0.34574   0.00000  Uiso   1.00
C160   C     0.27796   0.65609   0.33560   0.00000  Uiso   1.00
C161   C     0.31558   0.65096   0.28892   0.00000  Uiso   1.00
H162   H     0.02354   0.55305   0.30203   0.00000  Uiso   1.00
H163   H     0.98596   0.36893   0.33948   0.00000  Uiso   1.00
H164   H     0.91989   0.70937   0.32018   0.00000  Uiso   1.00
H165   H     0.15223   0.57262   0.23656   0.00000  Uiso   1.00
H166   H     0.96401   0.17790   0.39656   0.00000  Uiso   1.00
H167   H     0.82470   0.89576   0.35584   0.00000  Uiso   1.00
H168   H     0.31463   0.60742   0.17952   0.00000  Uiso   1.00
H169   H     0.17552   0.65397   0.42178   0.00000  Uiso   1.00
H170   H     0.14629   0.47537   0.46581   0.00000  Uiso   1.00
H171   H     0.08021   0.81582   0.44650   0.00000  Uiso   1.00
H172   H     0.31255   0.67907   0.36288   0.00000  Uiso   1.00
H173   H     0.09413   0.26430   0.49909   0.00000  Uiso   1.00
H174   H     0.95482   0.98216   0.45837   0.00000  Uiso   1.00
H175   H     0.44475   0.69381   0.28205   0.00000  Uiso   1.00
O176   O     0.00708   0.10180   0.47464   0.00000  Uiso   1.00
O177   O     0.82431   0.04362   0.42120   0.00000  Uiso   1.00
O178   O     0.46709   0.66531   0.18988   0.00000  Uiso   1.00
N179   N     0.99866   0.22273   0.41465   0.00000  Uiso   1.00
N180   N     0.86840   0.89388   0.37658   0.00000  Uiso   1.00
N181   N     0.32644   0.62433   0.21173   0.00000  Uiso   1.00
N182   N     0.06868   0.26922   0.46982   0.00000  Uiso   1.00
N183   N     0.93842   0.94037   0.43175   0.00000  Uiso   1.00
N184   N     0.39646   0.67082   0.26690   0.00000  Uiso   1.00
C185   C     0.55836   0.92383   0.82946   0.00000  Uiso   1.00
C186   C     0.55903   0.00988   0.86642   0.00000  Uiso   1.00
C187   C     0.52058   0.10812   0.86676   0.00000  Uiso   1.00
C188   C     0.52844   0.17571   0.90364   0.00000  Uiso   1.00
C189   C     0.52264   0.31382   0.95567   0.00000  Uiso   1.00
C190   C     0.52312   0.82492   0.85593   0.00000  Uiso   1.00
C191   C     0.45448   0.76764   0.84745   0.00000  Uiso   1.00
C192   C     0.43212   0.67950   0.87550   0.00000  Uiso   1.00
C193   C     0.37061   0.53041   0.91123   0.00000  Uiso   1.00
C194   C     0.64935   0.89922   0.81050   0.00000  Uiso   1.00
C195   C     0.68686   0.90439   0.76382   0.00000  Uiso   1.00
C196   C     0.77078   0.87879   0.75362   0.00000  Uiso   1.00
C197   C     0.90526   0.84507   0.71881   0.00000  Uiso   1.00
C198   C     0.64070   0.86916   0.89434   0.00000  Uiso   1.00
C199   C     0.60375   0.98018   0.90166   0.00000  Uiso   1.00
C200   C     0.61168   0.04763   0.93854   0.00000  Uiso   1.00
C201   C     0.57325   0.14596   0.93894   0.00000  Uiso   1.00
C202   C     0.56784   0.79522   0.89117   0.00000  Uiso   1.00
C203   C     0.54558   0.70715   0.91923   0.00000  Uiso   1.00
C204   C     0.47693   0.64975   0.91080   0.00000  Uiso   1.00
C205   C     0.69408   0.86953   0.84574   0.00000  Uiso   1.00
C206   C     0.77796   0.84391   0.83560   0.00000  Uiso   1.00
C207   C     0.81558   0.84904   0.78892   0.00000  Uiso   1.00
H208   H     0.52354   0.94695   0.80203   0.00000  Uiso   1.00
H209   H     0.48596   0.13107   0.83948   0.00000  Uiso   1.00
H210   H     0.41989   0.79063   0.82018   0.00000  Uiso   1.00
H211   H     0.65223   0.92738   0.73656   0.00000  Uiso   1.00
H212   H     0.46401   0.32210   0.89656   0.00000  Uiso   1.00
H213   H     0.32470   0.60424   0.85584   0.00000  Uiso   1.00
H214   H     0.81463   0.89258   0.67952   0.00000  Uiso   1.00
H215   H     0.67552   0.84603   0.92178   0.00000  Uiso   1.00
H216   H     0.64629   0.02463   0.96581   0.00000  Uiso   1.00
H217   H     0.58021   0.68418   0.94650   0.00000  Uiso   1.00
H218   H     0.81255   0.82093   0.86288   0.00000  Uiso   1.00
H219   H     0.59413   0.23570   0.99909   0.00000  Uiso   1.00
H220   H     0.45482   0.51784   0.95837   0.00000  Uiso   1.00
H221   H     0.94475   0.80619   0.78205   0.00000  Uiso   1.00
O222   O     0.50708   0.39820   0.97464   0.00000  Uiso   1.00
O223   O     0.32431   0.45638   0.92120   0.00000  Uiso   1.00
O224   O     0.96709   0.83469   0.68988   0.00000  Uiso   1.00
N225   N     0.49866   0.27727   0.91465   0.00000  Uiso   1.00
N226   N     0.36840   0.60612   0.87658   0.00000  Uiso   1.00
N227   N     0.82644   0.87567   0.71173   0.00000  Uiso   1.00
N228   N     0.56868   0.23078   0.96982   0.00000  Uiso   1.00
N229   N     0.43842   0.55963   0.93175   0.00000  Uiso   1.00
N230   N     0.89646   0.82918   0.76690   0.00000  Uiso   1.00
C231   C     0.05836   0.42383   0.82946   0.00000  Uiso   1.00
C232   C     0.05903   0.50988   0.86642   0.00000  Uiso   1.00
C233   C     0.02058   0.60812   0.86676   0.00000  Uiso   1.00
C234   C     0.02844   0.67571   0.90364   0.00000  Uiso   1.00
C235   C     0.02264   0.81382   0.95567   0.00000  Uiso   1.00
C236   C     0.02312   0.32492   0.85593   0.00000  Uiso   1.00
C237   C     0.95448   0.26764   0.84745   0.00000  Uiso   1.00
C238   C     0.93212   0.17950   0.87550   0.00000  Uiso   1.00
C239   C     0.87061   0.03041   0.91123   0.00000  Uiso   1.00
C240   C     0.14935   0.39922   0.81050   0.00000  Uiso   1.00
C241   C     0.18686   0.40439   0.76382   0.00000  Uiso   1.00
C242   C     0.27078   0.37879   0.75362   0.00000  Uiso   1.00
C243   C     0.40526   0.34507   0.71881   0.00000  Uiso   1.00
C244   C     0.14070   0.36916   0.89434   0.00000  Uiso   1.00
C245   C     0.10375   0.48018   0.90166   0.00000  Uiso   1.00
C246   C     0.11168   0.54763   0.93854   0.00000  Uiso   1.00
C247   C     0.07325   0.64596   0.93894   0.00000  Uiso   1.00
C248   C     0.06784   0.29522   0.89117   0.00000  Uiso   1.00
C249   C     0.04558   0.20715   0.91923   0.00000  Uiso   1.00
C250   C     0.97693   0.14975   0.91080   0.00000  Uiso   1.00
C251   C     0.19408   0.36953   0.84574   0.00000  Uiso   1.00
C252   C     0.27796   0.34391   0.83560   0.00000  Uiso   1.00
C253   C     0.31558   0.34904   0.78892   0.00000  Uiso   1.00
H254   H     0.02354   0.44695   0.80203   0.00000  Uiso   1.00
H255   H     0.98596   0.63107   0.83948   0.00000  Uiso   1.00
H256   H     0.91989   0.29063   0.82018   0.00000  Uiso   1.00
H257   H     0.15223   0.42738   0.73656   0.00000  Uiso   1.00
H258   H     0.96401   0.82210   0.89656   0.00000  Uiso   1.00
H259   H     0.82470   0.10424   0.85584   0.00000  Uiso   1.00
H260   H     0.31463   0.39258   0.67952   0.00000  Uiso   1.00
H261   H     0.17552   0.34603   0.92178   0.00000  Uiso   1.00
H262   H     0.14629   0.52463   0.96581   0.00000  Uiso   1.00
H263   H     0.08021   0.18418   0.94650   0.00000  Uiso   1.00
H264   H     0.31255   0.32093   0.86288   0.00000  Uiso   1.00
H265   H     0.09413   0.73570   0.99909   0.00000  Uiso   1.00
H266   H     0.95482   0.01784   0.95837   0.00000  Uiso   1.00
H267   H     0.44475   0.30619   0.78205   0.00000  Uiso   1.00
O268   O     0.00708   0.89820   0.97464   0.00000  Uiso   1.00
O269   O     0.82431   0.95638   0.92120   0.00000  Uiso   1.00
O270   O     0.46709   0.33469   0.68988   0.00000  Uiso   1.00
N271   N     0.99866   0.77727   0.91465   0.00000  Uiso   1.00
N272   N     0.86840   0.10612   0.87658   0.00000  Uiso   1.00
N273   N     0.32644   0.37567   0.71173   0.00000  Uiso   1.00
N274   N     0.06868   0.73078   0.96982   0.00000  Uiso   1.00
N275   N     0.93842   0.05963   0.93175   0.00000  Uiso   1.00
N276   N     0.39646   0.32918   0.76690   0.00000  Uiso   1.00
C277   C     0.44164   0.92383   0.67054   0.00000  Uiso   1.00
C278   C     0.44097   0.00988   0.63358   0.00000  Uiso   1.00
C279   C     0.47942   0.10812   0.63324   0.00000  Uiso   1.00
C280   C     0.47156   0.17571   0.59636   0.00000  Uiso   1.00
C281   C     0.47736   0.31382   0.54433   0.00000  Uiso   1.00
C282   C     0.47688   0.82492   0.64407   0.00000  Uiso   1.00
C283   C     0.54552   0.76764   0.65255   0.00000  Uiso   1.00
C284   C     0.56788   0.67950   0.62450   0.00000  Uiso   1.00
C285   C     0.62939   0.53041   0.58877   0.00000  Uiso   1.00
C286   C     0.35065   0.89922   0.68950   0.00000  Uiso   1.00
C287   C     0.31314   0.90439   0.73618   0.00000  Uiso   1.00
C288   C     0.22922   0.87879   0.74638   0.00000  Uiso   1.00
C289   C     0.09474   0.84507   0.78119   0.00000  Uiso   1.00
C290   C     0.35930   0.86916   0.60566   0.00000  Uiso   1.00
C291   C     0.39625   0.98018   0.59834   0.00000  Uiso   1.00
C292   C     0.38832   0.04763   0.56146   0.00000  Uiso   1.00
C293   C     0.42675   0.14596   0.56106   0.00000  Uiso   1.00
C294   C     0.43216   0.79522   0.60883   0.00000  Uiso   1.00
C295   C     0.45442   0.70715   0.58077   0.00000  Uiso   1.00
C296   C     0.52307   0.64975   0.58920   0.00000  Uiso   1.00
C297   C     0.30592   0.86953   0.65426   0.00000  Uiso   1.00
C298   C     0.22204   0.84391   0.66440   0.00000  Uiso   1.00
C299   C     0.18442   0.84904   0.71108   0.00000  Uiso   1.00
H300   H     0.47646   0.94695   0.69797   0.00000  Uiso   1.00
H301   H     0.51404   0.13107   0.66052   0.00000  Uiso   1.00
H302   H     0.58011   0.79063   0.67982   0.00000  Uiso   1.00
H303   H     0.34777   0.92738   0.76344   0.00000  Uiso   1.00
H304   H     0.53599   0.32210   0.60344   0.00000  Uiso   1.00
H305   H     0.67530   0.60424   0.64416   0.00000  Uiso   1.00
H306   H     0.18537   0.89258   0.82048   0.00000  Uiso   1.00
H307   H     0.32448   0.84603   0.57822   0.00000  Uiso   1.00
H308   H     0.35371   0.02463   0.53419   0.00000  Uiso   1.00
H309   H     0.41979   0.68418   0.55350   0.00000  Uiso   1.00
H310   H     0.18745   0.82093   0.63712   0.00000  Uiso   1.00
H311   H     0.40587   0.23570   0.50091   0.00000  Uiso   1.00
H312   H     0.54518   0.51784   0.54163   0.00000  Uiso   1.00
H313   H     0.05525   0.80619   0.71795   0.00000  Uiso   1.00
O314   O     0.49292   0.39820   0.52536   0.00000  Uiso   1.00
O315   O     0.67569   0.45638   0.57880   0.00000  Uiso   1.00
O316   O     0.03291   0.83469   0.81012   0.00000  Uiso   1.00
N317   N     0.50134   0.27727   0.58535   0.00000  Uiso   1.00
N318   N     0.63160   0.60612   0.62342   0.00000  Uiso   1.00
N319   N     0.17356   0.87567   0.78827   0.00000  Uiso   1.00
N320   N     0.43132   0.23078   0.53018   0.00000  Uiso   1.00
N321   N     0.56158   0.55963   0.56825   0.00000  Uiso   1.00
N322   N     0.10354   0.82918   0.73310   0.00000  Uiso   1.00
C323   C     0.94164   0.42383   0.67054   0.00000  Uiso   1.00
C324   C     0.94097   0.50988   0.63358   0.00000  Uiso   1.00
C325   C     0.97942   0.60812   0.63324   0.00000  Uiso   1.00
C326   C     0.97156   0.67571   0.59636   0.00000  Uiso   1.00
C327   C     0.97736   0.81382   0.54433   0.00000  Uiso   1.00
C328   C     0.97688   0.32492   0.64407   0.00000  Uiso   1.00
C329   C     0.04552   0.26764   0.65255   0.00000  Uiso   1.00
C330   C     0.06788   0.17950   0.62450   0.00000  Uiso   1.00
C331   C     0.12939   0.03041   0.58877   0.00000  Uiso   1.00
C332   C     0.85065   0.39922   0.68950   0.00000  Uiso   1.00
C333   C     0.81314   0.40439   0.73618   0.00000  Uiso   1.00
C334   C     0.72922   0.37879   0.74638   0.00000  Uiso   1.00
C335   C     0.59474   0.34507   0.78119   0.00000  Uiso   1.00
C336   C     0.85930   0.36916   0.60566   0.00000  Uiso   1.00
C337   C     0.89625   0.48018   0.59834   0.00000  Uiso   1.00
C338   C     0.88832   0.54763   0.56146   0.00000  Uiso   1.00
C339   C     0.92675   0.64596   0.56106   0.00000  Uiso   1.00
C340   C     0.93216   0.29522   0.60883   0.00000  Uiso   1.00
C341   C     0.95442   0.20715   0.58077   0.00000  Uiso   1.00
C342   C     0.02307   0.14975   0.58920   0.00000  Uiso   1.00
C343   C     0.80592   0.36953   0.65426   0.00000  Uiso   1.00
C344   C     0.72204   0.34391   0.66440   0.00000  Uiso   1.00
C345   C     0.68442   0.34904   0.71108   0.00000  Uiso   1.00
H346   H     0.97646   0.44695   0.69797   0.00000  Uiso   1.00
H347   H     0.01404   0.63107   0.66052   0.00000  Uiso   1.00
H348   H     0.08011   0.29063   0.67982   0.00000  Uiso   1.00
H349   H     0.84777   0.42738   0.76344   0.00000  Uiso   1.00
H350   H     0.03599   0.82210   0.60344   0.00000  Uiso   1.00
H351   H     0.17530   0.10424   0.64416   0.00000  Uiso   1.00
H352   H     0.68537   0.39258   0.82048   0.00000  Uiso   1.00
H353   H     0.82448   0.34603   0.57822   0.00000  Uiso   1.00
H354   H     0.85371   0.52463   0.53419   0.00000  Uiso   1.00
H355   H     0.91979   0.18418   0.55350   0.00000  Uiso   1.00
H356   H     0.68745   0.32093   0.63712   0.00000  Uiso   1.00
H357   H     0.90587   0.73570   0.50091   0.00000  Uiso   1.00
H358   H     0.04518   0.01784   0.54163   0.00000  Uiso   1.00
H359   H     0.55525   0.30619   0.71795   0.00000  Uiso   1.00
O360   O     0.99292   0.89820   0.52536   0.00000  Uiso   1.00
O361   O     0.17569   0.95638   0.57880   0.00000  Uiso   1.00
O362   O     0.53291   0.33469   0.81012   0.00000  Uiso   1.00
N363   N     0.00134   0.77727   0.58535   0.00000  Uiso   1.00
N364   N     0.13160   0.10612   0.62342   0.00000  Uiso   1.00
N365   N     0.67356   0.37567   0.78827   0.00000  Uiso   1.00
N366   N     0.93132   0.73078   0.53018   0.00000  Uiso   1.00
N367   N     0.06158   0.05963   0.56825   0.00000  Uiso   1.00
N368   N     0.60354   0.32918   0.73310   0.00000  Uiso   1.00
