data_job_03504
_audit_creation_date              2018-12-19
_audit_creation_method            'Materials Studio'
_symmetry_space_group_name_H-M    'P1'
_symmetry_Int_Tables_number       1
_symmetry_cell_setting            triclinic
loop_
_symmetry_equiv_pos_as_xyz
  x,y,z
_cell_length_a                    18.3978
_cell_length_b                    16.8384
_cell_length_c                    14.1251
_cell_angle_alpha                 90.0000
_cell_angle_beta                  145.2840
_cell_angle_gamma                 90.0000
loop_
_atom_site_label
_atom_site_type_symbol
_atom_site_fract_x
_atom_site_fract_y
_atom_site_fract_z
_atom_site_U_iso_or_equiv
_atom_site_adp_type
_atom_site_occupancy
C1     C     0.12124   0.27593   0.57542   0.00000  Uiso   1.00
C2     C     0.16641   0.31874   0.71282   0.00000  Uiso   1.00
C3     C     0.23724   0.38836   0.79089   0.00000  Uiso   1.00
C4     C     0.26913   0.41809   0.91360   0.00000  Uiso   1.00
C5     C     0.34505   0.49041   0.12047   0.00000  Uiso   1.00
C6     C     0.17316   0.19153   0.63803   0.00000  Uiso   1.00
C7     C     0.24965   0.15419   0.65318   0.00000  Uiso   1.00
C8     C     0.28720   0.07683   0.71292   0.00000  Uiso   1.00
C9     C     0.37352   0.95163   0.80355   0.00000  Uiso   1.00
C10    C     0.97666   0.26886   0.42965   0.00000  Uiso   1.00
C11    C     0.88793   0.29652   0.26958   0.00000  Uiso   1.00
C12    C     0.76004   0.28425   0.15386   0.00000  Uiso   1.00
C13    C     0.54127   0.27912   0.92095   0.00000  Uiso   1.00
C14    C     0.05192   0.20493   0.65454   0.00000  Uiso   1.00
C15    C     0.12876   0.28018   0.75580   0.00000  Uiso   1.00
C16    C     0.16055   0.30981   0.87842   0.00000  Uiso   1.00
C17    C     0.23141   0.37946   0.95665   0.00000  Uiso   1.00
C18    C     0.13551   0.15297   0.68101   0.00000  Uiso   1.00
C19    C     0.17295   0.07564   0.74072   0.00000  Uiso   1.00
C20    C     0.24948   0.03819   0.75597   0.00000  Uiso   1.00
C21    C     0.93901   0.23030   0.47262   0.00000  Uiso   1.00
C22    C     0.81124   0.21798   0.35713   0.00000  Uiso   1.00
C23    C     0.72232   0.24561   0.19691   0.00000  Uiso   1.00
H24    H     0.15056   0.30595   0.54197   0.00000  Uiso   1.00
H25    H     0.26637   0.41818   0.75760   0.00000  Uiso   1.00
H26    H     0.27876   0.18404   0.61990   0.00000  Uiso   1.00
H27    H     0.91710   0.32635   0.23637   0.00000  Uiso   1.00
H28    H     0.37821   0.52559   0.01567   0.00000  Uiso   1.00
H29    H     0.40429   0.03189   0.72527   0.00000  Uiso   1.00
H30    H     0.64166   0.33198   0.91650   0.00000  Uiso   1.00
H31    H     0.02261   0.17491   0.68800   0.00000  Uiso   1.00
H32    H     0.13140   0.27996   0.91165   0.00000  Uiso   1.00
H33    H     0.14379   0.04582   0.77396   0.00000  Uiso   1.00
H34    H     0.78213   0.18813   0.39042   0.00000  Uiso   1.00
H35    H     0.26866   0.41340   0.14071   0.00000  Uiso   1.00
H36    H     0.29474   0.91970   0.85030   0.00000  Uiso   1.00
H37    H     0.53212   0.21979   0.04155   0.00000  Uiso   1.00
O38    O     0.39735   0.54095   0.22272   0.00000  Uiso   1.00
O39    O     0.43155   0.89323   0.84169   0.00000  Uiso   1.00
O40    O     0.43100   0.28695   0.78062   0.00000  Uiso   1.00
N41    N     0.33747   0.48478   0.01438   0.00000  Uiso   1.00
N42    N     0.36188   0.02320   0.74290   0.00000  Uiso   1.00
N43    N     0.64888   0.30374   0.98676   0.00000  Uiso   1.00
N44    N     0.27853   0.42441   0.08166   0.00000  Uiso   1.00
N45    N     0.30293   0.96284   0.81018   0.00000  Uiso   1.00
N46    N     0.58994   0.24338   0.05404   0.00000  Uiso   1.00
C47    C     0.87876   0.27593   0.92458   0.00000  Uiso   1.00
C48    C     0.83359   0.31874   0.78718   0.00000  Uiso   1.00
C49    C     0.76276   0.38836   0.70911   0.00000  Uiso   1.00
C50    C     0.73087   0.41809   0.58640   0.00000  Uiso   1.00
C51    C     0.65495   0.49041   0.37953   0.00000  Uiso   1.00
C52    C     0.82684   0.19153   0.86197   0.00000  Uiso   1.00
C53    C     0.75035   0.15419   0.84682   0.00000  Uiso   1.00
C54    C     0.71280   0.07683   0.78708   0.00000  Uiso   1.00
C55    C     0.62648   0.95163   0.69645   0.00000  Uiso   1.00
C56    C     0.02334   0.26886   0.07035   0.00000  Uiso   1.00
C57    C     0.11207   0.29652   0.23042   0.00000  Uiso   1.00
C58    C     0.23996   0.28425   0.34614   0.00000  Uiso   1.00
C59    C     0.45873   0.27912   0.57905   0.00000  Uiso   1.00
C60    C     0.94808   0.20493   0.84546   0.00000  Uiso   1.00
C61    C     0.87124   0.28018   0.74420   0.00000  Uiso   1.00
C62    C     0.83945   0.30981   0.62158   0.00000  Uiso   1.00
C63    C     0.76859   0.37946   0.54335   0.00000  Uiso   1.00
C64    C     0.86449   0.15297   0.81899   0.00000  Uiso   1.00
C65    C     0.82705   0.07564   0.75928   0.00000  Uiso   1.00
C66    C     0.75052   0.03819   0.74403   0.00000  Uiso   1.00
C67    C     0.06099   0.23030   0.02738   0.00000  Uiso   1.00
C68    C     0.18876   0.21798   0.14287   0.00000  Uiso   1.00
C69    C     0.27768   0.24561   0.30309   0.00000  Uiso   1.00
H70    H     0.84944   0.30595   0.95803   0.00000  Uiso   1.00
H71    H     0.73363   0.41818   0.74240   0.00000  Uiso   1.00
H72    H     0.72124   0.18404   0.88010   0.00000  Uiso   1.00
H73    H     0.08290   0.32635   0.26363   0.00000  Uiso   1.00
H74    H     0.62179   0.52559   0.48433   0.00000  Uiso   1.00
H75    H     0.59571   0.03189   0.77473   0.00000  Uiso   1.00
H76    H     0.35834   0.33198   0.58350   0.00000  Uiso   1.00
H77    H     0.97739   0.17491   0.81200   0.00000  Uiso   1.00
H78    H     0.86860   0.27996   0.58835   0.00000  Uiso   1.00
H79    H     0.85621   0.04582   0.72604   0.00000  Uiso   1.00
H80    H     0.21787   0.18813   0.10958   0.00000  Uiso   1.00
H81    H     0.73134   0.41340   0.35929   0.00000  Uiso   1.00
H82    H     0.70526   0.91970   0.64970   0.00000  Uiso   1.00
H83    H     0.46788   0.21979   0.45845   0.00000  Uiso   1.00
O84    O     0.60265   0.54095   0.27728   0.00000  Uiso   1.00
O85    O     0.56845   0.89323   0.65831   0.00000  Uiso   1.00
O86    O     0.56900   0.28695   0.71938   0.00000  Uiso   1.00
N87    N     0.66253   0.48478   0.48562   0.00000  Uiso   1.00
N88    N     0.63812   0.02320   0.75710   0.00000  Uiso   1.00
N89    N     0.35112   0.30374   0.51324   0.00000  Uiso   1.00
N90    N     0.72147   0.42441   0.41834   0.00000  Uiso   1.00
N91    N     0.69707   0.96284   0.68982   0.00000  Uiso   1.00
N92    N     0.41006   0.24338   0.44596   0.00000  Uiso   1.00
C93    C     0.87876   0.72407   0.42458   0.00000  Uiso   1.00
C94    C     0.83359   0.68126   0.28718   0.00000  Uiso   1.00
C95    C     0.76276   0.61164   0.20911   0.00000  Uiso   1.00
C96    C     0.73087   0.58191   0.08640   0.00000  Uiso   1.00
C97    C     0.65495   0.50959   0.87953   0.00000  Uiso   1.00
C98    C     0.82684   0.80847   0.36197   0.00000  Uiso   1.00
C99    C     0.75035   0.84581   0.34682   0.00000  Uiso   1.00
C100   C     0.71280   0.92317   0.28708   0.00000  Uiso   1.00
C101   C     0.62648   0.04837   0.19645   0.00000  Uiso   1.00
C102   C     0.02334   0.73114   0.57035   0.00000  Uiso   1.00
C103   C     0.11207   0.70348   0.73042   0.00000  Uiso   1.00
C104   C     0.23996   0.71575   0.84614   0.00000  Uiso   1.00
C105   C     0.45873   0.72088   0.07905   0.00000  Uiso   1.00
C106   C     0.94808   0.79507   0.34546   0.00000  Uiso   1.00
C107   C     0.87124   0.71982   0.24420   0.00000  Uiso   1.00
C108   C     0.83945   0.69019   0.12158   0.00000  Uiso   1.00
C109   C     0.76859   0.62054   0.04335   0.00000  Uiso   1.00
C110   C     0.86449   0.84703   0.31899   0.00000  Uiso   1.00
C111   C     0.82705   0.92436   0.25928   0.00000  Uiso   1.00
C112   C     0.75052   0.96181   0.24403   0.00000  Uiso   1.00
C113   C     0.06099   0.76970   0.52738   0.00000  Uiso   1.00
C114   C     0.18876   0.78202   0.64287   0.00000  Uiso   1.00
C115   C     0.27768   0.75439   0.80309   0.00000  Uiso   1.00
H116   H     0.84944   0.69405   0.45803   0.00000  Uiso   1.00
H117   H     0.73363   0.58182   0.24240   0.00000  Uiso   1.00
H118   H     0.72124   0.81596   0.38010   0.00000  Uiso   1.00
H119   H     0.08290   0.67365   0.76363   0.00000  Uiso   1.00
H120   H     0.62179   0.47441   0.98433   0.00000  Uiso   1.00
H121   H     0.59571   0.96811   0.27473   0.00000  Uiso   1.00
H122   H     0.35834   0.66802   0.08350   0.00000  Uiso   1.00
H123   H     0.97739   0.82509   0.31200   0.00000  Uiso   1.00
H124   H     0.86860   0.72004   0.08835   0.00000  Uiso   1.00
H125   H     0.85621   0.95418   0.22604   0.00000  Uiso   1.00
H126   H     0.21787   0.81187   0.60958   0.00000  Uiso   1.00
H127   H     0.73134   0.58660   0.85929   0.00000  Uiso   1.00
H128   H     0.70526   0.08030   0.14970   0.00000  Uiso   1.00
H129   H     0.46788   0.78021   0.95845   0.00000  Uiso   1.00
O130   O     0.60265   0.45905   0.77728   0.00000  Uiso   1.00
O131   O     0.56845   0.10677   0.15831   0.00000  Uiso   1.00
O132   O     0.56900   0.71305   0.21938   0.00000  Uiso   1.00
N133   N     0.66253   0.51522   0.98562   0.00000  Uiso   1.00
N134   N     0.63812   0.97680   0.25710   0.00000  Uiso   1.00
N135   N     0.35112   0.69626   0.01324   0.00000  Uiso   1.00
N136   N     0.72147   0.57559   0.91834   0.00000  Uiso   1.00
N137   N     0.69707   0.03716   0.18982   0.00000  Uiso   1.00
N138   N     0.41006   0.75662   0.94596   0.00000  Uiso   1.00
C139   C     0.12124   0.72407   0.07542   0.00000  Uiso   1.00
C140   C     0.16641   0.68126   0.21282   0.00000  Uiso   1.00
C141   C     0.23724   0.61164   0.29089   0.00000  Uiso   1.00
C142   C     0.26913   0.58191   0.41360   0.00000  Uiso   1.00
C143   C     0.34505   0.50959   0.62047   0.00000  Uiso   1.00
C144   C     0.17316   0.80847   0.13803   0.00000  Uiso   1.00
C145   C     0.24965   0.84581   0.15318   0.00000  Uiso   1.00
C146   C     0.28720   0.92317   0.21292   0.00000  Uiso   1.00
C147   C     0.37352   0.04837   0.30355   0.00000  Uiso   1.00
C148   C     0.97666   0.73114   0.92965   0.00000  Uiso   1.00
C149   C     0.88793   0.70348   0.76958   0.00000  Uiso   1.00
C150   C     0.76004   0.71575   0.65386   0.00000  Uiso   1.00
C151   C     0.54127   0.72088   0.42095   0.00000  Uiso   1.00
C152   C     0.05192   0.79507   0.15454   0.00000  Uiso   1.00
C153   C     0.12876   0.71982   0.25580   0.00000  Uiso   1.00
C154   C     0.16055   0.69019   0.37842   0.00000  Uiso   1.00
C155   C     0.23141   0.62054   0.45665   0.00000  Uiso   1.00
C156   C     0.13551   0.84703   0.18101   0.00000  Uiso   1.00
C157   C     0.17295   0.92436   0.24072   0.00000  Uiso   1.00
C158   C     0.24948   0.96181   0.25597   0.00000  Uiso   1.00
C159   C     0.93901   0.76970   0.97262   0.00000  Uiso   1.00
C160   C     0.81124   0.78202   0.85713   0.00000  Uiso   1.00
C161   C     0.72232   0.75439   0.69691   0.00000  Uiso   1.00
H162   H     0.15056   0.69405   0.04197   0.00000  Uiso   1.00
H163   H     0.26637   0.58182   0.25760   0.00000  Uiso   1.00
H164   H     0.27876   0.81596   0.11990   0.00000  Uiso   1.00
H165   H     0.91710   0.67365   0.73637   0.00000  Uiso   1.00
H166   H     0.37821   0.47441   0.51567   0.00000  Uiso   1.00
H167   H     0.40429   0.96811   0.22527   0.00000  Uiso   1.00
H168   H     0.64166   0.66802   0.41650   0.00000  Uiso   1.00
H169   H     0.02261   0.82509   0.18800   0.00000  Uiso   1.00
H170   H     0.13140   0.72004   0.41165   0.00000  Uiso   1.00
H171   H     0.14379   0.95418   0.27396   0.00000  Uiso   1.00
H172   H     0.78213   0.81187   0.89042   0.00000  Uiso   1.00
H173   H     0.26866   0.58660   0.64071   0.00000  Uiso   1.00
H174   H     0.29474   0.08030   0.35030   0.00000  Uiso   1.00
H175   H     0.53212   0.78021   0.54155   0.00000  Uiso   1.00
O176   O     0.39735   0.45905   0.72272   0.00000  Uiso   1.00
O177   O     0.43155   0.10677   0.34169   0.00000  Uiso   1.00
O178   O     0.43100   0.71305   0.28062   0.00000  Uiso   1.00
N179   N     0.33747   0.51522   0.51438   0.00000  Uiso   1.00
N180   N     0.36188   0.97680   0.24290   0.00000  Uiso   1.00
N181   N     0.64888   0.69626   0.48676   0.00000  Uiso   1.00
N182   N     0.27853   0.57559   0.58166   0.00000  Uiso   1.00
N183   N     0.30293   0.03716   0.31018   0.00000  Uiso   1.00
N184   N     0.58994   0.75662   0.55404   0.00000  Uiso   1.00
