data_job_07048
_audit_creation_date              2018-12-19
_audit_creation_method            'Materials Studio'
_symmetry_space_group_name_H-M    'P1'
_symmetry_Int_Tables_number       1
_symmetry_cell_setting            triclinic
loop_
_symmetry_equiv_pos_as_xyz
  x,y,z
_cell_length_a                    21.6567
_cell_length_b                    21.7807
_cell_length_c                    22.5524
_cell_angle_alpha                 103.4339
_cell_angle_beta                  68.5570
_cell_angle_gamma                 73.4240
loop_
_atom_site_label
_atom_site_type_symbol
_atom_site_fract_x
_atom_site_fract_y
_atom_site_fract_z
_atom_site_U_iso_or_equiv
_atom_site_adp_type
_atom_site_occupancy
C1     C     0.26365   0.69531   0.09496   0.00000  Uiso   1.00
C2     C     0.30479   0.61741   0.05489   0.00000  Uiso   1.00
C3     C     0.28067   0.56759   0.06970   0.00000  Uiso   1.00
C4     C     0.32632   0.49908   0.02688   0.00000  Uiso   1.00
C5     C     0.37997   0.38086   0.97314   0.00000  Uiso   1.00
C6     C     0.31440   0.71896   0.11703   0.00000  Uiso   1.00
C7     C     0.29837   0.75453   0.18409   0.00000  Uiso   1.00
C8     C     0.35211   0.77150   0.19358   0.00000  Uiso   1.00
C9     C     0.42067   0.81098   0.23632   0.00000  Uiso   1.00
C10    C     0.25670   0.72687   0.04280   0.00000  Uiso   1.00
C11    C     0.19214   0.76911   0.04745   0.00000  Uiso   1.00
C12    C     0.19730   0.79276   0.99444   0.00000  Uiso   1.00
C13    C     0.17627   0.84452   0.92192   0.00000  Uiso   1.00
C14    C     0.38760   0.66221   0.99257   0.00000  Uiso   1.00
C15    C     0.37211   0.59944   0.99928   0.00000  Uiso   1.00
C16    C     0.41781   0.53097   0.95642   0.00000  Uiso   1.00
C17    C     0.39376   0.48106   0.97116   0.00000  Uiso   1.00
C18    C     0.38173   0.70098   0.06142   0.00000  Uiso   1.00
C19    C     0.43550   0.71791   0.07081   0.00000  Uiso   1.00
C20    C     0.41955   0.75349   0.13787   0.00000  Uiso   1.00
C21    C     0.32402   0.70889   0.98718   0.00000  Uiso   1.00
C22    C     0.32928   0.73249   0.93417   0.00000  Uiso   1.00
C23    C     0.26475   0.77475   0.93873   0.00000  Uiso   1.00
H24    H     0.21124   0.70931   0.13826   0.00000  Uiso   1.00
H25    H     0.22857   0.58153   0.11274   0.00000  Uiso   1.00
H26    H     0.24626   0.76844   0.22712   0.00000  Uiso   1.00
H27    H     0.14006   0.78301   0.09049   0.00000  Uiso   1.00
H28    H     0.27749   0.43193   0.05995   0.00000  Uiso   1.00
H29    H     0.31478   0.82607   0.30111   0.00000  Uiso   1.00
H30    H     0.09082   0.85680   0.01301   0.00000  Uiso   1.00
H31    H     0.44002   0.64821   0.94928   0.00000  Uiso   1.00
H32    H     0.46991   0.51708   0.91339   0.00000  Uiso   1.00
H33    H     0.48759   0.70399   0.02777   0.00000  Uiso   1.00
H34    H     0.38139   0.71856   0.89114   0.00000  Uiso   1.00
H35    H     0.47337   0.37962   0.89815   0.00000  Uiso   1.00
H36    H     0.51066   0.77376   0.13931   0.00000  Uiso   1.00
H37    H     0.28670   0.80449   0.85121   0.00000  Uiso   1.00
O38    O     0.39097   0.32061   0.95886   0.00000  Uiso   1.00
O39    O     0.43989   0.83772   0.27526   0.00000  Uiso   1.00
O40    O     0.14607   0.87803   0.89728   0.00000  Uiso   1.00
N41    N     0.31948   0.43762   0.02678   0.00000  Uiso   1.00
N42    N     0.35435   0.80610   0.25226   0.00000  Uiso   1.00
N43    N     0.14497   0.83485   0.98292   0.00000  Uiso   1.00
N44    N     0.42488   0.40947   0.93972   0.00000  Uiso   1.00
N45    N     0.45975   0.77795   0.16519   0.00000  Uiso   1.00
N46    N     0.25037   0.80670   0.89585   0.00000  Uiso   1.00
C47    C     0.70744   0.02456   0.35075   0.00000  Uiso   1.00
C48    C     0.62602   0.06788   0.39557   0.00000  Uiso   1.00
C49    C     0.59423   0.13357   0.44607   0.00000  Uiso   1.00
C50    C     0.51881   0.16455   0.48141   0.00000  Uiso   1.00
C51    C     0.39879   0.23690   0.55326   0.00000  Uiso   1.00
C52    C     0.72276   0.95636   0.36166   0.00000  Uiso   1.00
C53    C     0.77231   0.92830   0.38363   0.00000  Uiso   1.00
C54    C     0.77833   0.86539   0.39042   0.00000  Uiso   1.00
C55    C     0.80853   0.76459   0.40958   0.00000  Uiso   1.00
C56    C     0.72050   0.00708   0.27649   0.00000  Uiso   1.00
C57    C     0.76816   0.02163   0.22685   0.00000  Uiso   1.00
C58    C     0.77229   0.00141   0.16193   0.00000  Uiso   1.00
C59    C     0.79897   0.97935   0.04886   0.00000  Uiso   1.00
C60    C     0.63004   0.96274   0.32372   0.00000  Uiso   1.00
C61    C     0.58398   0.03430   0.38089   0.00000  Uiso   1.00
C62    C     0.50860   0.06518   0.41616   0.00000  Uiso   1.00
C63    C     0.47670   0.13091   0.46670   0.00000  Uiso   1.00
C64    C     0.68072   0.92278   0.34698   0.00000  Uiso   1.00
C65    C     0.68668   0.85990   0.35373   0.00000  Uiso   1.00
C66    C     0.73622   0.83175   0.37571   0.00000  Uiso   1.00
C67    C     0.67845   0.97350   0.26181   0.00000  Uiso   1.00
C68    C     0.68252   0.95324   0.19695   0.00000  Uiso   1.00
C69    C     0.73017   0.96777   0.14722   0.00000  Uiso   1.00
H70    H     0.74017   0.05070   0.36218   0.00000  Uiso   1.00
H71    H     0.62678   0.15954   0.45742   0.00000  Uiso   1.00
H72    H     0.80484   0.95429   0.39498   0.00000  Uiso   1.00
H73    H     0.80068   0.04761   0.23823   0.00000  Uiso   1.00
H74    H     0.48253   0.26539   0.55655   0.00000  Uiso   1.00
H75    H     0.85799   0.83260   0.42489   0.00000  Uiso   1.00
H76    H     0.84923   0.02939   0.09434   0.00000  Uiso   1.00
H77    H     0.59731   0.93660   0.31229   0.00000  Uiso   1.00
H78    H     0.47608   0.03918   0.40479   0.00000  Uiso   1.00
H79    H     0.65414   0.83393   0.34236   0.00000  Uiso   1.00
H80    H     0.64998   0.92726   0.18561   0.00000  Uiso   1.00
H81    H     0.36021   0.16771   0.51384   0.00000  Uiso   1.00
H82    H     0.73568   0.73491   0.38217   0.00000  Uiso   1.00
H83    H     0.72691   0.93171   0.05163   0.00000  Uiso   1.00
O84    O     0.34420   0.28608   0.59696   0.00000  Uiso   1.00
O85    O     0.83680   0.71827   0.42421   0.00000  Uiso   1.00
O86    O     0.82530   0.97646   0.99055   0.00000  Uiso   1.00
N87    N     0.47038   0.22833   0.53379   0.00000  Uiso   1.00
N88    N     0.82141   0.82370   0.41071   0.00000  Uiso   1.00
N89    N     0.81323   0.00767   0.10167   0.00000  Uiso   1.00
N90    N     0.40456   0.17577   0.51081   0.00000  Uiso   1.00
N91    N     0.75559   0.77114   0.38772   0.00000  Uiso   1.00
N92    N     0.74741   0.95511   0.07869   0.00000  Uiso   1.00
C93    C     0.05293   0.27029   0.35625   0.00000  Uiso   1.00
C94    C     0.09240   0.31702   0.36445   0.00000  Uiso   1.00
C95    C     0.15535   0.29968   0.37170   0.00000  Uiso   1.00
C96    C     0.18300   0.34964   0.37854   0.00000  Uiso   1.00
C97    C     0.24946   0.41233   0.39136   0.00000  Uiso   1.00
C98    C     0.97518   0.31018   0.41415   0.00000  Uiso   1.00
C99    C     0.93958   0.28710   0.46318   0.00000  Uiso   1.00
C100   C     0.86854   0.33131   0.51185   0.00000  Uiso   1.00
C101   C     0.75301   0.38337   0.60180   0.00000  Uiso   1.00
C102   C     0.04812   0.26559   0.28967   0.00000  Uiso   1.00
C103   C     0.07383   0.20501   0.23403   0.00000  Uiso   1.00
C104   C     0.06419   0.21167   0.17791   0.00000  Uiso   1.00
C105   C     0.06191   0.19450   0.07459   0.00000  Uiso   1.00
C106   C     0.99008   0.38984   0.35552   0.00000  Uiso   1.00
C107   C     0.05826   0.38195   0.36405   0.00000  Uiso   1.00
C108   C     0.08582   0.43195   0.37088   0.00000  Uiso   1.00
C109   C     0.14880   0.41469   0.37814   0.00000  Uiso   1.00
C110   C     0.94105   0.37512   0.41375   0.00000  Uiso   1.00
C111   C     0.87004   0.41937   0.46236   0.00000  Uiso   1.00
C112   C     0.83434   0.39636   0.51145   0.00000  Uiso   1.00
C113   C     0.01399   0.33053   0.28927   0.00000  Uiso   1.00
C114   C     0.00430   0.33728   0.23322   0.00000  Uiso   1.00
C115   C     0.02999   0.27673   0.17751   0.00000  Uiso   1.00
H116   H     0.07950   0.21973   0.35657   0.00000  Uiso   1.00
H117   H     0.18175   0.24942   0.37201   0.00000  Uiso   1.00
H118   H     0.96601   0.23684   0.46347   0.00000  Uiso   1.00
H119   H     0.10024   0.15477   0.23436   0.00000  Uiso   1.00
H120   H     0.28005   0.31099   0.38898   0.00000  Uiso   1.00
H121   H     0.82513   0.28445   0.58181   0.00000  Uiso   1.00
H122   H     0.10819   0.11138   0.09870   0.00000  Uiso   1.00
H123   H     0.96350   0.44040   0.35521   0.00000  Uiso   1.00
H124   H     0.05939   0.48220   0.37057   0.00000  Uiso   1.00
H125   H     0.84364   0.46961   0.46203   0.00000  Uiso   1.00
H126   H     0.97788   0.38754   0.23293   0.00000  Uiso   1.00
H127   H     0.18073   0.49992   0.38782   0.00000  Uiso   1.00
H128   H     0.72581   0.47337   0.58065   0.00000  Uiso   1.00
H129   H     0.00888   0.30031   0.09754   0.00000  Uiso   1.00
O130   O     0.29555   0.42898   0.39855   0.00000  Uiso   1.00
O131   O     0.69872   0.39415   0.65153   0.00000  Uiso   1.00
O132   O     0.07009   0.16709   0.01770   0.00000  Uiso   1.00
N133   N     0.24352   0.34971   0.38658   0.00000  Uiso   1.00
N134   N     0.81821   0.32490   0.56688   0.00000  Uiso   1.00
N135   N     0.08283   0.16310   0.11521   0.00000  Uiso   1.00
N136   N     0.19008   0.45137   0.38595   0.00000  Uiso   1.00
N137   N     0.76477   0.42656   0.56625   0.00000  Uiso   1.00
N138   N     0.02939   0.26476   0.11459   0.00000  Uiso   1.00
C139   C     0.73220   0.90737   0.79569   0.00000  Uiso   1.00
C140   C     0.68701   0.86480   0.79733   0.00000  Uiso   1.00
C141   C     0.71011   0.79560   0.78894   0.00000  Uiso   1.00
C142   C     0.66061   0.76604   0.79216   0.00000  Uiso   1.00
C143   C     0.60109   0.69413   0.79303   0.00000  Uiso   1.00
C144   C     0.68853   0.96946   0.86379   0.00000  Uiso   1.00
C145   C     0.71292   0.98826   0.91127   0.00000  Uiso   1.00
C146   C     0.66470   0.04681   0.97043   0.00000  Uiso   1.00
C147   C     0.60756   0.13742   0.07446   0.00000  Uiso   1.00
C148   C     0.73266   0.93618   0.74011   0.00000  Uiso   1.00
C149   C     0.79415   0.92701   0.68361   0.00000  Uiso   1.00
C150   C     0.78308   0.95755   0.63865   0.00000  Uiso   1.00
C151   C     0.79446   0.99647   0.55064   0.00000  Uiso   1.00
C152   C     0.60323   0.97792   0.81633   0.00000  Uiso   1.00
C153   C     0.61696   0.90313   0.80854   0.00000  Uiso   1.00
C154   C     0.56742   0.87366   0.81177   0.00000  Uiso   1.00
C155   C     0.59043   0.80443   0.80339   0.00000  Uiso   1.00
C156   C     0.61848   0.00779   0.87500   0.00000  Uiso   1.00
C157   C     0.57022   0.06632   0.93410   0.00000  Uiso   1.00
C158   C     0.59452   0.08520   0.98167   0.00000  Uiso   1.00
C159   C     0.66261   0.97450   0.75132   0.00000  Uiso   1.00
C160   C     0.65145   0.00506   0.70644   0.00000  Uiso   1.00
C161   C     0.71291   0.99594   0.64988   0.00000  Uiso   1.00
H162   H     0.78674   0.87753   0.78697   0.00000  Uiso   1.00
H163   H     0.76432   0.76597   0.78027   0.00000  Uiso   1.00
H164   H     0.76713   0.95860   0.90258   0.00000  Uiso   1.00
H165   H     0.84835   0.89735   0.67495   0.00000  Uiso   1.00
H166   H     0.70857   0.65918   0.77782   0.00000  Uiso   1.00
H167   H     0.71450   0.06537   0.03569   0.00000  Uiso   1.00
H168   H     0.88577   0.93622   0.55569   0.00000  Uiso   1.00
H169   H     0.54869   0.00776   0.82506   0.00000  Uiso   1.00
H170   H     0.51321   0.90333   0.82045   0.00000  Uiso   1.00
H171   H     0.51602   0.09597   0.94276   0.00000  Uiso   1.00
H172   H     0.59723   0.03472   0.71513   0.00000  Uiso   1.00
H173   H     0.50476   0.77067   0.81043   0.00000  Uiso   1.00
H174   H     0.51069   0.17687   0.06831   0.00000  Uiso   1.00
H175   H     0.68195   0.04771   0.58831   0.00000  Uiso   1.00
O176   O     0.58761   0.64389   0.79043   0.00000  Uiso   1.00
O177   O     0.59540   0.17680   0.12875   0.00000  Uiso   1.00
O178   O     0.82009   0.00735   0.49900   0.00000  Uiso   1.00
N179   N     0.66548   0.69975   0.78611   0.00000  Uiso   1.00
N180   N     0.67102   0.07951   0.02722   0.00000  Uiso   1.00
N181   N     0.83114   0.95877   0.57847   0.00000  Uiso   1.00
N182   N     0.55581   0.75974   0.80366   0.00000  Uiso   1.00
N183   N     0.56135   0.13950   0.04477   0.00000  Uiso   1.00
N184   N     0.72146   0.01877   0.59602   0.00000  Uiso   1.00
C185   C     0.28672   0.78854   0.66045   0.00000  Uiso   1.00
C186   C     0.36636   0.76519   0.64463   0.00000  Uiso   1.00
C187   C     0.39580   0.80468   0.67348   0.00000  Uiso   1.00
C188   C     0.46987   0.77394   0.65227   0.00000  Uiso   1.00
C189   C     0.58696   0.74799   0.63508   0.00000  Uiso   1.00
C190   C     0.26201   0.73570   0.68419   0.00000  Uiso   1.00
C191   C     0.20371   0.75041   0.74629   0.00000  Uiso   1.00
C192   C     0.18993   0.69484   0.75837   0.00000  Uiso   1.00
C193   C     0.14500   0.62312   0.80257   0.00000  Uiso   1.00
C194   C     0.28607   0.77917   0.59157   0.00000  Uiso   1.00
C195   C     0.24799   0.83042   0.57580   0.00000  Uiso   1.00
C196   C     0.25447   0.81145   0.50991   0.00000  Uiso   1.00
C197   C     0.24690   0.80722   0.41032   0.00000  Uiso   1.00
C198   C     0.36591   0.66371   0.57148   0.00000  Uiso   1.00
C199   C     0.40937   0.69739   0.59631   0.00000  Uiso   1.00
C200   C     0.48341   0.66658   0.57505   0.00000  Uiso   1.00
C201   C     0.51296   0.70602   0.60386   0.00000  Uiso   1.00
C202   C     0.30502   0.66791   0.63587   0.00000  Uiso   1.00
C203   C     0.29132   0.61231   0.64786   0.00000  Uiso   1.00
C204   C     0.23302   0.62692   0.70996   0.00000  Uiso   1.00
C205   C     0.32909   0.71137   0.54325   0.00000  Uiso   1.00
C206   C     0.33561   0.69232   0.47737   0.00000  Uiso   1.00
C207   C     0.29756   0.74352   0.46150   0.00000  Uiso   1.00
H208   H     0.25323   0.84132   0.69808   0.00000  Uiso   1.00
H209   H     0.36249   0.85715   0.71088   0.00000  Uiso   1.00
H210   H     0.17043   0.80288   0.78367   0.00000  Uiso   1.00
H211   H     0.21472   0.88288   0.61321   0.00000  Uiso   1.00
H212   H     0.50258   0.84479   0.70378   0.00000  Uiso   1.00
H213   H     0.09760   0.73037   0.85726   0.00000  Uiso   1.00
H214   H     0.19098   0.89906   0.49782   0.00000  Uiso   1.00
H215   H     0.39940   0.61093   0.53386   0.00000  Uiso   1.00
H216   H     0.51668   0.61411   0.53765   0.00000  Uiso   1.00
H217   H     0.32462   0.55985   0.61045   0.00000  Uiso   1.00
H218   H     0.36890   0.63984   0.43999   0.00000  Uiso   1.00
H219   H     0.62773   0.64753   0.56319   0.00000  Uiso   1.00
H220   H     0.22274   0.53311   0.71667   0.00000  Uiso   1.00
H221   H     0.31613   0.70180   0.35722   0.00000  Uiso   1.00
O222   O     0.63967   0.75240   0.63896   0.00000  Uiso   1.00
O223   O     0.10833   0.60229   0.84031   0.00000  Uiso   1.00
O224   O     0.23085   0.82361   0.36873   0.00000  Uiso   1.00
N225   N     0.51595   0.79793   0.67016   0.00000  Uiso   1.00
N226   N     0.13731   0.69095   0.81366   0.00000  Uiso   1.00
N227   N     0.22460   0.84866   0.47762   0.00000  Uiso   1.00
N228   N     0.58329   0.69179   0.59451   0.00000  Uiso   1.00
N229   N     0.20465   0.58481   0.73801   0.00000  Uiso   1.00
N230   N     0.29194   0.74252   0.40196   0.00000  Uiso   1.00
C231   C     0.95796   0.30748   0.89385   0.00000  Uiso   1.00
C232   C     0.91463   0.38524   0.93360   0.00000  Uiso   1.00
C233   C     0.84764   0.41692   0.99203   0.00000  Uiso   1.00
C234   C     0.81690   0.48870   0.02082   0.00000  Uiso   1.00
C235   C     0.74430   0.60357   0.08693   0.00000  Uiso   1.00
C236   C     0.03218   0.29127   0.89183   0.00000  Uiso   1.00
C237   C     0.06403   0.24392   0.91513   0.00000  Uiso   1.00
C238   C     0.13224   0.23658   0.90874   0.00000  Uiso   1.00
C239   C     0.24217   0.20550   0.90995   0.00000  Uiso   1.00
C240   C     0.97130   0.29470   0.81995   0.00000  Uiso   1.00
C241   C     0.95197   0.25023   0.78280   0.00000  Uiso   1.00
C242   C     0.96894   0.24577   0.71589   0.00000  Uiso   1.00
C243   C     0.98433   0.22003   0.60549   0.00000  Uiso   1.00
C244   C     0.02249   0.37863   0.84107   0.00000  Uiso   1.00
C245   C     0.94968   0.42389   0.90493   0.00000  Uiso   1.00
C246   C     0.91903   0.49564   0.93364   0.00000  Uiso   1.00
C247   C     0.85200   0.52742   0.99210   0.00000  Uiso   1.00
C248   C     0.06723   0.32991   0.86316   0.00000  Uiso   1.00
C249   C     0.13541   0.32264   0.85673   0.00000  Uiso   1.00
C250   C     0.16735   0.27530   0.88002   0.00000  Uiso   1.00
C251   C     0.00634   0.33335   0.79128   0.00000  Uiso   1.00
C252   C     0.02335   0.32895   0.72441   0.00000  Uiso   1.00
C253   C     0.00405   0.28449   0.68717   0.00000  Uiso   1.00
H254   H     0.93068   0.27739   0.91617   0.00000  Uiso   1.00
H255   H     0.82054   0.38700   0.01421   0.00000  Uiso   1.00
H256   H     0.03690   0.21402   0.93730   0.00000  Uiso   1.00
H257   H     0.92485   0.22033   0.80500   0.00000  Uiso   1.00
H258   H     0.71390   0.52555   0.11028   0.00000  Uiso   1.00
H259   H     0.17010   0.16080   0.94810   0.00000  Uiso   1.00
H260   H     0.93383   0.17411   0.66911   0.00000  Uiso   1.00
H261   H     0.04977   0.40872   0.81875   0.00000  Uiso   1.00
H262   H     0.94616   0.52554   0.91144   0.00000  Uiso   1.00
H263   H     0.16252   0.35255   0.83454   0.00000  Uiso   1.00
H264   H     0.05047   0.35887   0.70224   0.00000  Uiso   1.00
H265   H     0.81586   0.63800   0.02687   0.00000  Uiso   1.00
H266   H     0.27207   0.27324   0.86469   0.00000  Uiso   1.00
H267   H     0.03579   0.28655   0.58571   0.00000  Uiso   1.00
O268   O     0.69458   0.65625   0.13132   0.00000  Uiso   1.00
O269   O     0.29311   0.17769   0.91854   0.00000  Uiso   1.00
O270   O     0.98312   0.19516   0.55252   0.00000  Uiso   1.00
N271   N     0.75211   0.53599   0.07792   0.00000  Uiso   1.00
N272   N     0.17863   0.19497   0.92630   0.00000  Uiso   1.00
N273   N     0.95775   0.20740   0.66546   0.00000  Uiso   1.00
N274   N     0.80697   0.59649   0.03304   0.00000  Uiso   1.00
N275   N     0.23349   0.25547   0.88142   0.00000  Uiso   1.00
N276   N     0.01261   0.26790   0.62058   0.00000  Uiso   1.00
C277   C     0.73635   0.30469   0.90504   0.00000  Uiso   1.00
C278   C     0.69521   0.38259   0.94511   0.00000  Uiso   1.00
C279   C     0.71933   0.43241   0.93030   0.00000  Uiso   1.00
C280   C     0.67368   0.50092   0.97312   0.00000  Uiso   1.00
C281   C     0.62003   0.61914   0.02686   0.00000  Uiso   1.00
C282   C     0.68560   0.28104   0.88297   0.00000  Uiso   1.00
C283   C     0.70163   0.24547   0.81591   0.00000  Uiso   1.00
C284   C     0.64789   0.22850   0.80642   0.00000  Uiso   1.00
C285   C     0.57933   0.18902   0.76368   0.00000  Uiso   1.00
C286   C     0.74330   0.27313   0.95720   0.00000  Uiso   1.00
C287   C     0.80786   0.23089   0.95255   0.00000  Uiso   1.00
C288   C     0.80270   0.20724   0.00556   0.00000  Uiso   1.00
C289   C     0.82373   0.15548   0.07808   0.00000  Uiso   1.00
C290   C     0.61240   0.33779   0.00743   0.00000  Uiso   1.00
C291   C     0.62789   0.40056   0.00072   0.00000  Uiso   1.00
C292   C     0.58219   0.46903   0.04358   0.00000  Uiso   1.00
C293   C     0.60624   0.51894   0.02884   0.00000  Uiso   1.00
C294   C     0.61827   0.29902   0.93858   0.00000  Uiso   1.00
C295   C     0.56450   0.28209   0.92919   0.00000  Uiso   1.00
C296   C     0.58045   0.24651   0.86213   0.00000  Uiso   1.00
C297   C     0.67598   0.29111   0.01282   0.00000  Uiso   1.00
C298   C     0.67072   0.26751   0.06583   0.00000  Uiso   1.00
C299   C     0.73525   0.22525   0.06127   0.00000  Uiso   1.00
H300   H     0.78876   0.29069   0.86174   0.00000  Uiso   1.00
H301   H     0.77143   0.41847   0.88726   0.00000  Uiso   1.00
H302   H     0.75374   0.23156   0.77288   0.00000  Uiso   1.00
H303   H     0.85994   0.21699   0.90951   0.00000  Uiso   1.00
H304   H     0.72251   0.56807   0.94005   0.00000  Uiso   1.00
H305   H     0.68522   0.17393   0.69889   0.00000  Uiso   1.00
H306   H     0.90918   0.14320   0.98699   0.00000  Uiso   1.00
H307   H     0.55998   0.35179   0.05072   0.00000  Uiso   1.00
H308   H     0.53009   0.48292   0.08661   0.00000  Uiso   1.00
H309   H     0.51241   0.29601   0.97223   0.00000  Uiso   1.00
H310   H     0.61861   0.28144   0.10886   0.00000  Uiso   1.00
H311   H     0.52663   0.62038   0.10185   0.00000  Uiso   1.00
H312   H     0.48934   0.22624   0.86069   0.00000  Uiso   1.00
H313   H     0.71330   0.19551   0.14879   0.00000  Uiso   1.00
O314   O     0.60903   0.67939   0.04114   0.00000  Uiso   1.00
O315   O     0.56011   0.16228   0.72474   0.00000  Uiso   1.00
O316   O     0.85393   0.12197   0.10272   0.00000  Uiso   1.00
N317   N     0.68052   0.56238   0.97322   0.00000  Uiso   1.00
N318   N     0.64565   0.19390   0.74774   0.00000  Uiso   1.00
N319   N     0.85503   0.16515   0.01708   0.00000  Uiso   1.00
N320   N     0.57512   0.59053   0.06028   0.00000  Uiso   1.00
N321   N     0.54025   0.22205   0.83481   0.00000  Uiso   1.00
N322   N     0.74963   0.19330   0.10415   0.00000  Uiso   1.00
C323   C     0.29256   0.97544   0.64925   0.00000  Uiso   1.00
C324   C     0.37398   0.93212   0.60443   0.00000  Uiso   1.00
C325   C     0.40577   0.86643   0.55393   0.00000  Uiso   1.00
C326   C     0.48119   0.83545   0.51859   0.00000  Uiso   1.00
C327   C     0.60121   0.76310   0.44674   0.00000  Uiso   1.00
C328   C     0.27724   0.04364   0.63834   0.00000  Uiso   1.00
C329   C     0.22769   0.07170   0.61637   0.00000  Uiso   1.00
C330   C     0.22167   0.13461   0.60958   0.00000  Uiso   1.00
C331   C     0.19147   0.23541   0.59042   0.00000  Uiso   1.00
C332   C     0.27950   0.99292   0.72351   0.00000  Uiso   1.00
C333   C     0.23184   0.97837   0.77315   0.00000  Uiso   1.00
C334   C     0.22771   0.99859   0.83807   0.00000  Uiso   1.00
C335   C     0.20103   0.02065   0.95114   0.00000  Uiso   1.00
C336   C     0.36996   0.03726   0.67628   0.00000  Uiso   1.00
C337   C     0.41602   0.96570   0.61911   0.00000  Uiso   1.00
C338   C     0.49140   0.93482   0.58384   0.00000  Uiso   1.00
C339   C     0.52330   0.86909   0.53330   0.00000  Uiso   1.00
C340   C     0.31928   0.07722   0.65302   0.00000  Uiso   1.00
C341   C     0.31332   0.14010   0.64627   0.00000  Uiso   1.00
C342   C     0.26378   0.16825   0.62429   0.00000  Uiso   1.00
C343   C     0.32155   0.02650   0.73819   0.00000  Uiso   1.00
C344   C     0.31748   0.04676   0.80305   0.00000  Uiso   1.00
C345   C     0.26983   0.03223   0.85278   0.00000  Uiso   1.00
H346   H     0.25983   0.94930   0.63782   0.00000  Uiso   1.00
H347   H     0.37322   0.84046   0.54258   0.00000  Uiso   1.00
H348   H     0.19516   0.04571   0.60502   0.00000  Uiso   1.00
H349   H     0.19932   0.95239   0.76177   0.00000  Uiso   1.00
H350   H     0.51747   0.73461   0.44345   0.00000  Uiso   1.00
H351   H     0.14201   0.16740   0.57511   0.00000  Uiso   1.00
H352   H     0.15077   0.97061   0.90566   0.00000  Uiso   1.00
H353   H     0.40269   0.06340   0.68771   0.00000  Uiso   1.00
H354   H     0.52392   0.96082   0.59521   0.00000  Uiso   1.00
H355   H     0.34586   0.16607   0.65764   0.00000  Uiso   1.00
H356   H     0.35002   0.07274   0.81439   0.00000  Uiso   1.00
H357   H     0.63979   0.83229   0.48616   0.00000  Uiso   1.00
H358   H     0.26432   0.26509   0.61783   0.00000  Uiso   1.00
H359   H     0.27309   0.06829   0.94837   0.00000  Uiso   1.00
O360   O     0.65580   0.71392   0.40304   0.00000  Uiso   1.00
O361   O     0.16320   0.28173   0.57579   0.00000  Uiso   1.00
O362   O     0.17470   0.02354   0.00945   0.00000  Uiso   1.00
N363   N     0.52962   0.77167   0.46621   0.00000  Uiso   1.00
N364   N     0.17859   0.17630   0.58929   0.00000  Uiso   1.00
N365   N     0.18677   0.99233   0.89833   0.00000  Uiso   1.00
N366   N     0.59544   0.82423   0.48919   0.00000  Uiso   1.00
N367   N     0.24441   0.22886   0.61228   0.00000  Uiso   1.00
N368   N     0.25259   0.04489   0.92131   0.00000  Uiso   1.00
C369   C     0.94707   0.72971   0.64375   0.00000  Uiso   1.00
C370   C     0.90760   0.68298   0.63555   0.00000  Uiso   1.00
C371   C     0.84465   0.70032   0.62830   0.00000  Uiso   1.00
C372   C     0.81700   0.65036   0.62146   0.00000  Uiso   1.00
C373   C     0.75054   0.58767   0.60864   0.00000  Uiso   1.00
C374   C     0.02482   0.68982   0.58585   0.00000  Uiso   1.00
C375   C     0.06042   0.71290   0.53682   0.00000  Uiso   1.00
C376   C     0.13146   0.66869   0.48815   0.00000  Uiso   1.00
C377   C     0.24699   0.61663   0.39820   0.00000  Uiso   1.00
C378   C     0.95188   0.73441   0.71033   0.00000  Uiso   1.00
C379   C     0.92617   0.79499   0.76597   0.00000  Uiso   1.00
C380   C     0.93581   0.78833   0.82209   0.00000  Uiso   1.00
C381   C     0.93809   0.80550   0.92541   0.00000  Uiso   1.00
C382   C     0.00992   0.61016   0.64448   0.00000  Uiso   1.00
C383   C     0.94174   0.61805   0.63595   0.00000  Uiso   1.00
C384   C     0.91418   0.56805   0.62912   0.00000  Uiso   1.00
C385   C     0.85120   0.58531   0.62186   0.00000  Uiso   1.00
C386   C     0.05895   0.62488   0.58625   0.00000  Uiso   1.00
C387   C     0.12996   0.58063   0.53764   0.00000  Uiso   1.00
C388   C     0.16566   0.60364   0.48855   0.00000  Uiso   1.00
C389   C     0.98601   0.66947   0.71073   0.00000  Uiso   1.00
C390   C     0.99570   0.66272   0.76678   0.00000  Uiso   1.00
C391   C     0.97001   0.72327   0.82249   0.00000  Uiso   1.00
H392   H     0.92050   0.78027   0.64343   0.00000  Uiso   1.00
H393   H     0.81825   0.75058   0.62799   0.00000  Uiso   1.00
H394   H     0.03399   0.76316   0.53653   0.00000  Uiso   1.00
H395   H     0.89976   0.84523   0.76564   0.00000  Uiso   1.00
H396   H     0.71995   0.68901   0.61102   0.00000  Uiso   1.00
H397   H     0.17487   0.71555   0.41819   0.00000  Uiso   1.00
H398   H     0.89181   0.88862   0.90130   0.00000  Uiso   1.00
H399   H     0.03650   0.55960   0.64479   0.00000  Uiso   1.00
H400   H     0.94061   0.51780   0.62943   0.00000  Uiso   1.00
H401   H     0.15636   0.53039   0.53797   0.00000  Uiso   1.00
H402   H     0.02212   0.61246   0.76707   0.00000  Uiso   1.00
H403   H     0.81927   0.50008   0.61218   0.00000  Uiso   1.00
H404   H     0.27419   0.52663   0.41935   0.00000  Uiso   1.00
H405   H     0.99112   0.69969   0.90246   0.00000  Uiso   1.00
O406   O     0.70445   0.57102   0.60145   0.00000  Uiso   1.00
O407   O     0.30128   0.60585   0.34847   0.00000  Uiso   1.00
O408   O     0.92991   0.83291   0.98230   0.00000  Uiso   1.00
N409   N     0.75648   0.65029   0.61342   0.00000  Uiso   1.00
N410   N     0.18179   0.67510   0.43312   0.00000  Uiso   1.00
N411   N     0.91717   0.83690   0.88479   0.00000  Uiso   1.00
N412   N     0.80992   0.54863   0.61405   0.00000  Uiso   1.00
N413   N     0.23523   0.57344   0.43375   0.00000  Uiso   1.00
N414   N     0.97061   0.73524   0.88541   0.00000  Uiso   1.00
C415   C     0.26780   0.09263   0.20431   0.00000  Uiso   1.00
C416   C     0.31299   0.13520   0.20267   0.00000  Uiso   1.00
C417   C     0.28989   0.20440   0.21106   0.00000  Uiso   1.00
C418   C     0.33939   0.23396   0.20784   0.00000  Uiso   1.00
C419   C     0.39891   0.30587   0.20697   0.00000  Uiso   1.00
C420   C     0.31147   0.03054   0.13621   0.00000  Uiso   1.00
C421   C     0.28708   0.01174   0.08873   0.00000  Uiso   1.00
C422   C     0.33530   0.95319   0.02957   0.00000  Uiso   1.00
C423   C     0.39244   0.86258   0.92554   0.00000  Uiso   1.00
C424   C     0.26734   0.06382   0.25989   0.00000  Uiso   1.00
C425   C     0.20585   0.07299   0.31639   0.00000  Uiso   1.00
C426   C     0.21692   0.04245   0.36135   0.00000  Uiso   1.00
C427   C     0.20554   0.00353   0.44936   0.00000  Uiso   1.00
C428   C     0.39677   0.02208   0.18367   0.00000  Uiso   1.00
C429   C     0.38304   0.09687   0.19146   0.00000  Uiso   1.00
C430   C     0.43258   0.12634   0.18823   0.00000  Uiso   1.00
C431   C     0.40957   0.19557   0.19661   0.00000  Uiso   1.00
C432   C     0.38152   0.99221   0.12500   0.00000  Uiso   1.00
C433   C     0.42978   0.93368   0.06590   0.00000  Uiso   1.00
C434   C     0.40548   0.91480   0.01833   0.00000  Uiso   1.00
C435   C     0.33739   0.02550   0.24868   0.00000  Uiso   1.00
C436   C     0.34855   0.99494   0.29356   0.00000  Uiso   1.00
C437   C     0.28709   0.00406   0.35012   0.00000  Uiso   1.00
H438   H     0.21326   0.12247   0.21303   0.00000  Uiso   1.00
H439   H     0.23568   0.23403   0.21973   0.00000  Uiso   1.00
H440   H     0.23287   0.04140   0.09742   0.00000  Uiso   1.00
H441   H     0.15165   0.10265   0.32505   0.00000  Uiso   1.00
H442   H     0.29143   0.34082   0.22218   0.00000  Uiso   1.00
H443   H     0.28550   0.93463   0.96431   0.00000  Uiso   1.00
H444   H     0.11423   0.06378   0.44431   0.00000  Uiso   1.00
H445   H     0.45131   0.99224   0.17494   0.00000  Uiso   1.00
H446   H     0.48679   0.09667   0.17955   0.00000  Uiso   1.00
H447   H     0.48398   0.90403   0.05724   0.00000  Uiso   1.00
H448   H     0.40277   0.96528   0.28487   0.00000  Uiso   1.00
H449   H     0.49524   0.22933   0.18957   0.00000  Uiso   1.00
H450   H     0.48931   0.82313   0.93169   0.00000  Uiso   1.00
H451   H     0.31805   0.95229   0.41169   0.00000  Uiso   1.00
O452   O     0.41239   0.35611   0.20957   0.00000  Uiso   1.00
O453   O     0.40460   0.82320   0.87125   0.00000  Uiso   1.00
O454   O     0.17991   0.99265   0.50100   0.00000  Uiso   1.00
N455   N     0.33452   0.30025   0.21389   0.00000  Uiso   1.00
N456   N     0.32898   0.92049   0.97278   0.00000  Uiso   1.00
N457   N     0.16886   0.04123   0.42153   0.00000  Uiso   1.00
N458   N     0.44419   0.24026   0.19634   0.00000  Uiso   1.00
N459   N     0.43865   0.86050   0.95523   0.00000  Uiso   1.00
N460   N     0.27854   0.98123   0.40398   0.00000  Uiso   1.00
C461   C     0.71328   0.21146   0.33955   0.00000  Uiso   1.00
C462   C     0.63364   0.23481   0.35537   0.00000  Uiso   1.00
C463   C     0.60420   0.19532   0.32652   0.00000  Uiso   1.00
C464   C     0.53013   0.22606   0.34773   0.00000  Uiso   1.00
C465   C     0.41304   0.25201   0.36492   0.00000  Uiso   1.00
C466   C     0.73799   0.26430   0.31581   0.00000  Uiso   1.00
C467   C     0.79629   0.24959   0.25371   0.00000  Uiso   1.00
C468   C     0.81007   0.30516   0.24163   0.00000  Uiso   1.00
C469   C     0.85500   0.37688   0.19743   0.00000  Uiso   1.00
C470   C     0.71393   0.22083   0.40843   0.00000  Uiso   1.00
C471   C     0.75201   0.16958   0.42420   0.00000  Uiso   1.00
C472   C     0.74553   0.18855   0.49009   0.00000  Uiso   1.00
C473   C     0.75310   0.19278   0.58968   0.00000  Uiso   1.00
C474   C     0.63409   0.33629   0.42852   0.00000  Uiso   1.00
C475   C     0.59063   0.30261   0.40369   0.00000  Uiso   1.00
C476   C     0.51659   0.33342   0.42495   0.00000  Uiso   1.00
C477   C     0.48704   0.29398   0.39614   0.00000  Uiso   1.00
C478   C     0.69498   0.33209   0.36413   0.00000  Uiso   1.00
C479   C     0.70868   0.38769   0.35214   0.00000  Uiso   1.00
C480   C     0.76698   0.37308   0.29004   0.00000  Uiso   1.00
C481   C     0.67091   0.28863   0.45675   0.00000  Uiso   1.00
C482   C     0.66439   0.30768   0.52263   0.00000  Uiso   1.00
C483   C     0.70244   0.25648   0.53850   0.00000  Uiso   1.00
H484   H     0.74677   0.15868   0.30192   0.00000  Uiso   1.00
H485   H     0.63751   0.14285   0.28912   0.00000  Uiso   1.00
H486   H     0.82957   0.19712   0.21633   0.00000  Uiso   1.00
H487   H     0.78528   0.11712   0.38679   0.00000  Uiso   1.00
H488   H     0.49742   0.15521   0.29622   0.00000  Uiso   1.00
H489   H     0.90240   0.26963   0.14274   0.00000  Uiso   1.00
H490   H     0.80902   0.10094   0.50218   0.00000  Uiso   1.00
H491   H     0.60060   0.38907   0.46614   0.00000  Uiso   1.00
H492   H     0.48332   0.38589   0.46235   0.00000  Uiso   1.00
H493   H     0.67538   0.44015   0.38955   0.00000  Uiso   1.00
H494   H     0.63110   0.36016   0.56001   0.00000  Uiso   1.00
H495   H     0.37227   0.35247   0.43681   0.00000  Uiso   1.00
H496   H     0.77726   0.46689   0.28333   0.00000  Uiso   1.00
H497   H     0.68387   0.29820   0.64278   0.00000  Uiso   1.00
O498   O     0.36033   0.24760   0.36104   0.00000  Uiso   1.00
O499   O     0.89167   0.39771   0.15969   0.00000  Uiso   1.00
O500   O     0.76915   0.17639   0.63127   0.00000  Uiso   1.00
N501   N     0.48405   0.20207   0.32984   0.00000  Uiso   1.00
N502   N     0.86269   0.30905   0.18634   0.00000  Uiso   1.00
N503   N     0.77540   0.15134   0.52238   0.00000  Uiso   1.00
N504   N     0.41671   0.30821   0.40549   0.00000  Uiso   1.00
N505   N     0.79535   0.41519   0.26199   0.00000  Uiso   1.00
N506   N     0.70806   0.25748   0.59804   0.00000  Uiso   1.00
C507   C     0.04204   0.69252   0.10615   0.00000  Uiso   1.00
C508   C     0.08537   0.61476   0.06640   0.00000  Uiso   1.00
C509   C     0.15236   0.58308   0.00797   0.00000  Uiso   1.00
C510   C     0.18310   0.51130   0.97918   0.00000  Uiso   1.00
C511   C     0.25570   0.39643   0.91307   0.00000  Uiso   1.00
C512   C     0.96782   0.70873   0.10817   0.00000  Uiso   1.00
C513   C     0.93597   0.75608   0.08487   0.00000  Uiso   1.00
C514   C     0.86776   0.76342   0.09126   0.00000  Uiso   1.00
C515   C     0.75783   0.79450   0.09005   0.00000  Uiso   1.00
C516   C     0.02870   0.70530   0.18005   0.00000  Uiso   1.00
C517   C     0.04803   0.74977   0.21720   0.00000  Uiso   1.00
C518   C     0.03106   0.75423   0.28411   0.00000  Uiso   1.00
C519   C     0.01567   0.77997   0.39451   0.00000  Uiso   1.00
C520   C     0.97751   0.62137   0.15893   0.00000  Uiso   1.00
C521   C     0.05032   0.57611   0.09507   0.00000  Uiso   1.00
C522   C     0.08097   0.50436   0.06636   0.00000  Uiso   1.00
C523   C     0.14800   0.47258   0.00790   0.00000  Uiso   1.00
C524   C     0.93277   0.67009   0.13684   0.00000  Uiso   1.00
C525   C     0.86459   0.67736   0.14327   0.00000  Uiso   1.00
C526   C     0.83265   0.72470   0.11998   0.00000  Uiso   1.00
C527   C     0.99366   0.66665   0.20872   0.00000  Uiso   1.00
C528   C     0.97665   0.67105   0.27559   0.00000  Uiso   1.00
C529   C     0.99595   0.71551   0.31283   0.00000  Uiso   1.00
H530   H     0.06932   0.72261   0.08383   0.00000  Uiso   1.00
H531   H     0.17946   0.61300   0.98579   0.00000  Uiso   1.00
H532   H     0.96310   0.78598   0.06270   0.00000  Uiso   1.00
H533   H     0.07515   0.77967   0.19500   0.00000  Uiso   1.00
H534   H     0.28610   0.47445   0.88972   0.00000  Uiso   1.00
H535   H     0.82990   0.83920   0.05190   0.00000  Uiso   1.00
H536   H     0.06617   0.82589   0.33089   0.00000  Uiso   1.00
H537   H     0.95023   0.59128   0.18125   0.00000  Uiso   1.00
H538   H     0.05384   0.47446   0.08856   0.00000  Uiso   1.00
H539   H     0.83748   0.64745   0.16546   0.00000  Uiso   1.00
H540   H     0.94953   0.64113   0.29776   0.00000  Uiso   1.00
H541   H     0.18414   0.36200   0.97313   0.00000  Uiso   1.00
H542   H     0.72793   0.72676   0.13531   0.00000  Uiso   1.00
H543   H     0.96421   0.71345   0.41429   0.00000  Uiso   1.00
O544   O     0.30542   0.34375   0.86868   0.00000  Uiso   1.00
O545   O     0.70689   0.82231   0.08146   0.00000  Uiso   1.00
O546   O     0.01688   0.80484   0.44748   0.00000  Uiso   1.00
N547   N     0.24789   0.46401   0.92208   0.00000  Uiso   1.00
N548   N     0.82137   0.80503   0.07370   0.00000  Uiso   1.00
N549   N     0.04225   0.79260   0.33454   0.00000  Uiso   1.00
N550   N     0.19303   0.40351   0.96696   0.00000  Uiso   1.00
N551   N     0.76651   0.74453   0.11858   0.00000  Uiso   1.00
N552   N     0.98739   0.73210   0.37942   0.00000  Uiso   1.00
