data_job_01420
_audit_creation_date              2018-12-19
_audit_creation_method            'Materials Studio'
_symmetry_space_group_name_H-M    'P1'
_symmetry_Int_Tables_number       1
_symmetry_cell_setting            triclinic
loop_
_symmetry_equiv_pos_as_xyz
  x,y,z
_cell_length_a                    19.6408
_cell_length_b                    32.3518
_cell_length_c                    9.5468
_cell_angle_alpha                 90.0000
_cell_angle_beta                  90.0000
_cell_angle_gamma                 90.0000
loop_
_atom_site_label
_atom_site_type_symbol
_atom_site_fract_x
_atom_site_fract_y
_atom_site_fract_z
_atom_site_U_iso_or_equiv
_atom_site_adp_type
_atom_site_occupancy
C1     C     0.02449   0.83943   0.90866   0.00000  Uiso   1.00
C2     C     0.95496   0.82161   0.87115   0.00000  Uiso   1.00
C3     C     0.94328   0.78846   0.78206   0.00000  Uiso   1.00
C4     C     0.87597   0.77687   0.76125   0.00000  Uiso   1.00
C5     C     0.77617   0.74605   0.69292   0.00000  Uiso   1.00
C6     C     0.02158   0.88513   0.87007   0.00000  Uiso   1.00
C7     C     0.06592   0.90539   0.78008   0.00000  Uiso   1.00
C8     C     0.05469   0.94728   0.75837   0.00000  Uiso   1.00
C9     C     0.05834   0.01508   0.68844   0.00000  Uiso   1.00
C10    C     0.02925   0.83783   0.06799   0.00000  Uiso   1.00
C11    C     0.08005   0.81833   0.14443   0.00000  Uiso   1.00
C12    C     0.07529   0.82040   0.28937   0.00000  Uiso   1.00
C13    C     0.09086   0.81476   0.52675   0.00000  Uiso   1.00
C14    C     0.92572   0.87778   0.03013   0.00000  Uiso   1.00
C15    C     0.90132   0.84244   0.93713   0.00000  Uiso   1.00
C16    C     0.83401   0.83090   0.91646   0.00000  Uiso   1.00
C17    C     0.82223   0.79774   0.82735   0.00000  Uiso   1.00
C18    C     0.96793   0.90597   0.93604   0.00000  Uiso   1.00
C19    C     0.95664   0.94783   0.91447   0.00000  Uiso   1.00
C20    C     0.00095   0.96815   0.82447   0.00000  Uiso   1.00
C21    C     0.97560   0.85866   0.13398   0.00000  Uiso   1.00
C22    C     0.97077   0.86077   0.27882   0.00000  Uiso   1.00
C23    C     0.02155   0.84127   0.35547   0.00000  Uiso   1.00
H24    H     0.06625   0.82321   0.85729   0.00000  Uiso   1.00
H25    H     0.98481   0.77235   0.73101   0.00000  Uiso   1.00
H26    H     0.10743   0.88926   0.72905   0.00000  Uiso   1.00
H27    H     0.12155   0.80221   0.09334   0.00000  Uiso   1.00
H28    H     0.87085   0.72516   0.62007   0.00000  Uiso   1.00
H29    H     0.12941   0.97168   0.61596   0.00000  Uiso   1.00
H30    H     0.15921   0.78811   0.38414   0.00000  Uiso   1.00
H31    H     0.88396   0.89401   0.08150   0.00000  Uiso   1.00
H32    H     0.79251   0.84703   0.96753   0.00000  Uiso   1.00
H33    H     0.91513   0.96395   0.96555   0.00000  Uiso   1.00
H34    H     0.92925   0.87689   0.32985   0.00000  Uiso   1.00
H35    H     0.71477   0.78577   0.81202   0.00000  Uiso   1.00
H36    H     0.97334   0.03230   0.80792   0.00000  Uiso   1.00
H37    H     0.00313   0.84873   0.57610   0.00000  Uiso   1.00
O38    O     0.73594   0.72330   0.63699   0.00000  Uiso   1.00
O39    O     0.07517   0.04673   0.63162   0.00000  Uiso   1.00
O40    O     0.11426   0.80588   0.63945   0.00000  Uiso   1.00
N41    N     0.84667   0.74587   0.68091   0.00000  Uiso   1.00
N42    N     0.08840   0.97635   0.67704   0.00000  Uiso   1.00
N43    N     0.11627   0.80474   0.39524   0.00000  Uiso   1.00
N44    N     0.76268   0.77848   0.78420   0.00000  Uiso   1.00
N45    N     0.00442   0.00897   0.78034   0.00000  Uiso   1.00
N46    N     0.03228   0.83735   0.49853   0.00000  Uiso   1.00
C47    C     0.47551   0.16057   0.40866   0.00000  Uiso   1.00
C48    C     0.54504   0.17839   0.37115   0.00000  Uiso   1.00
C49    C     0.55672   0.21154   0.28206   0.00000  Uiso   1.00
C50    C     0.62403   0.22313   0.26125   0.00000  Uiso   1.00
C51    C     0.72383   0.25395   0.19292   0.00000  Uiso   1.00
C52    C     0.47842   0.11487   0.37007   0.00000  Uiso   1.00
C53    C     0.43408   0.09461   0.28008   0.00000  Uiso   1.00
C54    C     0.44531   0.05272   0.25837   0.00000  Uiso   1.00
C55    C     0.44166   0.98492   0.18844   0.00000  Uiso   1.00
C56    C     0.47075   0.16217   0.56799   0.00000  Uiso   1.00
C57    C     0.41995   0.18167   0.64443   0.00000  Uiso   1.00
C58    C     0.42471   0.17960   0.78937   0.00000  Uiso   1.00
C59    C     0.40914   0.18524   0.02675   0.00000  Uiso   1.00
C60    C     0.57428   0.12222   0.53013   0.00000  Uiso   1.00
C61    C     0.59868   0.15756   0.43713   0.00000  Uiso   1.00
C62    C     0.66599   0.16910   0.41646   0.00000  Uiso   1.00
C63    C     0.67777   0.20226   0.32735   0.00000  Uiso   1.00
C64    C     0.53207   0.09403   0.43604   0.00000  Uiso   1.00
C65    C     0.54336   0.05217   0.41447   0.00000  Uiso   1.00
C66    C     0.49905   0.03185   0.32447   0.00000  Uiso   1.00
C67    C     0.52440   0.14134   0.63398   0.00000  Uiso   1.00
C68    C     0.52923   0.13923   0.77882   0.00000  Uiso   1.00
C69    C     0.47845   0.15873   0.85547   0.00000  Uiso   1.00
H70    H     0.43375   0.17679   0.35729   0.00000  Uiso   1.00
H71    H     0.51519   0.22765   0.23101   0.00000  Uiso   1.00
H72    H     0.39257   0.11074   0.22905   0.00000  Uiso   1.00
H73    H     0.37845   0.19779   0.59334   0.00000  Uiso   1.00
H74    H     0.62915   0.27484   0.12007   0.00000  Uiso   1.00
H75    H     0.37059   0.02832   0.11596   0.00000  Uiso   1.00
H76    H     0.34079   0.21189   0.88414   0.00000  Uiso   1.00
H77    H     0.61604   0.10599   0.58150   0.00000  Uiso   1.00
H78    H     0.70749   0.15297   0.46753   0.00000  Uiso   1.00
H79    H     0.58487   0.03605   0.46555   0.00000  Uiso   1.00
H80    H     0.57075   0.12311   0.82985   0.00000  Uiso   1.00
H81    H     0.78523   0.21423   0.31202   0.00000  Uiso   1.00
H82    H     0.52666   0.96770   0.30792   0.00000  Uiso   1.00
H83    H     0.49687   0.15127   0.07610   0.00000  Uiso   1.00
O84    O     0.76406   0.27670   0.13699   0.00000  Uiso   1.00
O85    O     0.42483   0.95327   0.13162   0.00000  Uiso   1.00
O86    O     0.38574   0.19412   0.13945   0.00000  Uiso   1.00
N87    N     0.65333   0.25413   0.18091   0.00000  Uiso   1.00
N88    N     0.41160   0.02365   0.17704   0.00000  Uiso   1.00
N89    N     0.38373   0.19526   0.89524   0.00000  Uiso   1.00
N90    N     0.73732   0.22152   0.28420   0.00000  Uiso   1.00
N91    N     0.49558   0.99103   0.28034   0.00000  Uiso   1.00
N92    N     0.46772   0.16265   0.99853   0.00000  Uiso   1.00
C93    C     0.97551   0.33943   0.59134   0.00000  Uiso   1.00
C94    C     0.04504   0.32161   0.62885   0.00000  Uiso   1.00
C95    C     0.05672   0.28846   0.71794   0.00000  Uiso   1.00
C96    C     0.12403   0.27687   0.73875   0.00000  Uiso   1.00
C97    C     0.22383   0.24605   0.80708   0.00000  Uiso   1.00
C98    C     0.97842   0.38513   0.62993   0.00000  Uiso   1.00
C99    C     0.93408   0.40539   0.71992   0.00000  Uiso   1.00
C100   C     0.94531   0.44728   0.74163   0.00000  Uiso   1.00
C101   C     0.94166   0.51508   0.81156   0.00000  Uiso   1.00
C102   C     0.97075   0.33783   0.43201   0.00000  Uiso   1.00
C103   C     0.91995   0.31833   0.35557   0.00000  Uiso   1.00
C104   C     0.92471   0.32040   0.21063   0.00000  Uiso   1.00
C105   C     0.90914   0.31476   0.97325   0.00000  Uiso   1.00
C106   C     0.07428   0.37778   0.46987   0.00000  Uiso   1.00
C107   C     0.09868   0.34244   0.56287   0.00000  Uiso   1.00
C108   C     0.16599   0.33090   0.58354   0.00000  Uiso   1.00
C109   C     0.17777   0.29774   0.67265   0.00000  Uiso   1.00
C110   C     0.03207   0.40597   0.56396   0.00000  Uiso   1.00
C111   C     0.04336   0.44783   0.58553   0.00000  Uiso   1.00
C112   C     0.99905   0.46815   0.67553   0.00000  Uiso   1.00
C113   C     0.02440   0.35866   0.36602   0.00000  Uiso   1.00
C114   C     0.02923   0.36077   0.22118   0.00000  Uiso   1.00
C115   C     0.97845   0.34127   0.14453   0.00000  Uiso   1.00
H116   H     0.93375   0.32321   0.64271   0.00000  Uiso   1.00
H117   H     0.01519   0.27235   0.76899   0.00000  Uiso   1.00
H118   H     0.89257   0.38926   0.77095   0.00000  Uiso   1.00
H119   H     0.87845   0.30221   0.40666   0.00000  Uiso   1.00
H120   H     0.12915   0.22516   0.87993   0.00000  Uiso   1.00
H121   H     0.87059   0.47168   0.88404   0.00000  Uiso   1.00
H122   H     0.84079   0.28811   0.11586   0.00000  Uiso   1.00
H123   H     0.11604   0.39401   0.41850   0.00000  Uiso   1.00
H124   H     0.20749   0.34703   0.53247   0.00000  Uiso   1.00
H125   H     0.08487   0.46395   0.53445   0.00000  Uiso   1.00
H126   H     0.07075   0.37689   0.17015   0.00000  Uiso   1.00
H127   H     0.28523   0.28577   0.68798   0.00000  Uiso   1.00
H128   H     0.02666   0.53230   0.69208   0.00000  Uiso   1.00
H129   H     0.99687   0.34873   0.92390   0.00000  Uiso   1.00
O130   O     0.26406   0.22330   0.86301   0.00000  Uiso   1.00
O131   O     0.92483   0.54673   0.86838   0.00000  Uiso   1.00
O132   O     0.88574   0.30588   0.86055   0.00000  Uiso   1.00
N133   N     0.15333   0.24587   0.81909   0.00000  Uiso   1.00
N134   N     0.91160   0.47635   0.82296   0.00000  Uiso   1.00
N135   N     0.88373   0.30474   0.10476   0.00000  Uiso   1.00
N136   N     0.23732   0.27848   0.71580   0.00000  Uiso   1.00
N137   N     0.99558   0.50897   0.71966   0.00000  Uiso   1.00
N138   N     0.96772   0.33735   0.00147   0.00000  Uiso   1.00
C139   C     0.52449   0.66057   0.09134   0.00000  Uiso   1.00
C140   C     0.45496   0.67839   0.12885   0.00000  Uiso   1.00
C141   C     0.44328   0.71154   0.21794   0.00000  Uiso   1.00
C142   C     0.37597   0.72313   0.23875   0.00000  Uiso   1.00
C143   C     0.27617   0.75395   0.30708   0.00000  Uiso   1.00
C144   C     0.52158   0.61487   0.12993   0.00000  Uiso   1.00
C145   C     0.56592   0.59461   0.21992   0.00000  Uiso   1.00
C146   C     0.55469   0.55272   0.24163   0.00000  Uiso   1.00
C147   C     0.55834   0.48492   0.31156   0.00000  Uiso   1.00
C148   C     0.52925   0.66217   0.93201   0.00000  Uiso   1.00
C149   C     0.58005   0.68167   0.85557   0.00000  Uiso   1.00
C150   C     0.57529   0.67960   0.71063   0.00000  Uiso   1.00
C151   C     0.59086   0.68524   0.47325   0.00000  Uiso   1.00
C152   C     0.42572   0.62222   0.96987   0.00000  Uiso   1.00
C153   C     0.40132   0.65756   0.06287   0.00000  Uiso   1.00
C154   C     0.33401   0.66910   0.08354   0.00000  Uiso   1.00
C155   C     0.32223   0.70226   0.17265   0.00000  Uiso   1.00
C156   C     0.46793   0.59403   0.06396   0.00000  Uiso   1.00
C157   C     0.45664   0.55217   0.08553   0.00000  Uiso   1.00
C158   C     0.50095   0.53185   0.17553   0.00000  Uiso   1.00
C159   C     0.47560   0.64134   0.86602   0.00000  Uiso   1.00
C160   C     0.47077   0.63923   0.72118   0.00000  Uiso   1.00
C161   C     0.52155   0.65873   0.64453   0.00000  Uiso   1.00
H162   H     0.56625   0.67679   0.14271   0.00000  Uiso   1.00
H163   H     0.48481   0.72765   0.26899   0.00000  Uiso   1.00
H164   H     0.60743   0.61074   0.27095   0.00000  Uiso   1.00
H165   H     0.62155   0.69779   0.90666   0.00000  Uiso   1.00
H166   H     0.37085   0.77484   0.37993   0.00000  Uiso   1.00
H167   H     0.62941   0.52832   0.38404   0.00000  Uiso   1.00
H168   H     0.65921   0.71189   0.61586   0.00000  Uiso   1.00
H169   H     0.38396   0.60599   0.91850   0.00000  Uiso   1.00
H170   H     0.29251   0.65297   0.03247   0.00000  Uiso   1.00
H171   H     0.41513   0.53605   0.03445   0.00000  Uiso   1.00
H172   H     0.42925   0.62311   0.67015   0.00000  Uiso   1.00
H173   H     0.21477   0.71423   0.18798   0.00000  Uiso   1.00
H174   H     0.47334   0.46770   0.19208   0.00000  Uiso   1.00
H175   H     0.50313   0.65127   0.42390   0.00000  Uiso   1.00
O176   O     0.23594   0.77670   0.36301   0.00000  Uiso   1.00
O177   O     0.57517   0.45327   0.36838   0.00000  Uiso   1.00
O178   O     0.61426   0.69412   0.36055   0.00000  Uiso   1.00
N179   N     0.34667   0.75413   0.31909   0.00000  Uiso   1.00
N180   N     0.58840   0.52365   0.32296   0.00000  Uiso   1.00
N181   N     0.61627   0.69526   0.60476   0.00000  Uiso   1.00
N182   N     0.26268   0.72152   0.21580   0.00000  Uiso   1.00
N183   N     0.50442   0.49103   0.21966   0.00000  Uiso   1.00
N184   N     0.53228   0.66265   0.50147   0.00000  Uiso   1.00
C185   C     0.97551   0.16057   0.09134   0.00000  Uiso   1.00
C186   C     0.04504   0.17839   0.12885   0.00000  Uiso   1.00
C187   C     0.05672   0.21154   0.21794   0.00000  Uiso   1.00
C188   C     0.12403   0.22313   0.23875   0.00000  Uiso   1.00
C189   C     0.22383   0.25395   0.30708   0.00000  Uiso   1.00
C190   C     0.97842   0.11487   0.12993   0.00000  Uiso   1.00
C191   C     0.93408   0.09461   0.21992   0.00000  Uiso   1.00
C192   C     0.94531   0.05272   0.24163   0.00000  Uiso   1.00
C193   C     0.94166   0.98492   0.31156   0.00000  Uiso   1.00
C194   C     0.97075   0.16217   0.93201   0.00000  Uiso   1.00
C195   C     0.91995   0.18167   0.85557   0.00000  Uiso   1.00
C196   C     0.92471   0.17960   0.71063   0.00000  Uiso   1.00
C197   C     0.90914   0.18524   0.47325   0.00000  Uiso   1.00
C198   C     0.07428   0.12222   0.96987   0.00000  Uiso   1.00
C199   C     0.09868   0.15756   0.06287   0.00000  Uiso   1.00
C200   C     0.16599   0.16910   0.08354   0.00000  Uiso   1.00
C201   C     0.17777   0.20226   0.17265   0.00000  Uiso   1.00
C202   C     0.03207   0.09403   0.06396   0.00000  Uiso   1.00
C203   C     0.04336   0.05217   0.08553   0.00000  Uiso   1.00
C204   C     0.99905   0.03185   0.17553   0.00000  Uiso   1.00
C205   C     0.02440   0.14134   0.86602   0.00000  Uiso   1.00
C206   C     0.02923   0.13923   0.72118   0.00000  Uiso   1.00
C207   C     0.97845   0.15873   0.64453   0.00000  Uiso   1.00
H208   H     0.93375   0.17679   0.14271   0.00000  Uiso   1.00
H209   H     0.01519   0.22765   0.26899   0.00000  Uiso   1.00
H210   H     0.89257   0.11074   0.27095   0.00000  Uiso   1.00
H211   H     0.87845   0.19779   0.90666   0.00000  Uiso   1.00
H212   H     0.12915   0.27484   0.37993   0.00000  Uiso   1.00
H213   H     0.87059   0.02832   0.38404   0.00000  Uiso   1.00
H214   H     0.84079   0.21189   0.61586   0.00000  Uiso   1.00
H215   H     0.11604   0.10599   0.91850   0.00000  Uiso   1.00
H216   H     0.20749   0.15297   0.03247   0.00000  Uiso   1.00
H217   H     0.08487   0.03605   0.03445   0.00000  Uiso   1.00
H218   H     0.07075   0.12311   0.67015   0.00000  Uiso   1.00
H219   H     0.28523   0.21423   0.18798   0.00000  Uiso   1.00
H220   H     0.02666   0.96770   0.19208   0.00000  Uiso   1.00
H221   H     0.99687   0.15127   0.42390   0.00000  Uiso   1.00
O222   O     0.26406   0.27670   0.36301   0.00000  Uiso   1.00
O223   O     0.92483   0.95327   0.36838   0.00000  Uiso   1.00
O224   O     0.88574   0.19412   0.36055   0.00000  Uiso   1.00
N225   N     0.15333   0.25413   0.31909   0.00000  Uiso   1.00
N226   N     0.91160   0.02365   0.32296   0.00000  Uiso   1.00
N227   N     0.88373   0.19526   0.60476   0.00000  Uiso   1.00
N228   N     0.23732   0.22152   0.21580   0.00000  Uiso   1.00
N229   N     0.99558   0.99103   0.21966   0.00000  Uiso   1.00
N230   N     0.96772   0.16265   0.50147   0.00000  Uiso   1.00
C231   C     0.52449   0.83943   0.59134   0.00000  Uiso   1.00
C232   C     0.45496   0.82161   0.62885   0.00000  Uiso   1.00
C233   C     0.44328   0.78846   0.71794   0.00000  Uiso   1.00
C234   C     0.37597   0.77687   0.73875   0.00000  Uiso   1.00
C235   C     0.27617   0.74605   0.80708   0.00000  Uiso   1.00
C236   C     0.52158   0.88513   0.62993   0.00000  Uiso   1.00
C237   C     0.56592   0.90539   0.71992   0.00000  Uiso   1.00
C238   C     0.55469   0.94728   0.74163   0.00000  Uiso   1.00
C239   C     0.55834   0.01508   0.81156   0.00000  Uiso   1.00
C240   C     0.52925   0.83783   0.43201   0.00000  Uiso   1.00
C241   C     0.58005   0.81833   0.35557   0.00000  Uiso   1.00
C242   C     0.57529   0.82040   0.21063   0.00000  Uiso   1.00
C243   C     0.59086   0.81476   0.97325   0.00000  Uiso   1.00
C244   C     0.42572   0.87778   0.46987   0.00000  Uiso   1.00
C245   C     0.40132   0.84244   0.56287   0.00000  Uiso   1.00
C246   C     0.33401   0.83090   0.58354   0.00000  Uiso   1.00
C247   C     0.32223   0.79774   0.67265   0.00000  Uiso   1.00
C248   C     0.46793   0.90597   0.56396   0.00000  Uiso   1.00
C249   C     0.45664   0.94783   0.58553   0.00000  Uiso   1.00
C250   C     0.50095   0.96815   0.67553   0.00000  Uiso   1.00
C251   C     0.47560   0.85866   0.36602   0.00000  Uiso   1.00
C252   C     0.47077   0.86077   0.22118   0.00000  Uiso   1.00
C253   C     0.52155   0.84127   0.14453   0.00000  Uiso   1.00
H254   H     0.56625   0.82321   0.64271   0.00000  Uiso   1.00
H255   H     0.48481   0.77235   0.76899   0.00000  Uiso   1.00
H256   H     0.60743   0.88926   0.77095   0.00000  Uiso   1.00
H257   H     0.62155   0.80221   0.40666   0.00000  Uiso   1.00
H258   H     0.37085   0.72516   0.87993   0.00000  Uiso   1.00
H259   H     0.62941   0.97168   0.88404   0.00000  Uiso   1.00
H260   H     0.65921   0.78811   0.11586   0.00000  Uiso   1.00
H261   H     0.38396   0.89401   0.41850   0.00000  Uiso   1.00
H262   H     0.29251   0.84703   0.53247   0.00000  Uiso   1.00
H263   H     0.41513   0.96395   0.53445   0.00000  Uiso   1.00
H264   H     0.42925   0.87689   0.17015   0.00000  Uiso   1.00
H265   H     0.21477   0.78577   0.68798   0.00000  Uiso   1.00
H266   H     0.47334   0.03230   0.69208   0.00000  Uiso   1.00
H267   H     0.50313   0.84873   0.92390   0.00000  Uiso   1.00
O268   O     0.23594   0.72330   0.86301   0.00000  Uiso   1.00
O269   O     0.57517   0.04673   0.86838   0.00000  Uiso   1.00
O270   O     0.61426   0.80588   0.86055   0.00000  Uiso   1.00
N271   N     0.34667   0.74587   0.81909   0.00000  Uiso   1.00
N272   N     0.58840   0.97635   0.82296   0.00000  Uiso   1.00
N273   N     0.61627   0.80474   0.10476   0.00000  Uiso   1.00
N274   N     0.26268   0.77848   0.71580   0.00000  Uiso   1.00
N275   N     0.50442   0.00897   0.71966   0.00000  Uiso   1.00
N276   N     0.53228   0.83735   0.00147   0.00000  Uiso   1.00
C277   C     0.02449   0.66057   0.40866   0.00000  Uiso   1.00
C278   C     0.95496   0.67839   0.37115   0.00000  Uiso   1.00
C279   C     0.94328   0.71154   0.28206   0.00000  Uiso   1.00
C280   C     0.87597   0.72313   0.26125   0.00000  Uiso   1.00
C281   C     0.77617   0.75395   0.19292   0.00000  Uiso   1.00
C282   C     0.02158   0.61487   0.37007   0.00000  Uiso   1.00
C283   C     0.06592   0.59461   0.28008   0.00000  Uiso   1.00
C284   C     0.05469   0.55272   0.25837   0.00000  Uiso   1.00
C285   C     0.05834   0.48492   0.18844   0.00000  Uiso   1.00
C286   C     0.02925   0.66217   0.56799   0.00000  Uiso   1.00
C287   C     0.08005   0.68167   0.64443   0.00000  Uiso   1.00
C288   C     0.07529   0.67960   0.78937   0.00000  Uiso   1.00
C289   C     0.09086   0.68524   0.02675   0.00000  Uiso   1.00
C290   C     0.92572   0.62222   0.53013   0.00000  Uiso   1.00
C291   C     0.90132   0.65756   0.43713   0.00000  Uiso   1.00
C292   C     0.83401   0.66910   0.41646   0.00000  Uiso   1.00
C293   C     0.82223   0.70226   0.32735   0.00000  Uiso   1.00
C294   C     0.96793   0.59403   0.43604   0.00000  Uiso   1.00
C295   C     0.95664   0.55217   0.41447   0.00000  Uiso   1.00
C296   C     0.00095   0.53185   0.32447   0.00000  Uiso   1.00
C297   C     0.97560   0.64134   0.63398   0.00000  Uiso   1.00
C298   C     0.97077   0.63923   0.77882   0.00000  Uiso   1.00
C299   C     0.02155   0.65873   0.85547   0.00000  Uiso   1.00
H300   H     0.06625   0.67679   0.35729   0.00000  Uiso   1.00
H301   H     0.98481   0.72765   0.23101   0.00000  Uiso   1.00
H302   H     0.10743   0.61074   0.22905   0.00000  Uiso   1.00
H303   H     0.12155   0.69779   0.59334   0.00000  Uiso   1.00
H304   H     0.87085   0.77484   0.12007   0.00000  Uiso   1.00
H305   H     0.12941   0.52832   0.11596   0.00000  Uiso   1.00
H306   H     0.15921   0.71189   0.88414   0.00000  Uiso   1.00
H307   H     0.88396   0.60599   0.58150   0.00000  Uiso   1.00
H308   H     0.79251   0.65297   0.46753   0.00000  Uiso   1.00
H309   H     0.91513   0.53605   0.46555   0.00000  Uiso   1.00
H310   H     0.92925   0.62311   0.82985   0.00000  Uiso   1.00
H311   H     0.71477   0.71423   0.31202   0.00000  Uiso   1.00
H312   H     0.97334   0.46770   0.30792   0.00000  Uiso   1.00
H313   H     0.00313   0.65127   0.07610   0.00000  Uiso   1.00
O314   O     0.73594   0.77670   0.13699   0.00000  Uiso   1.00
O315   O     0.07517   0.45327   0.13162   0.00000  Uiso   1.00
O316   O     0.11426   0.69412   0.13945   0.00000  Uiso   1.00
N317   N     0.84667   0.75413   0.18091   0.00000  Uiso   1.00
N318   N     0.08840   0.52365   0.17704   0.00000  Uiso   1.00
N319   N     0.11627   0.69526   0.89524   0.00000  Uiso   1.00
N320   N     0.76268   0.72152   0.28420   0.00000  Uiso   1.00
N321   N     0.00442   0.49103   0.28034   0.00000  Uiso   1.00
N322   N     0.03228   0.66265   0.99853   0.00000  Uiso   1.00
C323   C     0.47551   0.33943   0.90866   0.00000  Uiso   1.00
C324   C     0.54504   0.32161   0.87115   0.00000  Uiso   1.00
C325   C     0.55672   0.28846   0.78206   0.00000  Uiso   1.00
C326   C     0.62403   0.27687   0.76125   0.00000  Uiso   1.00
C327   C     0.72383   0.24605   0.69292   0.00000  Uiso   1.00
C328   C     0.47842   0.38513   0.87007   0.00000  Uiso   1.00
C329   C     0.43408   0.40539   0.78008   0.00000  Uiso   1.00
C330   C     0.44531   0.44728   0.75837   0.00000  Uiso   1.00
C331   C     0.44166   0.51508   0.68844   0.00000  Uiso   1.00
C332   C     0.47075   0.33783   0.06799   0.00000  Uiso   1.00
C333   C     0.41995   0.31833   0.14443   0.00000  Uiso   1.00
C334   C     0.42471   0.32040   0.28937   0.00000  Uiso   1.00
C335   C     0.40914   0.31476   0.52675   0.00000  Uiso   1.00
C336   C     0.57428   0.37778   0.03013   0.00000  Uiso   1.00
C337   C     0.59868   0.34244   0.93713   0.00000  Uiso   1.00
C338   C     0.66599   0.33090   0.91646   0.00000  Uiso   1.00
C339   C     0.67777   0.29774   0.82735   0.00000  Uiso   1.00
C340   C     0.53207   0.40597   0.93604   0.00000  Uiso   1.00
C341   C     0.54336   0.44783   0.91447   0.00000  Uiso   1.00
C342   C     0.49905   0.46815   0.82447   0.00000  Uiso   1.00
C343   C     0.52440   0.35866   0.13398   0.00000  Uiso   1.00
C344   C     0.52923   0.36077   0.27882   0.00000  Uiso   1.00
C345   C     0.47845   0.34127   0.35547   0.00000  Uiso   1.00
H346   H     0.43375   0.32321   0.85729   0.00000  Uiso   1.00
H347   H     0.51519   0.27235   0.73101   0.00000  Uiso   1.00
H348   H     0.39257   0.38926   0.72905   0.00000  Uiso   1.00
H349   H     0.37845   0.30221   0.09334   0.00000  Uiso   1.00
H350   H     0.62915   0.22516   0.62007   0.00000  Uiso   1.00
H351   H     0.37059   0.47168   0.61596   0.00000  Uiso   1.00
H352   H     0.34079   0.28811   0.38414   0.00000  Uiso   1.00
H353   H     0.61604   0.39401   0.08150   0.00000  Uiso   1.00
H354   H     0.70749   0.34703   0.96753   0.00000  Uiso   1.00
H355   H     0.58487   0.46395   0.96555   0.00000  Uiso   1.00
H356   H     0.57075   0.37689   0.32985   0.00000  Uiso   1.00
H357   H     0.78523   0.28577   0.81202   0.00000  Uiso   1.00
H358   H     0.52666   0.53230   0.80792   0.00000  Uiso   1.00
H359   H     0.49687   0.34873   0.57610   0.00000  Uiso   1.00
O360   O     0.76406   0.22330   0.63699   0.00000  Uiso   1.00
O361   O     0.42483   0.54673   0.63162   0.00000  Uiso   1.00
O362   O     0.38574   0.30588   0.63945   0.00000  Uiso   1.00
N363   N     0.65333   0.24587   0.68091   0.00000  Uiso   1.00
N364   N     0.41160   0.47635   0.67704   0.00000  Uiso   1.00
N365   N     0.38373   0.30474   0.39524   0.00000  Uiso   1.00
N366   N     0.73732   0.27848   0.78420   0.00000  Uiso   1.00
N367   N     0.49558   0.50897   0.78034   0.00000  Uiso   1.00
N368   N     0.46772   0.33735   0.49853   0.00000  Uiso   1.00
