data_job_02222
_audit_creation_date              2018-12-19
_audit_creation_method            'Materials Studio'
_symmetry_space_group_name_H-M    'P1'
_symmetry_Int_Tables_number       1
_symmetry_cell_setting            triclinic
loop_
_symmetry_equiv_pos_as_xyz
  x,y,z
_cell_length_a                    20.1961
_cell_length_b                    16.5209
_cell_length_c                    15.5059
_cell_angle_alpha                 90.0000
_cell_angle_beta                  90.0000
_cell_angle_gamma                 90.0000
loop_
_atom_site_label
_atom_site_type_symbol
_atom_site_fract_x
_atom_site_fract_y
_atom_site_fract_z
_atom_site_U_iso_or_equiv
_atom_site_adp_type
_atom_site_occupancy
C1     C     0.51462   0.77856   0.20267   0.00000  Uiso   1.00
C2     C     0.49141   0.69807   0.16521   0.00000  Uiso   1.00
C3     C     0.47905   0.62800   0.21188   0.00000  Uiso   1.00
C4     C     0.45818   0.56068   0.16569   0.00000  Uiso   1.00
C5     C     0.42342   0.43527   0.12116   0.00000  Uiso   1.00
C6     C     0.57846   0.79973   0.15524   0.00000  Uiso   1.00
C7     C     0.63928   0.81516   0.19353   0.00000  Uiso   1.00
C8     C     0.69168   0.83343   0.13894   0.00000  Uiso   1.00
C9     C     0.79205   0.86592   0.07893   0.00000  Uiso   1.00
C10    C     0.46367   0.84132   0.17447   0.00000  Uiso   1.00
C11    C     0.42799   0.89174   0.22892   0.00000  Uiso   1.00
C12    C     0.38376   0.94504   0.19052   0.00000  Uiso   1.00
C13    C     0.30591   0.04210   0.16036   0.00000  Uiso   1.00
C14    C     0.49955   0.78359   0.03764   0.00000  Uiso   1.00
C15    C     0.48323   0.70080   0.07557   0.00000  Uiso   1.00
C16    C     0.46237   0.63357   0.02930   0.00000  Uiso   1.00
C17    C     0.44998   0.56342   0.07589   0.00000  Uiso   1.00
C18    C     0.57027   0.80247   0.06561   0.00000  Uiso   1.00
C19    C     0.62260   0.82073   0.01095   0.00000  Uiso   1.00
C20    C     0.68348   0.83617   0.04914   0.00000  Uiso   1.00
C21    C     0.45548   0.84406   0.08483   0.00000  Uiso   1.00
C22    C     0.41131   0.89730   0.04633   0.00000  Uiso   1.00
C23    C     0.37556   0.94778   0.10072   0.00000  Uiso   1.00
H24    H     0.52100   0.77643   0.27245   0.00000  Uiso   1.00
H25    H     0.48540   0.62591   0.28125   0.00000  Uiso   1.00
H26    H     0.64559   0.81305   0.26290   0.00000  Uiso   1.00
H27    H     0.43434   0.88961   0.29828   0.00000  Uiso   1.00
H28    H     0.44234   0.46023   0.25147   0.00000  Uiso   1.00
H29    H     0.78012   0.85484   0.21278   0.00000  Uiso   1.00
H30    H     0.33464   0.01628   0.28739   0.00000  Uiso   1.00
H31    H     0.49318   0.78572   0.96785   0.00000  Uiso   1.00
H32    H     0.45604   0.63570   0.95993   0.00000  Uiso   1.00
H33    H     0.61625   0.82284   0.94158   0.00000  Uiso   1.00
H34    H     0.40499   0.89940   0.97697   0.00000  Uiso   1.00
H35    H     0.41852   0.46817   0.99067   0.00000  Uiso   1.00
H36    H     0.75630   0.86279   0.95199   0.00000  Uiso   1.00
H37    H     0.31082   0.02423   0.02659   0.00000  Uiso   1.00
O38    O     0.40652   0.36534   0.12135   0.00000  Uiso   1.00
O39    O     0.84967   0.88307   0.07060   0.00000  Uiso   1.00
O40    O     0.26522   0.09487   0.16848   0.00000  Uiso   1.00
N41    N     0.44181   0.48269   0.19118   0.00000  Uiso   1.00
N42    N     0.75762   0.85162   0.15501   0.00000  Uiso   1.00
N43    N     0.34115   0.00257   0.22476   0.00000  Uiso   1.00
N44    N     0.42899   0.48696   0.05085   0.00000  Uiso   1.00
N45    N     0.74480   0.85589   0.01468   0.00000  Uiso   1.00
N46    N     0.32833   0.00684   0.08443   0.00000  Uiso   1.00
C47    C     0.98538   0.72144   0.20267   0.00000  Uiso   1.00
C48    C     0.00859   0.80193   0.16521   0.00000  Uiso   1.00
C49    C     0.02095   0.87200   0.21188   0.00000  Uiso   1.00
C50    C     0.04182   0.93932   0.16569   0.00000  Uiso   1.00
C51    C     0.07658   0.06473   0.12116   0.00000  Uiso   1.00
C52    C     0.92154   0.70027   0.15524   0.00000  Uiso   1.00
C53    C     0.86072   0.68484   0.19353   0.00000  Uiso   1.00
C54    C     0.80832   0.66657   0.13894   0.00000  Uiso   1.00
C55    C     0.70795   0.63408   0.07893   0.00000  Uiso   1.00
C56    C     0.03633   0.65868   0.17447   0.00000  Uiso   1.00
C57    C     0.07201   0.60826   0.22892   0.00000  Uiso   1.00
C58    C     0.11624   0.55496   0.19052   0.00000  Uiso   1.00
C59    C     0.19409   0.45790   0.16036   0.00000  Uiso   1.00
C60    C     0.00045   0.71641   0.03764   0.00000  Uiso   1.00
C61    C     0.01677   0.79920   0.07557   0.00000  Uiso   1.00
C62    C     0.03763   0.86643   0.02930   0.00000  Uiso   1.00
C63    C     0.05002   0.93658   0.07589   0.00000  Uiso   1.00
C64    C     0.92973   0.69753   0.06561   0.00000  Uiso   1.00
C65    C     0.87740   0.67927   0.01095   0.00000  Uiso   1.00
C66    C     0.81652   0.66383   0.04914   0.00000  Uiso   1.00
C67    C     0.04452   0.65594   0.08483   0.00000  Uiso   1.00
C68    C     0.08869   0.60270   0.04633   0.00000  Uiso   1.00
C69    C     0.12444   0.55222   0.10072   0.00000  Uiso   1.00
H70    H     0.97900   0.72357   0.27245   0.00000  Uiso   1.00
H71    H     0.01460   0.87409   0.28125   0.00000  Uiso   1.00
H72    H     0.85441   0.68695   0.26290   0.00000  Uiso   1.00
H73    H     0.06566   0.61039   0.29828   0.00000  Uiso   1.00
H74    H     0.05766   0.03977   0.25147   0.00000  Uiso   1.00
H75    H     0.71988   0.64516   0.21278   0.00000  Uiso   1.00
H76    H     0.16536   0.48372   0.28739   0.00000  Uiso   1.00
H77    H     0.00682   0.71428   0.96785   0.00000  Uiso   1.00
H78    H     0.04396   0.86430   0.95993   0.00000  Uiso   1.00
H79    H     0.88375   0.67716   0.94158   0.00000  Uiso   1.00
H80    H     0.09501   0.60060   0.97697   0.00000  Uiso   1.00
H81    H     0.08148   0.03183   0.99067   0.00000  Uiso   1.00
H82    H     0.74370   0.63721   0.95199   0.00000  Uiso   1.00
H83    H     0.18918   0.47577   0.02659   0.00000  Uiso   1.00
O84    O     0.09348   0.13466   0.12135   0.00000  Uiso   1.00
O85    O     0.65033   0.61693   0.07060   0.00000  Uiso   1.00
O86    O     0.23478   0.40513   0.16848   0.00000  Uiso   1.00
N87    N     0.05819   0.01731   0.19118   0.00000  Uiso   1.00
N88    N     0.74238   0.64838   0.15501   0.00000  Uiso   1.00
N89    N     0.15885   0.49743   0.22476   0.00000  Uiso   1.00
N90    N     0.07101   0.01304   0.05085   0.00000  Uiso   1.00
N91    N     0.75520   0.64411   0.01468   0.00000  Uiso   1.00
N92    N     0.17167   0.49316   0.08443   0.00000  Uiso   1.00
C93    C     0.48538   0.27856   0.29733   0.00000  Uiso   1.00
C94    C     0.50859   0.19807   0.33479   0.00000  Uiso   1.00
C95    C     0.52095   0.12800   0.28812   0.00000  Uiso   1.00
C96    C     0.54182   0.06068   0.33431   0.00000  Uiso   1.00
C97    C     0.57658   0.93527   0.37884   0.00000  Uiso   1.00
C98    C     0.42154   0.29973   0.34476   0.00000  Uiso   1.00
C99    C     0.36072   0.31516   0.30647   0.00000  Uiso   1.00
C100   C     0.30832   0.33343   0.36106   0.00000  Uiso   1.00
C101   C     0.20795   0.36592   0.42107   0.00000  Uiso   1.00
C102   C     0.53633   0.34132   0.32553   0.00000  Uiso   1.00
C103   C     0.57201   0.39174   0.27108   0.00000  Uiso   1.00
C104   C     0.61624   0.44504   0.30948   0.00000  Uiso   1.00
C105   C     0.69409   0.54210   0.33964   0.00000  Uiso   1.00
C106   C     0.50045   0.28359   0.46236   0.00000  Uiso   1.00
C107   C     0.51677   0.20080   0.42443   0.00000  Uiso   1.00
C108   C     0.53763   0.13357   0.47070   0.00000  Uiso   1.00
C109   C     0.55002   0.06342   0.42411   0.00000  Uiso   1.00
C110   C     0.42973   0.30247   0.43439   0.00000  Uiso   1.00
C111   C     0.37740   0.32073   0.48905   0.00000  Uiso   1.00
C112   C     0.31652   0.33617   0.45086   0.00000  Uiso   1.00
C113   C     0.54452   0.34406   0.41517   0.00000  Uiso   1.00
C114   C     0.58869   0.39730   0.45367   0.00000  Uiso   1.00
C115   C     0.62444   0.44778   0.39928   0.00000  Uiso   1.00
H116   H     0.47900   0.27643   0.22755   0.00000  Uiso   1.00
H117   H     0.51460   0.12591   0.21875   0.00000  Uiso   1.00
H118   H     0.35441   0.31305   0.23710   0.00000  Uiso   1.00
H119   H     0.56566   0.38961   0.20172   0.00000  Uiso   1.00
H120   H     0.55766   0.96023   0.24853   0.00000  Uiso   1.00
H121   H     0.21988   0.35484   0.28722   0.00000  Uiso   1.00
H122   H     0.66536   0.51628   0.21261   0.00000  Uiso   1.00
H123   H     0.50682   0.28572   0.53215   0.00000  Uiso   1.00
H124   H     0.54396   0.13570   0.54007   0.00000  Uiso   1.00
H125   H     0.38375   0.32284   0.55842   0.00000  Uiso   1.00
H126   H     0.59501   0.39940   0.52303   0.00000  Uiso   1.00
H127   H     0.58148   0.96817   0.50933   0.00000  Uiso   1.00
H128   H     0.24370   0.36279   0.54801   0.00000  Uiso   1.00
H129   H     0.68918   0.52423   0.47341   0.00000  Uiso   1.00
O130   O     0.59348   0.86534   0.37865   0.00000  Uiso   1.00
O131   O     0.15033   0.38307   0.42940   0.00000  Uiso   1.00
O132   O     0.73478   0.59487   0.33152   0.00000  Uiso   1.00
N133   N     0.55819   0.98269   0.30882   0.00000  Uiso   1.00
N134   N     0.24238   0.35162   0.34499   0.00000  Uiso   1.00
N135   N     0.65885   0.50257   0.27524   0.00000  Uiso   1.00
N136   N     0.57101   0.98696   0.44915   0.00000  Uiso   1.00
N137   N     0.25520   0.35589   0.48532   0.00000  Uiso   1.00
N138   N     0.67167   0.50684   0.41557   0.00000  Uiso   1.00
C139   C     0.01462   0.22144   0.29733   0.00000  Uiso   1.00
C140   C     0.99141   0.30193   0.33479   0.00000  Uiso   1.00
C141   C     0.97905   0.37200   0.28812   0.00000  Uiso   1.00
C142   C     0.95818   0.43932   0.33431   0.00000  Uiso   1.00
C143   C     0.92342   0.56473   0.37884   0.00000  Uiso   1.00
C144   C     0.07846   0.20027   0.34476   0.00000  Uiso   1.00
C145   C     0.13928   0.18484   0.30647   0.00000  Uiso   1.00
C146   C     0.19168   0.16657   0.36106   0.00000  Uiso   1.00
C147   C     0.29205   0.13408   0.42107   0.00000  Uiso   1.00
C148   C     0.96367   0.15868   0.32553   0.00000  Uiso   1.00
C149   C     0.92799   0.10826   0.27108   0.00000  Uiso   1.00
C150   C     0.88376   0.05496   0.30948   0.00000  Uiso   1.00
C151   C     0.80591   0.95790   0.33964   0.00000  Uiso   1.00
C152   C     0.99955   0.21641   0.46236   0.00000  Uiso   1.00
C153   C     0.98323   0.29920   0.42443   0.00000  Uiso   1.00
C154   C     0.96237   0.36643   0.47070   0.00000  Uiso   1.00
C155   C     0.94998   0.43658   0.42411   0.00000  Uiso   1.00
C156   C     0.07027   0.19753   0.43439   0.00000  Uiso   1.00
C157   C     0.12260   0.17927   0.48905   0.00000  Uiso   1.00
C158   C     0.18348   0.16383   0.45086   0.00000  Uiso   1.00
C159   C     0.95548   0.15594   0.41517   0.00000  Uiso   1.00
C160   C     0.91131   0.10270   0.45367   0.00000  Uiso   1.00
C161   C     0.87556   0.05222   0.39928   0.00000  Uiso   1.00
H162   H     0.02100   0.22357   0.22755   0.00000  Uiso   1.00
H163   H     0.98540   0.37409   0.21875   0.00000  Uiso   1.00
H164   H     0.14559   0.18695   0.23710   0.00000  Uiso   1.00
H165   H     0.93434   0.11039   0.20172   0.00000  Uiso   1.00
H166   H     0.94234   0.53977   0.24853   0.00000  Uiso   1.00
H167   H     0.28012   0.14516   0.28722   0.00000  Uiso   1.00
H168   H     0.83464   0.98372   0.21261   0.00000  Uiso   1.00
H169   H     0.99318   0.21428   0.53215   0.00000  Uiso   1.00
H170   H     0.95604   0.36430   0.54007   0.00000  Uiso   1.00
H171   H     0.11625   0.17716   0.55842   0.00000  Uiso   1.00
H172   H     0.90499   0.10060   0.52303   0.00000  Uiso   1.00
H173   H     0.91852   0.53183   0.50933   0.00000  Uiso   1.00
H174   H     0.25630   0.13721   0.54801   0.00000  Uiso   1.00
H175   H     0.81082   0.97577   0.47341   0.00000  Uiso   1.00
O176   O     0.90652   0.63466   0.37865   0.00000  Uiso   1.00
O177   O     0.34967   0.11693   0.42940   0.00000  Uiso   1.00
O178   O     0.76522   0.90513   0.33152   0.00000  Uiso   1.00
N179   N     0.94181   0.51731   0.30882   0.00000  Uiso   1.00
N180   N     0.25762   0.14838   0.34499   0.00000  Uiso   1.00
N181   N     0.84115   0.99743   0.27524   0.00000  Uiso   1.00
N182   N     0.92899   0.51304   0.44915   0.00000  Uiso   1.00
N183   N     0.24480   0.14411   0.48532   0.00000  Uiso   1.00
N184   N     0.82833   0.99316   0.41557   0.00000  Uiso   1.00
C185   C     0.48538   0.22144   0.79733   0.00000  Uiso   1.00
C186   C     0.50859   0.30193   0.83479   0.00000  Uiso   1.00
C187   C     0.52095   0.37200   0.78812   0.00000  Uiso   1.00
C188   C     0.54182   0.43932   0.83431   0.00000  Uiso   1.00
C189   C     0.57658   0.56473   0.87884   0.00000  Uiso   1.00
C190   C     0.42154   0.20027   0.84476   0.00000  Uiso   1.00
C191   C     0.36072   0.18484   0.80647   0.00000  Uiso   1.00
C192   C     0.30832   0.16657   0.86106   0.00000  Uiso   1.00
C193   C     0.20795   0.13408   0.92107   0.00000  Uiso   1.00
C194   C     0.53633   0.15868   0.82553   0.00000  Uiso   1.00
C195   C     0.57201   0.10826   0.77108   0.00000  Uiso   1.00
C196   C     0.61624   0.05496   0.80948   0.00000  Uiso   1.00
C197   C     0.69409   0.95790   0.83964   0.00000  Uiso   1.00
C198   C     0.50045   0.21641   0.96236   0.00000  Uiso   1.00
C199   C     0.51677   0.29920   0.92443   0.00000  Uiso   1.00
C200   C     0.53763   0.36643   0.97070   0.00000  Uiso   1.00
C201   C     0.55002   0.43658   0.92411   0.00000  Uiso   1.00
C202   C     0.42973   0.19753   0.93439   0.00000  Uiso   1.00
C203   C     0.37740   0.17927   0.98905   0.00000  Uiso   1.00
C204   C     0.31652   0.16383   0.95086   0.00000  Uiso   1.00
C205   C     0.54452   0.15594   0.91517   0.00000  Uiso   1.00
C206   C     0.58869   0.10270   0.95367   0.00000  Uiso   1.00
C207   C     0.62444   0.05222   0.89928   0.00000  Uiso   1.00
H208   H     0.47900   0.22357   0.72755   0.00000  Uiso   1.00
H209   H     0.51460   0.37409   0.71875   0.00000  Uiso   1.00
H210   H     0.35441   0.18695   0.73710   0.00000  Uiso   1.00
H211   H     0.56566   0.11039   0.70172   0.00000  Uiso   1.00
H212   H     0.55766   0.53977   0.74853   0.00000  Uiso   1.00
H213   H     0.21988   0.14516   0.78722   0.00000  Uiso   1.00
H214   H     0.66536   0.98372   0.71261   0.00000  Uiso   1.00
H215   H     0.50682   0.21428   0.03215   0.00000  Uiso   1.00
H216   H     0.54396   0.36430   0.04007   0.00000  Uiso   1.00
H217   H     0.38375   0.17716   0.05842   0.00000  Uiso   1.00
H218   H     0.59501   0.10060   0.02303   0.00000  Uiso   1.00
H219   H     0.58148   0.53183   0.00933   0.00000  Uiso   1.00
H220   H     0.24370   0.13721   0.04801   0.00000  Uiso   1.00
H221   H     0.68918   0.97577   0.97341   0.00000  Uiso   1.00
O222   O     0.59348   0.63466   0.87865   0.00000  Uiso   1.00
O223   O     0.15033   0.11693   0.92940   0.00000  Uiso   1.00
O224   O     0.73478   0.90513   0.83152   0.00000  Uiso   1.00
N225   N     0.55819   0.51731   0.80882   0.00000  Uiso   1.00
N226   N     0.24238   0.14838   0.84499   0.00000  Uiso   1.00
N227   N     0.65885   0.99743   0.77524   0.00000  Uiso   1.00
N228   N     0.57101   0.51304   0.94915   0.00000  Uiso   1.00
N229   N     0.25520   0.14411   0.98532   0.00000  Uiso   1.00
N230   N     0.67167   0.99316   0.91557   0.00000  Uiso   1.00
C231   C     0.01462   0.27856   0.79733   0.00000  Uiso   1.00
C232   C     0.99141   0.19807   0.83479   0.00000  Uiso   1.00
C233   C     0.97905   0.12800   0.78812   0.00000  Uiso   1.00
C234   C     0.95818   0.06068   0.83431   0.00000  Uiso   1.00
C235   C     0.92342   0.93527   0.87884   0.00000  Uiso   1.00
C236   C     0.07846   0.29973   0.84476   0.00000  Uiso   1.00
C237   C     0.13928   0.31516   0.80647   0.00000  Uiso   1.00
C238   C     0.19168   0.33343   0.86106   0.00000  Uiso   1.00
C239   C     0.29205   0.36592   0.92107   0.00000  Uiso   1.00
C240   C     0.96367   0.34132   0.82553   0.00000  Uiso   1.00
C241   C     0.92799   0.39174   0.77108   0.00000  Uiso   1.00
C242   C     0.88376   0.44504   0.80948   0.00000  Uiso   1.00
C243   C     0.80591   0.54210   0.83964   0.00000  Uiso   1.00
C244   C     0.99955   0.28359   0.96236   0.00000  Uiso   1.00
C245   C     0.98323   0.20080   0.92443   0.00000  Uiso   1.00
C246   C     0.96237   0.13357   0.97070   0.00000  Uiso   1.00
C247   C     0.94998   0.06342   0.92411   0.00000  Uiso   1.00
C248   C     0.07027   0.30247   0.93439   0.00000  Uiso   1.00
C249   C     0.12260   0.32073   0.98905   0.00000  Uiso   1.00
C250   C     0.18348   0.33617   0.95086   0.00000  Uiso   1.00
C251   C     0.95548   0.34406   0.91517   0.00000  Uiso   1.00
C252   C     0.91131   0.39730   0.95367   0.00000  Uiso   1.00
C253   C     0.87556   0.44778   0.89928   0.00000  Uiso   1.00
H254   H     0.02100   0.27643   0.72755   0.00000  Uiso   1.00
H255   H     0.98540   0.12591   0.71875   0.00000  Uiso   1.00
H256   H     0.14559   0.31305   0.73710   0.00000  Uiso   1.00
H257   H     0.93434   0.38961   0.70172   0.00000  Uiso   1.00
H258   H     0.94234   0.96023   0.74853   0.00000  Uiso   1.00
H259   H     0.28012   0.35484   0.78722   0.00000  Uiso   1.00
H260   H     0.83464   0.51628   0.71261   0.00000  Uiso   1.00
H261   H     0.99318   0.28572   0.03215   0.00000  Uiso   1.00
H262   H     0.95604   0.13570   0.04007   0.00000  Uiso   1.00
H263   H     0.11625   0.32284   0.05842   0.00000  Uiso   1.00
H264   H     0.90499   0.39940   0.02303   0.00000  Uiso   1.00
H265   H     0.91852   0.96817   0.00933   0.00000  Uiso   1.00
H266   H     0.25630   0.36279   0.04801   0.00000  Uiso   1.00
H267   H     0.81082   0.52423   0.97341   0.00000  Uiso   1.00
O268   O     0.90652   0.86534   0.87865   0.00000  Uiso   1.00
O269   O     0.34967   0.38307   0.92940   0.00000  Uiso   1.00
O270   O     0.76522   0.59487   0.83152   0.00000  Uiso   1.00
N271   N     0.94181   0.98269   0.80882   0.00000  Uiso   1.00
N272   N     0.25762   0.35162   0.84499   0.00000  Uiso   1.00
N273   N     0.84115   0.50257   0.77524   0.00000  Uiso   1.00
N274   N     0.92899   0.98696   0.94915   0.00000  Uiso   1.00
N275   N     0.24480   0.35589   0.98532   0.00000  Uiso   1.00
N276   N     0.82833   0.50684   0.91557   0.00000  Uiso   1.00
C277   C     0.51462   0.72144   0.70267   0.00000  Uiso   1.00
C278   C     0.49141   0.80193   0.66521   0.00000  Uiso   1.00
C279   C     0.47905   0.87200   0.71188   0.00000  Uiso   1.00
C280   C     0.45818   0.93932   0.66569   0.00000  Uiso   1.00
C281   C     0.42342   0.06473   0.62116   0.00000  Uiso   1.00
C282   C     0.57846   0.70027   0.65524   0.00000  Uiso   1.00
C283   C     0.63928   0.68484   0.69353   0.00000  Uiso   1.00
C284   C     0.69168   0.66657   0.63894   0.00000  Uiso   1.00
C285   C     0.79205   0.63408   0.57893   0.00000  Uiso   1.00
C286   C     0.46367   0.65868   0.67447   0.00000  Uiso   1.00
C287   C     0.42799   0.60826   0.72892   0.00000  Uiso   1.00
C288   C     0.38376   0.55496   0.69052   0.00000  Uiso   1.00
C289   C     0.30591   0.45790   0.66036   0.00000  Uiso   1.00
C290   C     0.49955   0.71641   0.53764   0.00000  Uiso   1.00
C291   C     0.48323   0.79920   0.57557   0.00000  Uiso   1.00
C292   C     0.46237   0.86643   0.52930   0.00000  Uiso   1.00
C293   C     0.44998   0.93658   0.57589   0.00000  Uiso   1.00
C294   C     0.57027   0.69753   0.56561   0.00000  Uiso   1.00
C295   C     0.62260   0.67927   0.51095   0.00000  Uiso   1.00
C296   C     0.68348   0.66383   0.54914   0.00000  Uiso   1.00
C297   C     0.45548   0.65594   0.58483   0.00000  Uiso   1.00
C298   C     0.41131   0.60270   0.54633   0.00000  Uiso   1.00
C299   C     0.37556   0.55222   0.60072   0.00000  Uiso   1.00
H300   H     0.52100   0.72357   0.77245   0.00000  Uiso   1.00
H301   H     0.48540   0.87409   0.78125   0.00000  Uiso   1.00
H302   H     0.64559   0.68695   0.76290   0.00000  Uiso   1.00
H303   H     0.43434   0.61039   0.79828   0.00000  Uiso   1.00
H304   H     0.44234   0.03977   0.75147   0.00000  Uiso   1.00
H305   H     0.78012   0.64516   0.71278   0.00000  Uiso   1.00
H306   H     0.33464   0.48372   0.78739   0.00000  Uiso   1.00
H307   H     0.49318   0.71428   0.46785   0.00000  Uiso   1.00
H308   H     0.45604   0.86430   0.45993   0.00000  Uiso   1.00
H309   H     0.61625   0.67716   0.44158   0.00000  Uiso   1.00
H310   H     0.40499   0.60060   0.47697   0.00000  Uiso   1.00
H311   H     0.41852   0.03183   0.49067   0.00000  Uiso   1.00
H312   H     0.75630   0.63721   0.45199   0.00000  Uiso   1.00
H313   H     0.31082   0.47577   0.52659   0.00000  Uiso   1.00
O314   O     0.40652   0.13466   0.62135   0.00000  Uiso   1.00
O315   O     0.84967   0.61693   0.57060   0.00000  Uiso   1.00
O316   O     0.26522   0.40513   0.66848   0.00000  Uiso   1.00
N317   N     0.44181   0.01731   0.69118   0.00000  Uiso   1.00
N318   N     0.75762   0.64838   0.65501   0.00000  Uiso   1.00
N319   N     0.34115   0.49743   0.72476   0.00000  Uiso   1.00
N320   N     0.42899   0.01304   0.55085   0.00000  Uiso   1.00
N321   N     0.74480   0.64411   0.51468   0.00000  Uiso   1.00
N322   N     0.32833   0.49316   0.58443   0.00000  Uiso   1.00
C323   C     0.98538   0.77856   0.70267   0.00000  Uiso   1.00
C324   C     0.00859   0.69807   0.66521   0.00000  Uiso   1.00
C325   C     0.02095   0.62800   0.71188   0.00000  Uiso   1.00
C326   C     0.04182   0.56068   0.66569   0.00000  Uiso   1.00
C327   C     0.07658   0.43527   0.62116   0.00000  Uiso   1.00
C328   C     0.92154   0.79973   0.65524   0.00000  Uiso   1.00
C329   C     0.86072   0.81516   0.69353   0.00000  Uiso   1.00
C330   C     0.80832   0.83343   0.63894   0.00000  Uiso   1.00
C331   C     0.70795   0.86592   0.57893   0.00000  Uiso   1.00
C332   C     0.03633   0.84132   0.67447   0.00000  Uiso   1.00
C333   C     0.07201   0.89174   0.72892   0.00000  Uiso   1.00
C334   C     0.11624   0.94504   0.69052   0.00000  Uiso   1.00
C335   C     0.19409   0.04210   0.66036   0.00000  Uiso   1.00
C336   C     0.00045   0.78359   0.53764   0.00000  Uiso   1.00
C337   C     0.01677   0.70080   0.57557   0.00000  Uiso   1.00
C338   C     0.03763   0.63357   0.52930   0.00000  Uiso   1.00
C339   C     0.05002   0.56342   0.57589   0.00000  Uiso   1.00
C340   C     0.92973   0.80247   0.56561   0.00000  Uiso   1.00
C341   C     0.87740   0.82073   0.51095   0.00000  Uiso   1.00
C342   C     0.81652   0.83617   0.54914   0.00000  Uiso   1.00
C343   C     0.04452   0.84406   0.58483   0.00000  Uiso   1.00
C344   C     0.08869   0.89730   0.54633   0.00000  Uiso   1.00
C345   C     0.12444   0.94778   0.60072   0.00000  Uiso   1.00
H346   H     0.97900   0.77643   0.77245   0.00000  Uiso   1.00
H347   H     0.01460   0.62591   0.78125   0.00000  Uiso   1.00
H348   H     0.85441   0.81305   0.76290   0.00000  Uiso   1.00
H349   H     0.06566   0.88961   0.79828   0.00000  Uiso   1.00
H350   H     0.05766   0.46023   0.75147   0.00000  Uiso   1.00
H351   H     0.71988   0.85484   0.71278   0.00000  Uiso   1.00
H352   H     0.16536   0.01628   0.78739   0.00000  Uiso   1.00
H353   H     0.00682   0.78572   0.46785   0.00000  Uiso   1.00
H354   H     0.04396   0.63570   0.45993   0.00000  Uiso   1.00
H355   H     0.88375   0.82284   0.44158   0.00000  Uiso   1.00
H356   H     0.09501   0.89940   0.47697   0.00000  Uiso   1.00
H357   H     0.08148   0.46817   0.49067   0.00000  Uiso   1.00
H358   H     0.74370   0.86279   0.45199   0.00000  Uiso   1.00
H359   H     0.18918   0.02423   0.52659   0.00000  Uiso   1.00
O360   O     0.09348   0.36534   0.62135   0.00000  Uiso   1.00
O361   O     0.65033   0.88307   0.57060   0.00000  Uiso   1.00
O362   O     0.23478   0.09487   0.66848   0.00000  Uiso   1.00
N363   N     0.05819   0.48269   0.69118   0.00000  Uiso   1.00
N364   N     0.74238   0.85162   0.65501   0.00000  Uiso   1.00
N365   N     0.15885   0.00257   0.72476   0.00000  Uiso   1.00
N366   N     0.07101   0.48696   0.55085   0.00000  Uiso   1.00
N367   N     0.75520   0.85589   0.51468   0.00000  Uiso   1.00
N368   N     0.17167   0.00684   0.58443   0.00000  Uiso   1.00
