data_job_01687
_audit_creation_date              2018-12-19
_audit_creation_method            'Materials Studio'
_symmetry_space_group_name_H-M    'P1'
_symmetry_Int_Tables_number       1
_symmetry_cell_setting            triclinic
loop_
_symmetry_equiv_pos_as_xyz
  x,y,z
_cell_length_a                    9.3044
_cell_length_b                    12.4197
_cell_length_c                    13.0333
_cell_angle_alpha                 97.2513
_cell_angle_beta                  70.6504
_cell_angle_gamma                 86.5837
loop_
_atom_site_label
_atom_site_type_symbol
_atom_site_fract_x
_atom_site_fract_y
_atom_site_fract_z
_atom_site_U_iso_or_equiv
_atom_site_adp_type
_atom_site_occupancy
C1     C     0.81573   0.72257   0.23977   0.00000  Uiso   1.00
C2     C     0.79984   0.81469   0.33332   0.00000  Uiso   1.00
C3     C     0.71282   0.91485   0.35409   0.00000  Uiso   1.00
C4     C     0.71328   0.98815   0.44368   0.00000  Uiso   1.00
C5     C     0.67582   0.13516   0.57880   0.00000  Uiso   1.00
C6     C     0.98697   0.69768   0.17578   0.00000  Uiso   1.00
C7     C     0.05728   0.69945   0.06409   0.00000  Uiso   1.00
C8     C     0.21527   0.67424   0.02106   0.00000  Uiso   1.00
C9     C     0.46831   0.63952   0.91159   0.00000  Uiso   1.00
C10    C     0.76698   0.62251   0.29394   0.00000  Uiso   1.00
C11    C     0.65235   0.56104   0.28158   0.00000  Uiso   1.00
C12    C     0.62513   0.47252   0.33802   0.00000  Uiso   1.00
C13    C     0.53661   0.32107   0.41201   0.00000  Uiso   1.00
C14    C     0.97126   0.67464   0.36194   0.00000  Uiso   1.00
C15    C     0.88432   0.78865   0.39967   0.00000  Uiso   1.00
C16    C     0.88490   0.86182   0.48926   0.00000  Uiso   1.00
C17    C     0.79790   0.96207   0.51016   0.00000  Uiso   1.00
C18    C     0.07145   0.67165   0.24213   0.00000  Uiso   1.00
C19    C     0.22936   0.64642   0.19926   0.00000  Uiso   1.00
C20    C     0.29990   0.64816   0.08754   0.00000  Uiso   1.00
C21    C     0.85145   0.59647   0.36030   0.00000  Uiso   1.00
C22    C     0.82442   0.50802   0.41676   0.00000  Uiso   1.00
C23    C     0.70977   0.44643   0.40450   0.00000  Uiso   1.00
H24    H     0.74997   0.74284   0.18810   0.00000  Uiso   1.00
H25    H     0.64747   0.93497   0.30271   0.00000  Uiso   1.00
H26    H     0.99188   0.71959   0.01276   0.00000  Uiso   1.00
H27    H     0.58700   0.58121   0.23022   0.00000  Uiso   1.00
H28    H     0.57114   0.13651   0.45901   0.00000  Uiso   1.00
H29    H     0.29733   0.68234   0.84762   0.00000  Uiso   1.00
H30    H     0.44356   0.39054   0.30619   0.00000  Uiso   1.00
H31    H     0.03704   0.65437   0.41361   0.00000  Uiso   1.00
H32    H     0.95029   0.84165   0.54059   0.00000  Uiso   1.00
H33    H     0.29470   0.62627   0.25063   0.00000  Uiso   1.00
H34    H     0.88982   0.48789   0.46810   0.00000  Uiso   1.00
H35    H     0.81693   0.06078   0.65208   0.00000  Uiso   1.00
H36    H     0.54312   0.60660   0.04069   0.00000  Uiso   1.00
H37    H     0.68935   0.31480   0.49926   0.00000  Uiso   1.00
O38    O     0.63183   0.22345   0.63499   0.00000  Uiso   1.00
O39    O     0.58455   0.62757   0.83287   0.00000  Uiso   1.00
O40    O     0.46443   0.24474   0.43450   0.00000  Uiso   1.00
N41    N     0.64087   0.09298   0.48704   0.00000  Uiso   1.00
N42    N     0.31981   0.66837   0.91543   0.00000  Uiso   1.00
N43    N     0.52164   0.39554   0.34412   0.00000  Uiso   1.00
N44    N     0.77312   0.05222   0.59093   0.00000  Uiso   1.00
N45    N     0.45207   0.62762   0.01932   0.00000  Uiso   1.00
N46    N     0.65389   0.35479   0.44802   0.00000  Uiso   1.00
C47    C     0.18427   0.27743   0.76023   0.00000  Uiso   1.00
C48    C     0.20016   0.18531   0.66668   0.00000  Uiso   1.00
C49    C     0.28718   0.08515   0.64591   0.00000  Uiso   1.00
C50    C     0.28672   0.01185   0.55632   0.00000  Uiso   1.00
C51    C     0.32418   0.86484   0.42120   0.00000  Uiso   1.00
C52    C     0.01303   0.30232   0.82422   0.00000  Uiso   1.00
C53    C     0.94272   0.30055   0.93591   0.00000  Uiso   1.00
C54    C     0.78473   0.32576   0.97894   0.00000  Uiso   1.00
C55    C     0.53169   0.36048   0.08841   0.00000  Uiso   1.00
C56    C     0.23302   0.37749   0.70606   0.00000  Uiso   1.00
C57    C     0.34765   0.43896   0.71842   0.00000  Uiso   1.00
C58    C     0.37487   0.52748   0.66198   0.00000  Uiso   1.00
C59    C     0.46339   0.67893   0.58799   0.00000  Uiso   1.00
C60    C     0.02874   0.32536   0.63806   0.00000  Uiso   1.00
C61    C     0.11568   0.21135   0.60033   0.00000  Uiso   1.00
C62    C     0.11510   0.13818   0.51074   0.00000  Uiso   1.00
C63    C     0.20210   0.03793   0.48984   0.00000  Uiso   1.00
C64    C     0.92855   0.32835   0.75787   0.00000  Uiso   1.00
C65    C     0.77064   0.35358   0.80074   0.00000  Uiso   1.00
C66    C     0.70010   0.35184   0.91246   0.00000  Uiso   1.00
C67    C     0.14855   0.40353   0.63970   0.00000  Uiso   1.00
C68    C     0.17558   0.49198   0.58324   0.00000  Uiso   1.00
C69    C     0.29023   0.55357   0.59550   0.00000  Uiso   1.00
H70    H     0.25003   0.25716   0.81190   0.00000  Uiso   1.00
H71    H     0.35253   0.06503   0.69729   0.00000  Uiso   1.00
H72    H     0.00812   0.28041   0.98724   0.00000  Uiso   1.00
H73    H     0.41300   0.41879   0.76978   0.00000  Uiso   1.00
H74    H     0.42886   0.86349   0.54099   0.00000  Uiso   1.00
H75    H     0.70267   0.31766   0.15238   0.00000  Uiso   1.00
H76    H     0.55644   0.60946   0.69381   0.00000  Uiso   1.00
H77    H     0.96296   0.34563   0.58639   0.00000  Uiso   1.00
H78    H     0.04971   0.15835   0.45941   0.00000  Uiso   1.00
H79    H     0.70530   0.37373   0.74937   0.00000  Uiso   1.00
H80    H     0.11018   0.51211   0.53190   0.00000  Uiso   1.00
H81    H     0.18307   0.93922   0.34792   0.00000  Uiso   1.00
H82    H     0.45688   0.39340   0.95931   0.00000  Uiso   1.00
H83    H     0.31065   0.68520   0.50074   0.00000  Uiso   1.00
O84    O     0.36817   0.77655   0.36501   0.00000  Uiso   1.00
O85    O     0.41545   0.37243   0.16713   0.00000  Uiso   1.00
O86    O     0.53557   0.75526   0.56550   0.00000  Uiso   1.00
N87    N     0.35913   0.90702   0.51296   0.00000  Uiso   1.00
N88    N     0.68019   0.33163   0.08457   0.00000  Uiso   1.00
N89    N     0.47836   0.60446   0.65588   0.00000  Uiso   1.00
N90    N     0.22688   0.94778   0.40907   0.00000  Uiso   1.00
N91    N     0.54793   0.37238   0.98068   0.00000  Uiso   1.00
N92    N     0.34611   0.64521   0.55198   0.00000  Uiso   1.00
