data_job_03809
_audit_creation_date              2018-12-19
_audit_creation_method            'Materials Studio'
_symmetry_space_group_name_H-M    'P1'
_symmetry_Int_Tables_number       1
_symmetry_cell_setting            triclinic
loop_
_symmetry_equiv_pos_as_xyz
  x,y,z
_cell_length_a                    9.6399
_cell_length_b                    8.5476
_cell_length_c                    19.5575
_cell_angle_alpha                 90.0000
_cell_angle_beta                  57.7253
_cell_angle_gamma                 90.0000
loop_
_atom_site_label
_atom_site_type_symbol
_atom_site_fract_x
_atom_site_fract_y
_atom_site_fract_z
_atom_site_U_iso_or_equiv
_atom_site_adp_type
_atom_site_occupancy
C1     C     0.64088   0.22937   0.23897   0.00000  Uiso   1.00
C2     C     0.54302   0.37219   0.28754   0.00000  Uiso   1.00
C3     C     0.37970   0.37212   0.35058   0.00000  Uiso   1.00
C4     C     0.31250   0.51489   0.38729   0.00000  Uiso   1.00
C5     C     0.14639   0.71572   0.46655   0.00000  Uiso   1.00
C6     C     0.70672   0.26819   0.15066   0.00000  Uiso   1.00
C7     C     0.68105   0.18065   0.09861   0.00000  Uiso   1.00
C8     C     0.75167   0.23586   0.02009   0.00000  Uiso   1.00
C9     C     0.83981   0.27514   0.88683   0.00000  Uiso   1.00
C10    C     0.79014   0.22158   0.24657   0.00000  Uiso   1.00
C11    C     0.83464   0.09484   0.27515   0.00000  Uiso   1.00
C12    C     0.97552   0.11079   0.27737   0.00000  Uiso   1.00
C13    C     0.19318   0.07771   0.29303   0.00000  Uiso   1.00
C14    C     0.81198   0.48305   0.19207   0.00000  Uiso   1.00
C15    C     0.63596   0.50998   0.26206   0.00000  Uiso   1.00
C16    C     0.56899   0.65279   0.29868   0.00000  Uiso   1.00
C17    C     0.40560   0.65293   0.36177   0.00000  Uiso   1.00
C18    C     0.79965   0.40597   0.12518   0.00000  Uiso   1.00
C19    C     0.87035   0.46131   0.04672   0.00000  Uiso   1.00
C20    C     0.84478   0.37390   0.99457   0.00000  Uiso   1.00
C21    C     0.88307   0.35937   0.22110   0.00000  Uiso   1.00
C22    C     0.02393   0.37551   0.22326   0.00000  Uiso   1.00
C23    C     0.06862   0.24883   0.25185   0.00000  Uiso   1.00
H24    H     0.56853   0.12210   0.25880   0.00000  Uiso   1.00
H25    H     0.30781   0.26547   0.37027   0.00000  Uiso   1.00
H26    H     0.60913   0.07402   0.11834   0.00000  Uiso   1.00
H27    H     0.76269   0.98823   0.29486   0.00000  Uiso   1.00
H28    H     0.05972   0.48520   0.48260   0.00000  Uiso   1.00
H29    H     0.69512   0.08149   0.95139   0.00000  Uiso   1.00
H30    H     0.01893   0.90058   0.32361   0.00000  Uiso   1.00
H31    H     0.88434   0.59032   0.17223   0.00000  Uiso   1.00
H32    H     0.64094   0.75940   0.27895   0.00000  Uiso   1.00
H33    H     0.94226   0.56794   0.02702   0.00000  Uiso   1.00
H34    H     0.09582   0.48215   0.20354   0.00000  Uiso   1.00
H35    H     0.33010   0.88609   0.40848   0.00000  Uiso   1.00
H36    H     0.96551   0.48237   0.87727   0.00000  Uiso   1.00
H37    H     0.28931   0.30147   0.24949   0.00000  Uiso   1.00
O38    O     0.02909   0.78842   0.51729   0.00000  Uiso   1.00
O39    O     0.86274   0.25875   0.82036   0.00000  Uiso   1.00
O40    O     0.28755   0.02141   0.30871   0.00000  Uiso   1.00
N41    N     0.15677   0.55634   0.45052   0.00000  Uiso   1.00
N42    N     0.75081   0.17891   0.95387   0.00000  Uiso   1.00
N43    N     0.05357   0.00976   0.30185   0.00000  Uiso   1.00
N44    N     0.30226   0.77206   0.41064   0.00000  Uiso   1.00
N45    N     0.89630   0.39462   0.91399   0.00000  Uiso   1.00
N46    N     0.19905   0.22547   0.26197   0.00000  Uiso   1.00
C47    C     0.35912   0.72937   0.76103   0.00000  Uiso   1.00
C48    C     0.45698   0.87219   0.71246   0.00000  Uiso   1.00
C49    C     0.62030   0.87212   0.64942   0.00000  Uiso   1.00
C50    C     0.68750   0.01489   0.61271   0.00000  Uiso   1.00
C51    C     0.85361   0.21572   0.53345   0.00000  Uiso   1.00
C52    C     0.29328   0.76819   0.84934   0.00000  Uiso   1.00
C53    C     0.31895   0.68065   0.90139   0.00000  Uiso   1.00
C54    C     0.24833   0.73586   0.97991   0.00000  Uiso   1.00
C55    C     0.16019   0.77514   0.11317   0.00000  Uiso   1.00
C56    C     0.20986   0.72158   0.75343   0.00000  Uiso   1.00
C57    C     0.16536   0.59484   0.72485   0.00000  Uiso   1.00
C58    C     0.02448   0.61079   0.72263   0.00000  Uiso   1.00
C59    C     0.80682   0.57771   0.70697   0.00000  Uiso   1.00
C60    C     0.18802   0.98305   0.80793   0.00000  Uiso   1.00
C61    C     0.36404   0.00998   0.73794   0.00000  Uiso   1.00
C62    C     0.43101   0.15279   0.70132   0.00000  Uiso   1.00
C63    C     0.59440   0.15293   0.63823   0.00000  Uiso   1.00
C64    C     0.20035   0.90597   0.87482   0.00000  Uiso   1.00
C65    C     0.12965   0.96131   0.95328   0.00000  Uiso   1.00
C66    C     0.15522   0.87390   0.00543   0.00000  Uiso   1.00
C67    C     0.11693   0.85937   0.77890   0.00000  Uiso   1.00
C68    C     0.97607   0.87551   0.77674   0.00000  Uiso   1.00
C69    C     0.93138   0.74883   0.74815   0.00000  Uiso   1.00
H70    H     0.43147   0.62210   0.74120   0.00000  Uiso   1.00
H71    H     0.69219   0.76547   0.62973   0.00000  Uiso   1.00
H72    H     0.39087   0.57402   0.88166   0.00000  Uiso   1.00
H73    H     0.23731   0.48823   0.70514   0.00000  Uiso   1.00
H74    H     0.94028   0.98520   0.51740   0.00000  Uiso   1.00
H75    H     0.30488   0.58149   0.04861   0.00000  Uiso   1.00
H76    H     0.98107   0.40058   0.67639   0.00000  Uiso   1.00
H77    H     0.11566   0.09032   0.82777   0.00000  Uiso   1.00
H78    H     0.35906   0.25940   0.72105   0.00000  Uiso   1.00
H79    H     0.05774   0.06794   0.97298   0.00000  Uiso   1.00
H80    H     0.90418   0.98215   0.79646   0.00000  Uiso   1.00
H81    H     0.66990   0.38609   0.59152   0.00000  Uiso   1.00
H82    H     0.03449   0.98237   0.12273   0.00000  Uiso   1.00
H83    H     0.71069   0.80147   0.75051   0.00000  Uiso   1.00
O84    O     0.97091   0.28842   0.48271   0.00000  Uiso   1.00
O85    O     0.13726   0.75875   0.17964   0.00000  Uiso   1.00
O86    O     0.71245   0.52141   0.69129   0.00000  Uiso   1.00
N87    N     0.84323   0.05634   0.54948   0.00000  Uiso   1.00
N88    N     0.24919   0.67891   0.04613   0.00000  Uiso   1.00
N89    N     0.94643   0.50976   0.69815   0.00000  Uiso   1.00
N90    N     0.69774   0.27206   0.58936   0.00000  Uiso   1.00
N91    N     0.10370   0.89462   0.08601   0.00000  Uiso   1.00
N92    N     0.80095   0.72547   0.73803   0.00000  Uiso   1.00
