data_job_03355
_audit_creation_date              2018-12-19
_audit_creation_method            'Materials Studio'
_symmetry_space_group_name_H-M    'P1'
_symmetry_Int_Tables_number       1
_symmetry_cell_setting            triclinic
loop_
_symmetry_equiv_pos_as_xyz
  x,y,z
_cell_length_a                    31.9619
_cell_length_b                    7.2335
_cell_length_c                    28.6537
_cell_angle_alpha                 90.0000
_cell_angle_beta                  157.0658
_cell_angle_gamma                 90.0000
loop_
_atom_site_label
_atom_site_type_symbol
_atom_site_fract_x
_atom_site_fract_y
_atom_site_fract_z
_atom_site_U_iso_or_equiv
_atom_site_adp_type
_atom_site_occupancy
C1     C     0.12862   0.36742   0.27790   0.00000  Uiso   1.00
C2     C     0.04374   0.28864   0.15791   0.00000  Uiso   1.00
C3     C     0.94853   0.37498   0.04754   0.00000  Uiso   1.00
C4     C     0.88154   0.28004   0.94830   0.00000  Uiso   1.00
C5     C     0.74556   0.18430   0.76032   0.00000  Uiso   1.00
C6     C     0.14319   0.22449   0.33148   0.00000  Uiso   1.00
C7     C     0.13161   0.25692   0.36705   0.00000  Uiso   1.00
C8     C     0.14834   0.10799   0.41393   0.00000  Uiso   1.00
C9     C     0.16684   0.91269   0.49550   0.00000  Uiso   1.00
C10    C     0.23342   0.36834   0.35804   0.00000  Uiso   1.00
C11    C     0.29771   0.52170   0.41598   0.00000  Uiso   1.00
C12    C     0.39043   0.49386   0.48525   0.00000  Uiso   1.00
C13    C     0.54901   0.52191   0.60805   0.00000  Uiso   1.00
C14    C     0.17896   0.04526   0.29792   0.00000  Uiso   1.00
C15    C     0.07108   0.11365   0.16879   0.00000  Uiso   1.00
C16    C     0.00422   0.01856   0.06969   0.00000  Uiso   1.00
C17    C     0.90892   0.10475   0.95919   0.00000  Uiso   1.00
C18    C     0.17053   0.04952   0.34235   0.00000  Uiso   1.00
C19    C     0.18730   0.90050   0.38920   0.00000  Uiso   1.00
C20    C     0.17573   0.93269   0.42482   0.00000  Uiso   1.00
C21    C     0.26076   0.19336   0.36891   0.00000  Uiso   1.00
C22    C     0.35340   0.16527   0.43812   0.00000  Uiso   1.00
C23    C     0.41782   0.31856   0.49614   0.00000  Uiso   1.00
H24    H     0.10734   0.50364   0.26944   0.00000  Uiso   1.00
H25    H     0.92740   0.51039   0.03916   0.00000  Uiso   1.00
H26    H     0.11046   0.39235   0.35863   0.00000  Uiso   1.00
H27    H     0.27653   0.65709   0.40754   0.00000  Uiso   1.00
H28    H     0.73994   0.44068   0.78864   0.00000  Uiso   1.00
H29    H     0.12597   0.19181   0.46230   0.00000  Uiso   1.00
H30    H     0.47617   0.75006   0.56544   0.00000  Uiso   1.00
H31    H     0.20024   0.90902   0.30639   0.00000  Uiso   1.00
H32    H     0.02540   0.88315   0.07813   0.00000  Uiso   1.00
H33    H     0.20846   0.76511   0.39761   0.00000  Uiso   1.00
H34    H     0.37453   0.02984   0.44651   0.00000  Uiso   1.00
H35    H     0.81947   0.93158   0.82027   0.00000  Uiso   1.00
H36    H     0.20551   0.68271   0.49394   0.00000  Uiso   1.00
H37    H     0.55571   0.24095   0.59707   0.00000  Uiso   1.00
O38    O     0.66300   0.17981   0.65363   0.00000  Uiso   1.00
O39    O     0.16947   0.85331   0.53747   0.00000  Uiso   1.00
O40    O     0.62892   0.58572   0.67278   0.00000  Uiso   1.00
N41    N     0.78266   0.32443   0.82741   0.00000  Uiso   1.00
N42    N     0.14356   0.09174   0.45723   0.00000  Uiso   1.00
N43    N     0.47099   0.61365   0.55368   0.00000  Uiso   1.00
N44    N     0.82546   0.05049   0.84443   0.00000  Uiso   1.00
N45    N     0.18636   0.81780   0.47425   0.00000  Uiso   1.00
N46    N     0.51378   0.33971   0.57070   0.00000  Uiso   1.00
C47    C     0.87138   0.36742   0.22210   0.00000  Uiso   1.00
C48    C     0.95626   0.28864   0.34209   0.00000  Uiso   1.00
C49    C     0.05147   0.37498   0.45246   0.00000  Uiso   1.00
C50    C     0.11846   0.28004   0.55170   0.00000  Uiso   1.00
C51    C     0.25444   0.18430   0.73968   0.00000  Uiso   1.00
C52    C     0.85681   0.22449   0.16852   0.00000  Uiso   1.00
C53    C     0.86839   0.25692   0.13295   0.00000  Uiso   1.00
C54    C     0.85166   0.10799   0.08607   0.00000  Uiso   1.00
C55    C     0.83316   0.91269   0.00450   0.00000  Uiso   1.00
C56    C     0.76658   0.36834   0.14196   0.00000  Uiso   1.00
C57    C     0.70229   0.52170   0.08402   0.00000  Uiso   1.00
C58    C     0.60957   0.49386   0.01475   0.00000  Uiso   1.00
C59    C     0.45099   0.52191   0.89195   0.00000  Uiso   1.00
C60    C     0.82104   0.04526   0.20208   0.00000  Uiso   1.00
C61    C     0.92892   0.11365   0.33121   0.00000  Uiso   1.00
C62    C     0.99578   0.01856   0.43031   0.00000  Uiso   1.00
C63    C     0.09108   0.10475   0.54081   0.00000  Uiso   1.00
C64    C     0.82947   0.04952   0.15765   0.00000  Uiso   1.00
C65    C     0.81270   0.90050   0.11080   0.00000  Uiso   1.00
C66    C     0.82427   0.93269   0.07518   0.00000  Uiso   1.00
C67    C     0.73924   0.19336   0.13109   0.00000  Uiso   1.00
C68    C     0.64660   0.16527   0.06188   0.00000  Uiso   1.00
C69    C     0.58218   0.31856   0.00386   0.00000  Uiso   1.00
H70    H     0.89266   0.50364   0.23056   0.00000  Uiso   1.00
H71    H     0.07260   0.51039   0.46084   0.00000  Uiso   1.00
H72    H     0.88954   0.39235   0.14137   0.00000  Uiso   1.00
H73    H     0.72347   0.65709   0.09246   0.00000  Uiso   1.00
H74    H     0.26006   0.44068   0.71136   0.00000  Uiso   1.00
H75    H     0.87403   0.19181   0.03770   0.00000  Uiso   1.00
H76    H     0.52383   0.75006   0.93456   0.00000  Uiso   1.00
H77    H     0.79976   0.90902   0.19361   0.00000  Uiso   1.00
H78    H     0.97460   0.88315   0.42187   0.00000  Uiso   1.00
H79    H     0.79154   0.76511   0.10239   0.00000  Uiso   1.00
H80    H     0.62547   0.02984   0.05349   0.00000  Uiso   1.00
H81    H     0.18053   0.93158   0.67973   0.00000  Uiso   1.00
H82    H     0.79449   0.68271   0.00606   0.00000  Uiso   1.00
H83    H     0.44429   0.24095   0.90293   0.00000  Uiso   1.00
O84    O     0.33700   0.17981   0.84637   0.00000  Uiso   1.00
O85    O     0.83053   0.85331   0.96253   0.00000  Uiso   1.00
O86    O     0.37108   0.58572   0.82722   0.00000  Uiso   1.00
N87    N     0.21734   0.32443   0.67259   0.00000  Uiso   1.00
N88    N     0.85644   0.09174   0.04277   0.00000  Uiso   1.00
N89    N     0.52901   0.61365   0.94632   0.00000  Uiso   1.00
N90    N     0.17454   0.05049   0.65557   0.00000  Uiso   1.00
N91    N     0.81364   0.81780   0.02575   0.00000  Uiso   1.00
N92    N     0.48622   0.33971   0.92930   0.00000  Uiso   1.00
C93    C     0.87138   0.63258   0.72210   0.00000  Uiso   1.00
C94    C     0.95626   0.71136   0.84209   0.00000  Uiso   1.00
C95    C     0.05147   0.62502   0.95246   0.00000  Uiso   1.00
C96    C     0.11846   0.71996   0.05170   0.00000  Uiso   1.00
C97    C     0.25444   0.81570   0.23968   0.00000  Uiso   1.00
C98    C     0.85681   0.77551   0.66852   0.00000  Uiso   1.00
C99    C     0.86839   0.74308   0.63295   0.00000  Uiso   1.00
C100   C     0.85166   0.89201   0.58607   0.00000  Uiso   1.00
C101   C     0.83316   0.08731   0.50450   0.00000  Uiso   1.00
C102   C     0.76658   0.63166   0.64196   0.00000  Uiso   1.00
C103   C     0.70229   0.47830   0.58402   0.00000  Uiso   1.00
C104   C     0.60957   0.50614   0.51475   0.00000  Uiso   1.00
C105   C     0.45099   0.47809   0.39195   0.00000  Uiso   1.00
C106   C     0.82104   0.95474   0.70208   0.00000  Uiso   1.00
C107   C     0.92892   0.88635   0.83121   0.00000  Uiso   1.00
C108   C     0.99578   0.98144   0.93031   0.00000  Uiso   1.00
C109   C     0.09108   0.89525   0.04081   0.00000  Uiso   1.00
C110   C     0.82947   0.95048   0.65765   0.00000  Uiso   1.00
C111   C     0.81270   0.09950   0.61080   0.00000  Uiso   1.00
C112   C     0.82427   0.06731   0.57518   0.00000  Uiso   1.00
C113   C     0.73924   0.80664   0.63109   0.00000  Uiso   1.00
C114   C     0.64660   0.83473   0.56188   0.00000  Uiso   1.00
C115   C     0.58218   0.68144   0.50386   0.00000  Uiso   1.00
H116   H     0.89266   0.49636   0.73056   0.00000  Uiso   1.00
H117   H     0.07260   0.48961   0.96084   0.00000  Uiso   1.00
H118   H     0.88954   0.60765   0.64137   0.00000  Uiso   1.00
H119   H     0.72347   0.34291   0.59246   0.00000  Uiso   1.00
H120   H     0.26006   0.55932   0.21136   0.00000  Uiso   1.00
H121   H     0.87403   0.80819   0.53770   0.00000  Uiso   1.00
H122   H     0.52383   0.24994   0.43456   0.00000  Uiso   1.00
H123   H     0.79976   0.09098   0.69361   0.00000  Uiso   1.00
H124   H     0.97460   0.11685   0.92187   0.00000  Uiso   1.00
H125   H     0.79154   0.23489   0.60239   0.00000  Uiso   1.00
H126   H     0.62547   0.97016   0.55349   0.00000  Uiso   1.00
H127   H     0.18053   0.06842   0.17973   0.00000  Uiso   1.00
H128   H     0.79449   0.31729   0.50606   0.00000  Uiso   1.00
H129   H     0.44429   0.75905   0.40293   0.00000  Uiso   1.00
O130   O     0.33700   0.82019   0.34637   0.00000  Uiso   1.00
O131   O     0.83053   0.14669   0.46253   0.00000  Uiso   1.00
O132   O     0.37108   0.41428   0.32722   0.00000  Uiso   1.00
N133   N     0.21734   0.67557   0.17259   0.00000  Uiso   1.00
N134   N     0.85644   0.90826   0.54277   0.00000  Uiso   1.00
N135   N     0.52901   0.38635   0.44632   0.00000  Uiso   1.00
N136   N     0.17454   0.94951   0.15557   0.00000  Uiso   1.00
N137   N     0.81364   0.18220   0.52575   0.00000  Uiso   1.00
N138   N     0.48622   0.66029   0.42930   0.00000  Uiso   1.00
C139   C     0.12862   0.63258   0.77790   0.00000  Uiso   1.00
C140   C     0.04374   0.71136   0.65791   0.00000  Uiso   1.00
C141   C     0.94853   0.62502   0.54754   0.00000  Uiso   1.00
C142   C     0.88154   0.71996   0.44830   0.00000  Uiso   1.00
C143   C     0.74556   0.81570   0.26032   0.00000  Uiso   1.00
C144   C     0.14319   0.77551   0.83148   0.00000  Uiso   1.00
C145   C     0.13161   0.74308   0.86705   0.00000  Uiso   1.00
C146   C     0.14834   0.89201   0.91393   0.00000  Uiso   1.00
C147   C     0.16684   0.08731   0.99550   0.00000  Uiso   1.00
C148   C     0.23342   0.63166   0.85804   0.00000  Uiso   1.00
C149   C     0.29771   0.47830   0.91598   0.00000  Uiso   1.00
C150   C     0.39043   0.50614   0.98525   0.00000  Uiso   1.00
C151   C     0.54901   0.47809   0.10805   0.00000  Uiso   1.00
C152   C     0.17896   0.95474   0.79792   0.00000  Uiso   1.00
C153   C     0.07108   0.88635   0.66879   0.00000  Uiso   1.00
C154   C     0.00422   0.98144   0.56969   0.00000  Uiso   1.00
C155   C     0.90892   0.89525   0.45919   0.00000  Uiso   1.00
C156   C     0.17053   0.95048   0.84235   0.00000  Uiso   1.00
C157   C     0.18730   0.09950   0.88920   0.00000  Uiso   1.00
C158   C     0.17573   0.06731   0.92482   0.00000  Uiso   1.00
C159   C     0.26076   0.80664   0.86891   0.00000  Uiso   1.00
C160   C     0.35340   0.83473   0.93812   0.00000  Uiso   1.00
C161   C     0.41782   0.68144   0.99614   0.00000  Uiso   1.00
H162   H     0.10734   0.49636   0.76944   0.00000  Uiso   1.00
H163   H     0.92740   0.48961   0.53916   0.00000  Uiso   1.00
H164   H     0.11046   0.60765   0.85863   0.00000  Uiso   1.00
H165   H     0.27653   0.34291   0.90754   0.00000  Uiso   1.00
H166   H     0.73994   0.55932   0.28864   0.00000  Uiso   1.00
H167   H     0.12597   0.80819   0.96230   0.00000  Uiso   1.00
H168   H     0.47617   0.24994   0.06544   0.00000  Uiso   1.00
H169   H     0.20024   0.09098   0.80639   0.00000  Uiso   1.00
H170   H     0.02540   0.11685   0.57813   0.00000  Uiso   1.00
H171   H     0.20846   0.23489   0.89761   0.00000  Uiso   1.00
H172   H     0.37453   0.97016   0.94651   0.00000  Uiso   1.00
H173   H     0.81947   0.06842   0.32027   0.00000  Uiso   1.00
H174   H     0.20551   0.31729   0.99394   0.00000  Uiso   1.00
H175   H     0.55571   0.75905   0.09707   0.00000  Uiso   1.00
O176   O     0.66300   0.82019   0.15363   0.00000  Uiso   1.00
O177   O     0.16947   0.14669   0.03747   0.00000  Uiso   1.00
O178   O     0.62892   0.41428   0.17278   0.00000  Uiso   1.00
N179   N     0.78266   0.67557   0.32741   0.00000  Uiso   1.00
N180   N     0.14356   0.90826   0.95723   0.00000  Uiso   1.00
N181   N     0.47099   0.38635   0.05368   0.00000  Uiso   1.00
N182   N     0.82546   0.94951   0.34443   0.00000  Uiso   1.00
N183   N     0.18636   0.18220   0.97425   0.00000  Uiso   1.00
N184   N     0.51378   0.66029   0.07070   0.00000  Uiso   1.00
