data_job_06452
_audit_creation_date              2018-12-19
_audit_creation_method            'Materials Studio'
_symmetry_space_group_name_H-M    'P1'
_symmetry_Int_Tables_number       1
_symmetry_cell_setting            triclinic
loop_
_symmetry_equiv_pos_as_xyz
  x,y,z
_cell_length_a                    12.4614
_cell_length_b                    21.4675
_cell_length_c                    21.6851
_cell_angle_alpha                 116.4120
_cell_angle_beta                  78.3048
_cell_angle_gamma                 80.2736
loop_
_atom_site_label
_atom_site_type_symbol
_atom_site_fract_x
_atom_site_fract_y
_atom_site_fract_z
_atom_site_U_iso_or_equiv
_atom_site_adp_type
_atom_site_occupancy
C1     C     0.80221   0.79250   0.23916   0.00000  Uiso   1.00
C2     C     0.92426   0.75554   0.23066   0.00000  Uiso   1.00
C3     C     0.96676   0.76172   0.28688   0.00000  Uiso   1.00
C4     C     0.08079   0.72364   0.26785   0.00000  Uiso   1.00
C5     C     0.25984   0.67278   0.26571   0.00000  Uiso   1.00
C6     C     0.81343   0.83645   0.20027   0.00000  Uiso   1.00
C7     C     0.76273   0.91065   0.23093   0.00000  Uiso   1.00
C8     C     0.78345   0.94067   0.18631   0.00000  Uiso   1.00
C9     C     0.79036   0.01540   0.13697   0.00000  Uiso   1.00
C10    C     0.75592   0.73163   0.19487   0.00000  Uiso   1.00
C11    C     0.65685   0.71771   0.22099   0.00000  Uiso   1.00
C12    C     0.62914   0.65949   0.17182   0.00000  Uiso   1.00
C13    C     0.54676   0.57148   0.11410   0.00000  Uiso   1.00
C14    C     0.92915   0.71386   0.10539   0.00000  Uiso   1.00
C15    C     0.99321   0.71283   0.15800   0.00000  Uiso   1.00
C16    C     0.10721   0.67472   0.13888   0.00000  Uiso   1.00
C17    C     0.14987   0.68084   0.19506   0.00000  Uiso   1.00
C18    C     0.88238   0.79374   0.12761   0.00000  Uiso   1.00
C19    C     0.90318   0.82365   0.08293   0.00000  Uiso   1.00
C20    C     0.85253   0.89788   0.11352   0.00000  Uiso   1.00
C21    C     0.82487   0.68892   0.12221   0.00000  Uiso   1.00
C22    C     0.79731   0.63071   0.07299   0.00000  Uiso   1.00
C23    C     0.69822   0.61670   0.09903   0.00000  Uiso   1.00
H24    H     0.74852   0.82576   0.29572   0.00000  Uiso   1.00
H25    H     0.91337   0.79479   0.34310   0.00000  Uiso   1.00
H26    H     0.70936   0.94369   0.28716   0.00000  Uiso   1.00
H27    H     0.60351   0.75078   0.27722   0.00000  Uiso   1.00
H28    H     0.12656   0.74164   0.36359   0.00000  Uiso   1.00
H29    H     0.69637   0.05560   0.24562   0.00000  Uiso   1.00
H30    H     0.47315   0.64881   0.22467   0.00000  Uiso   1.00
H31    H     0.98283   0.68061   0.04882   0.00000  Uiso   1.00
H32    H     0.16055   0.64167   0.08265   0.00000  Uiso   1.00
H33    H     0.95654   0.79058   0.02671   0.00000  Uiso   1.00
H34    H     0.85068   0.59767   0.01677   0.00000  Uiso   1.00
H35    H     0.32718   0.61737   0.15220   0.00000  Uiso   1.00
H36    H     0.89698   0.93133   0.03423   0.00000  Uiso   1.00
H37    H     0.67376   0.52454   0.01327   0.00000  Uiso   1.00
O38    O     0.33956   0.65653   0.28461   0.00000  Uiso   1.00
O39    O     0.77514   0.06843   0.12983   0.00000  Uiso   1.00
O40    O     0.48229   0.53473   0.10234   0.00000  Uiso   1.00
N41    N     0.14938   0.71773   0.30920   0.00000  Uiso   1.00
N42    N     0.74719   0.01126   0.19890   0.00000  Uiso   1.00
N43    N     0.53848   0.63096   0.17931   0.00000  Uiso   1.00
N44    N     0.25733   0.65085   0.19545   0.00000  Uiso   1.00
N45    N     0.85514   0.94439   0.08516   0.00000  Uiso   1.00
N46    N     0.64643   0.56409   0.06556   0.00000  Uiso   1.00
C47    C     0.04320   0.76100   0.55395   0.00000  Uiso   1.00
C48    C     0.15770   0.77059   0.52489   0.00000  Uiso   1.00
C49    C     0.25609   0.71482   0.47463   0.00000  Uiso   1.00
C50    C     0.35209   0.73486   0.45503   0.00000  Uiso   1.00
C51    C     0.53026   0.73862   0.40543   0.00000  Uiso   1.00
C52    C     0.01454   0.79982   0.63626   0.00000  Uiso   1.00
C53    C     0.99253   0.76863   0.67963   0.00000  Uiso   1.00
C54    C     0.96801   0.81328   0.75377   0.00000  Uiso   1.00
C55    C     0.92383   0.86243   0.87707   0.00000  Uiso   1.00
C56    C     0.95432   0.80495   0.53809   0.00000  Uiso   1.00
C57    C     0.88166   0.77807   0.49893   0.00000  Uiso   1.00
C58    C     0.80641   0.82704   0.49044   0.00000  Uiso   1.00
C59    C     0.66874   0.88415   0.46131   0.00000  Uiso   1.00
C60    C     0.03874   0.89578   0.60850   0.00000  Uiso   1.00
C61    C     0.15528   0.84380   0.55453   0.00000  Uiso   1.00
C62    C     0.25116   0.86393   0.53499   0.00000  Uiso   1.00
C63    C     0.34967   0.80820   0.48470   0.00000  Uiso   1.00
C64    C     0.01211   0.87303   0.66589   0.00000  Uiso   1.00
C65    C     0.98760   0.91774   0.73998   0.00000  Uiso   1.00
C66    C     0.96558   0.88662   0.78345   0.00000  Uiso   1.00
C67    C     0.95190   0.87815   0.56772   0.00000  Uiso   1.00
C68    C     0.87674   0.92718   0.55928   0.00000  Uiso   1.00
C69    C     0.80399   0.90038   0.52012   0.00000  Uiso   1.00
H70    H     0.04509   0.70401   0.53089   0.00000  Uiso   1.00
H71    H     0.25793   0.65817   0.45172   0.00000  Uiso   1.00
H72    H     0.99440   0.71198   0.65668   0.00000  Uiso   1.00
H73    H     0.88356   0.72142   0.47601   0.00000  Uiso   1.00
H74    H     0.49285   0.63964   0.37704   0.00000  Uiso   1.00
H75    H     0.93716   0.75309   0.80921   0.00000  Uiso   1.00
H76    H     0.70341   0.77299   0.42824   0.00000  Uiso   1.00
H77    H     0.03686   0.95277   0.63157   0.00000  Uiso   1.00
H78    H     0.24926   0.92059   0.55793   0.00000  Uiso   1.00
H79    H     0.98573   0.97439   0.76289   0.00000  Uiso   1.00
H80    H     0.87489   0.98382   0.58222   0.00000  Uiso   1.00
H81    H     0.48581   0.85262   0.46324   0.00000  Uiso   1.00
H82    H     0.93011   0.96607   0.89542   0.00000  Uiso   1.00
H83    H     0.69637   0.98597   0.51444   0.00000  Uiso   1.00
O84    O     0.62922   0.72047   0.36990   0.00000  Uiso   1.00
O85    O     0.90014   0.86931   0.93689   0.00000  Uiso   1.00
O86    O     0.59348   0.89542   0.43706   0.00000  Uiso   1.00
N87    N     0.46204   0.69418   0.40742   0.00000  Uiso   1.00
N88    N     0.94252   0.80025   0.81148   0.00000  Uiso   1.00
N89    N     0.72396   0.81886   0.45531   0.00000  Uiso   1.00
N90    N     0.45825   0.80879   0.45381   0.00000  Uiso   1.00
N91    N     0.93873   0.91485   0.85786   0.00000  Uiso   1.00
N92    N     0.72018   0.93346   0.50170   0.00000  Uiso   1.00
C93    C     0.59709   0.44582   0.20686   0.00000  Uiso   1.00
C94    C     0.68235   0.47577   0.24454   0.00000  Uiso   1.00
C95    C     0.73202   0.52689   0.23866   0.00000  Uiso   1.00
C96    C     0.80795   0.54724   0.27741   0.00000  Uiso   1.00
C97    C     0.93654   0.59824   0.32935   0.00000  Uiso   1.00
C98    C     0.64951   0.36333   0.16346   0.00000  Uiso   1.00
C99    C     0.67154   0.31992   0.08940   0.00000  Uiso   1.00
C100   C     0.71981   0.24560   0.05990   0.00000  Uiso   1.00
C101   C     0.79733   0.12204   0.98595   0.00000  Uiso   1.00
C102   C     0.49129   0.46080   0.26691   0.00000  Uiso   1.00
C103   C     0.38029   0.49933   0.27983   0.00000  Uiso   1.00
C104   C     0.29534   0.50707   0.33742   0.00000  Uiso   1.00
C105   C     0.12721   0.53486   0.42410   0.00000  Uiso   1.00
C106   C     0.64360   0.39104   0.28615   0.00000  Uiso   1.00
C107   C     0.70761   0.44601   0.28761   0.00000  Uiso   1.00
C108   C     0.78348   0.46629   0.32638   0.00000  Uiso   1.00
C109   C     0.83325   0.51743   0.32056   0.00000  Uiso   1.00
C110   C     0.67477   0.33357   0.20652   0.00000  Uiso   1.00
C111   C     0.72300   0.25931   0.17712   0.00000  Uiso   1.00
C112   C     0.74511   0.21580   0.10304   0.00000  Uiso   1.00
C113   C     0.51655   0.43105   0.30998   0.00000  Uiso   1.00
C114   C     0.43176   0.43873   0.36755   0.00000  Uiso   1.00
C115   C     0.32065   0.47726   0.38056   0.00000  Uiso   1.00
H116   H     0.57742   0.46898   0.17333   0.00000  Uiso   1.00
H117   H     0.71245   0.54990   0.20532   0.00000  Uiso   1.00
H118   H     0.65197   0.34296   0.05609   0.00000  Uiso   1.00
H119   H     0.36077   0.52235   0.24649   0.00000  Uiso   1.00
H120   H     0.87334   0.62648   0.25976   0.00000  Uiso   1.00
H121   H     0.74577   0.19012   0.94510   0.00000  Uiso   1.00
H122   H     0.13172   0.56841   0.34660   0.00000  Uiso   1.00
H123   H     0.66327   0.36787   0.31968   0.00000  Uiso   1.00
H124   H     0.80301   0.44325   0.35971   0.00000  Uiso   1.00
H125   H     0.74254   0.23630   0.21047   0.00000  Uiso   1.00
H126   H     0.45134   0.41570   0.40087   0.00000  Uiso   1.00
H127   H     0.94684   0.53991   0.38506   0.00000  Uiso   1.00
H128   H     0.81928   0.10356   0.07040   0.00000  Uiso   1.00
H129   H     0.20523   0.48184   0.47190   0.00000  Uiso   1.00
O130   O     0.00050   0.63459   0.34609   0.00000  Uiso   1.00
O131   O     0.83312   0.06211   0.93327   0.00000  Uiso   1.00
O132   O     0.02750   0.55841   0.46002   0.00000  Uiso   1.00
N133   N     0.87144   0.59577   0.28377   0.00000  Uiso   1.00
N134   N     0.75219   0.18781   0.98958   0.00000  Uiso   1.00
N135   N     0.17810   0.54145   0.36493   0.00000  Uiso   1.00
N136   N     0.91099   0.54919   0.35120   0.00000  Uiso   1.00
N137   N     0.79175   0.14123   0.05700   0.00000  Uiso   1.00
N138   N     0.21765   0.49487   0.43236   0.00000  Uiso   1.00
C139   C     0.54131   0.55340   0.76101   0.00000  Uiso   1.00
C140   C     0.65480   0.52501   0.76967   0.00000  Uiso   1.00
C141   C     0.75334   0.47513   0.71356   0.00000  Uiso   1.00
C142   C     0.84831   0.45611   0.73274   0.00000  Uiso   1.00
C143   C     0.02510   0.40751   0.73513   0.00000  Uiso   1.00
C144   C     0.51380   0.63609   0.79975   0.00000  Uiso   1.00
C145   C     0.49377   0.67961   0.76892   0.00000  Uiso   1.00
C146   C     0.47003   0.75410   0.81343   0.00000  Uiso   1.00
C147   C     0.42783   0.87797   0.86254   0.00000  Uiso   1.00
C148   C     0.45082   0.53675   0.80532   0.00000  Uiso   1.00
C149   C     0.37781   0.49675   0.77919   0.00000  Uiso   1.00
C150   C     0.30103   0.48762   0.82839   0.00000  Uiso   1.00
C151   C     0.16104   0.45724   0.88614   0.00000  Uiso   1.00
C152   C     0.53473   0.60832   0.89485   0.00000  Uiso   1.00
C153   C     0.65123   0.55484   0.84237   0.00000  Uiso   1.00
C154   C     0.74607   0.53589   0.86164   0.00000  Uiso   1.00
C155   C     0.84474   0.48599   0.80557   0.00000  Uiso   1.00
C156   C     0.51023   0.66592   0.87245   0.00000  Uiso   1.00
C157   C     0.48650   0.74037   0.91701   0.00000  Uiso   1.00
C158   C     0.46646   0.78399   0.88626   0.00000  Uiso   1.00
C159   C     0.44725   0.56658   0.87802   0.00000  Uiso   1.00
C160   C     0.37055   0.55751   0.92727   0.00000  Uiso   1.00
C161   C     0.29745   0.51751   0.90122   0.00000  Uiso   1.00
H162   H     0.54408   0.53018   0.70441   0.00000  Uiso   1.00
H163   H     0.75607   0.45206   0.65730   0.00000  Uiso   1.00
H164   H     0.49653   0.65651   0.71267   0.00000  Uiso   1.00
H165   H     0.38060   0.47367   0.72293   0.00000  Uiso   1.00
H166   H     0.98954   0.37862   0.63714   0.00000  Uiso   1.00
H167   H     0.44225   0.80972   0.75388   0.00000  Uiso   1.00
H168   H     0.19778   0.42418   0.77551   0.00000  Uiso   1.00
H169   H     0.53196   0.63155   0.95145   0.00000  Uiso   1.00
H170   H     0.74329   0.55898   0.91790   0.00000  Uiso   1.00
H171   H     0.48374   0.76344   0.97327   0.00000  Uiso   1.00
H172   H     0.36782   0.58060   0.98352   0.00000  Uiso   1.00
H173   H     0.97917   0.46541   0.84865   0.00000  Uiso   1.00
H174   H     0.43186   0.89651   0.96540   0.00000  Uiso   1.00
H175   H     0.18740   0.51097   0.98703   0.00000  Uiso   1.00
O176   O     0.12361   0.37247   0.71637   0.00000  Uiso   1.00
O177   O     0.40555   0.93805   0.86953   0.00000  Uiso   1.00
O178   O     0.08483   0.43223   0.89791   0.00000  Uiso   1.00
N179   N     0.95809   0.40899   0.69152   0.00000  Uiso   1.00
N180   N     0.44642   0.81204   0.80067   0.00000  Uiso   1.00
N181   N     0.21784   0.45161   0.82090   0.00000  Uiso   1.00
N182   N     0.95251   0.45569   0.80534   0.00000  Uiso   1.00
N183   N     0.44084   0.85874   0.91448   0.00000  Uiso   1.00
N184   N     0.21226   0.49831   0.93471   0.00000  Uiso   1.00
C185   C     0.09736   0.20686   0.44591   0.00000  Uiso   1.00
C186   C     0.18285   0.24547   0.47499   0.00000  Uiso   1.00
C187   C     0.23102   0.23992   0.52538   0.00000  Uiso   1.00
C188   C     0.30746   0.27954   0.54500   0.00000  Uiso   1.00
C189   C     0.43611   0.33283   0.59466   0.00000  Uiso   1.00
C190   C     0.15082   0.16353   0.36362   0.00000  Uiso   1.00
C191   C     0.17203   0.08910   0.32036   0.00000  Uiso   1.00
C192   C     0.22148   0.05975   0.24622   0.00000  Uiso   1.00
C193   C     0.30032   0.98585   0.12296   0.00000  Uiso   1.00
C194   C     0.99275   0.26654   0.46158   0.00000  Uiso   1.00
C195   C     0.88105   0.27871   0.50067   0.00000  Uiso   1.00
C196   C     0.79741   0.33608   0.50899   0.00000  Uiso   1.00
C197   C     0.63082   0.42211   0.53782   0.00000  Uiso   1.00
C198   C     0.14744   0.28707   0.39114   0.00000  Uiso   1.00
C199   C     0.21006   0.28904   0.44524   0.00000  Uiso   1.00
C200   C     0.28643   0.32868   0.46479   0.00000  Uiso   1.00
C201   C     0.33471   0.32319   0.51520   0.00000  Uiso   1.00
C202   C     0.17802   0.20710   0.33387   0.00000  Uiso   1.00
C203   C     0.22744   0.17785   0.25977   0.00000  Uiso   1.00
C204   C     0.24874   0.10340   0.21641   0.00000  Uiso   1.00
C205   C     0.01995   0.31011   0.43183   0.00000  Uiso   1.00
C206   C     0.93646   0.36747   0.44008   0.00000  Uiso   1.00
C207   C     0.82467   0.37972   0.47918   0.00000  Uiso   1.00
H208   H     0.07619   0.17293   0.46906   0.00000  Uiso   1.00
H209   H     0.20996   0.20619   0.54839   0.00000  Uiso   1.00
H210   H     0.15096   0.05540   0.34340   0.00000  Uiso   1.00
H211   H     0.86003   0.24498   0.52368   0.00000  Uiso   1.00
H212   H     0.37030   0.26226   0.62319   0.00000  Uiso   1.00
H213   H     0.24587   0.94431   0.19096   0.00000  Uiso   1.00
H214   H     0.63238   0.34408   0.57112   0.00000  Uiso   1.00
H215   H     0.16862   0.32100   0.36798   0.00000  Uiso   1.00
H216   H     0.30747   0.36239   0.44176   0.00000  Uiso   1.00
H217   H     0.24848   0.21159   0.23677   0.00000  Uiso   1.00
H218   H     0.95755   0.40117   0.41705   0.00000  Uiso   1.00
H219   H     0.44945   0.38903   0.53665   0.00000  Uiso   1.00
H220   H     0.32501   0.07108   0.10441   0.00000  Uiso   1.00
H221   H     0.71153   0.47085   0.48458   0.00000  Uiso   1.00
O222   O     0.49957   0.35019   0.63026   0.00000  Uiso   1.00
O223   O     0.33630   0.93304   0.06319   0.00000  Uiso   1.00
O224   O     0.53143   0.45753   0.56195   0.00000  Uiso   1.00
N225   N     0.36985   0.28643   0.59271   0.00000  Uiso   1.00
N226   N     0.25353   0.98916   0.18860   0.00000  Uiso   1.00
N227   N     0.67997   0.36290   0.54400   0.00000  Uiso   1.00
N228   N     0.41244   0.35465   0.54614   0.00000  Uiso   1.00
N229   N     0.29612   0.05737   0.14203   0.00000  Uiso   1.00
N230   N     0.72256   0.43111   0.49743   0.00000  Uiso   1.00
C231   C     0.30383   0.23906   0.79305   0.00000  Uiso   1.00
C232   C     0.42666   0.23143   0.75543   0.00000  Uiso   1.00
C233   C     0.47050   0.28839   0.76123   0.00000  Uiso   1.00
C234   C     0.58506   0.27009   0.72256   0.00000  Uiso   1.00
C235   C     0.76543   0.26930   0.67070   0.00000  Uiso   1.00
C236   C     0.31286   0.19998   0.83662   0.00000  Uiso   1.00
C237   C     0.26100   0.23048   0.91067   0.00000  Uiso   1.00
C238   C     0.27975   0.18570   0.94033   0.00000  Uiso   1.00
C239   C     0.28337   0.13606   0.01450   0.00000  Uiso   1.00
C240   C     0.25797   0.19410   0.73297   0.00000  Uiso   1.00
C241   C     0.15993   0.21965   0.71989   0.00000  Uiso   1.00
C242   C     0.13245   0.16991   0.66230   0.00000  Uiso   1.00
C243   C     0.05085   0.11114   0.57555   0.00000  Uiso   1.00
C244   C     0.42931   0.10528   0.71404   0.00000  Uiso   1.00
C245   C     0.49482   0.15877   0.71252   0.00000  Uiso   1.00
C246   C     0.60934   0.14037   0.67382   0.00000  Uiso   1.00
C247   C     0.65334   0.19729   0.67956   0.00000  Uiso   1.00
C248   C     0.38101   0.12731   0.79370   0.00000  Uiso   1.00
C249   C     0.39984   0.08247   0.82326   0.00000  Uiso   1.00
C250   C     0.34803   0.11290   0.89734   0.00000  Uiso   1.00
C251   C     0.32612   0.12143   0.69006   0.00000  Uiso   1.00
C252   C     0.29878   0.07164   0.63248   0.00000  Uiso   1.00
C253   C     0.20073   0.09711   0.61931   0.00000  Uiso   1.00
H254   H     0.25076   0.29563   0.82647   0.00000  Uiso   1.00
H255   H     0.41773   0.34462   0.79446   0.00000  Uiso   1.00
H256   H     0.20825   0.28672   0.94387   0.00000  Uiso   1.00
H257   H     0.10721   0.27589   0.75311   0.00000  Uiso   1.00
H258   H     0.63291   0.36688   0.74006   0.00000  Uiso   1.00
H259   H     0.19118   0.24478   0.05510   0.00000  Uiso   1.00
H260   H     0.97812   0.22195   0.65287   0.00000  Uiso   1.00
H261   H     0.48238   0.04870   0.68063   0.00000  Uiso   1.00
H262   H     0.66206   0.08414   0.64061   0.00000  Uiso   1.00
H263   H     0.45258   0.02624   0.79003   0.00000  Uiso   1.00
H264   H     0.35155   0.01541   0.59928   0.00000  Uiso   1.00
H265   H     0.83122   0.15546   0.61520   0.00000  Uiso   1.00
H266   H     0.38949   0.03337   0.93024   0.00000  Uiso   1.00
H267   H     0.17643   0.01054   0.52801   0.00000  Uiso   1.00
O268   O     0.84609   0.28894   0.65396   0.00000  Uiso   1.00
O269   O     0.26655   0.12875   0.06727   0.00000  Uiso   1.00
O270   O     0.98702   0.09879   0.53955   0.00000  Uiso   1.00
N271   N     0.65492   0.31226   0.71616   0.00000  Uiso   1.00
N272   N     0.24194   0.19811   0.01070   0.00000  Uiso   1.00
N273   N     0.04273   0.17676   0.63466   0.00000  Uiso   1.00
N274   N     0.76163   0.19850   0.64897   0.00000  Uiso   1.00
N275   N     0.34865   0.08435   0.94351   0.00000  Uiso   1.00
N276   N     0.14944   0.06300   0.56747   0.00000  Uiso   1.00
