data_job_05361
_audit_creation_date              2018-12-19
_audit_creation_method            'Materials Studio'
_symmetry_space_group_name_H-M    'P1'
_symmetry_Int_Tables_number       1
_symmetry_cell_setting            triclinic
loop_
_symmetry_equiv_pos_as_xyz
  x,y,z
_cell_length_a                    11.3755
_cell_length_b                    17.0902
_cell_length_c                    26.2351
_cell_angle_alpha                 90.0000
_cell_angle_beta                  90.0000
_cell_angle_gamma                 90.0000
loop_
_atom_site_label
_atom_site_type_symbol
_atom_site_fract_x
_atom_site_fract_y
_atom_site_fract_z
_atom_site_U_iso_or_equiv
_atom_site_adp_type
_atom_site_occupancy
C1     C     0.26629   0.31469   0.14164   0.00000  Uiso   1.00
C2     C     0.28039   0.33824   0.08591   0.00000  Uiso   1.00
C3     C     0.33740   0.40477   0.06833   0.00000  Uiso   1.00
C4     C     0.34079   0.41584   0.01593   0.00000  Uiso   1.00
C5     C     0.37051   0.46059   0.93450   0.00000  Uiso   1.00
C6     C     0.13452   0.30540   0.15045   0.00000  Uiso   1.00
C7     C     0.06890   0.34431   0.18715   0.00000  Uiso   1.00
C8     C     0.94949   0.32774   0.18907   0.00000  Uiso   1.00
C9     C     0.75277   0.32146   0.20788   0.00000  Uiso   1.00
C10    C     0.31859   0.23283   0.14620   0.00000  Uiso   1.00
C11    C     0.40772   0.21072   0.17933   0.00000  Uiso   1.00
C12    C     0.44327   0.13304   0.17768   0.00000  Uiso   1.00
C13    C     0.53235   0.01408   0.18988   0.00000  Uiso   1.00
C14    C     0.17092   0.21606   0.07983   0.00000  Uiso   1.00
C15    C     0.22859   0.28467   0.05234   0.00000  Uiso   1.00
C16    C     0.23189   0.29565   0.99994   0.00000  Uiso   1.00
C17    C     0.28890   0.36218   0.98229   0.00000  Uiso   1.00
C18    C     0.08272   0.25184   0.11688   0.00000  Uiso   1.00
C19    C     0.96339   0.23520   0.11876   0.00000  Uiso   1.00
C20    C     0.89760   0.27407   0.15544   0.00000  Uiso   1.00
C21    C     0.26680   0.17926   0.11263   0.00000  Uiso   1.00
C22    C     0.30221   0.10160   0.11094   0.00000  Uiso   1.00
C23    C     0.39138   0.07937   0.14405   0.00000  Uiso   1.00
H24    H     0.30661   0.35639   0.16778   0.00000  Uiso   1.00
H25    H     0.37747   0.44621   0.09433   0.00000  Uiso   1.00
H26    H     0.10901   0.38576   0.21312   0.00000  Uiso   1.00
H27    H     0.44778   0.25219   0.20530   0.00000  Uiso   1.00
H28    H     0.43314   0.52218   0.99808   0.00000  Uiso   1.00
H29    H     0.86710   0.39470   0.24859   0.00000  Uiso   1.00
H30    H     0.58146   0.11303   0.23210   0.00000  Uiso   1.00
H31    H     0.13059   0.17435   0.05369   0.00000  Uiso   1.00
H32    H     0.19179   0.25418   0.97397   0.00000  Uiso   1.00
H33    H     0.92333   0.19373   0.09277   0.00000  Uiso   1.00
H34    H     0.26211   0.06016   0.08495   0.00000  Uiso   1.00
H35    H     0.28244   0.36633   0.90040   0.00000  Uiso   1.00
H36    H     0.71639   0.23884   0.15091   0.00000  Uiso   1.00
H37    H     0.43076   0.95718   0.13441   0.00000  Uiso   1.00
O38    O     0.40119   0.50007   0.89886   0.00000  Uiso   1.00
O39    O     0.65857   0.33280   0.22752   0.00000  Uiso   1.00
O40    O     0.59580   0.96327   0.20588   0.00000  Uiso   1.00
N41    N     0.38930   0.47454   0.98603   0.00000  Uiso   1.00
N42    N     0.86007   0.35536   0.22023   0.00000  Uiso   1.00
N43    N     0.52792   0.09202   0.20483   0.00000  Uiso   1.00
N44    N     0.30821   0.39067   0.93347   0.00000  Uiso   1.00
N45    N     0.77898   0.27149   0.16767   0.00000  Uiso   1.00
N46    N     0.44683   0.00815   0.15226   0.00000  Uiso   1.00
C47    C     0.23371   0.68531   0.14164   0.00000  Uiso   1.00
C48    C     0.21961   0.66176   0.08591   0.00000  Uiso   1.00
C49    C     0.16260   0.59523   0.06833   0.00000  Uiso   1.00
C50    C     0.15921   0.58416   0.01593   0.00000  Uiso   1.00
C51    C     0.12949   0.53941   0.93450   0.00000  Uiso   1.00
C52    C     0.36548   0.69460   0.15045   0.00000  Uiso   1.00
C53    C     0.43110   0.65569   0.18715   0.00000  Uiso   1.00
C54    C     0.55051   0.67226   0.18907   0.00000  Uiso   1.00
C55    C     0.74723   0.67854   0.20788   0.00000  Uiso   1.00
C56    C     0.18141   0.76717   0.14620   0.00000  Uiso   1.00
C57    C     0.09228   0.78928   0.17933   0.00000  Uiso   1.00
C58    C     0.05673   0.86696   0.17768   0.00000  Uiso   1.00
C59    C     0.96765   0.98592   0.18988   0.00000  Uiso   1.00
C60    C     0.32908   0.78394   0.07983   0.00000  Uiso   1.00
C61    C     0.27141   0.71533   0.05234   0.00000  Uiso   1.00
C62    C     0.26811   0.70435   0.99994   0.00000  Uiso   1.00
C63    C     0.21110   0.63782   0.98229   0.00000  Uiso   1.00
C64    C     0.41728   0.74816   0.11688   0.00000  Uiso   1.00
C65    C     0.53661   0.76480   0.11876   0.00000  Uiso   1.00
C66    C     0.60240   0.72593   0.15544   0.00000  Uiso   1.00
C67    C     0.23320   0.82074   0.11263   0.00000  Uiso   1.00
C68    C     0.19779   0.89840   0.11094   0.00000  Uiso   1.00
C69    C     0.10862   0.92063   0.14405   0.00000  Uiso   1.00
H70    H     0.19339   0.64361   0.16778   0.00000  Uiso   1.00
H71    H     0.12253   0.55379   0.09433   0.00000  Uiso   1.00
H72    H     0.39099   0.61424   0.21312   0.00000  Uiso   1.00
H73    H     0.05222   0.74781   0.20530   0.00000  Uiso   1.00
H74    H     0.06686   0.47782   0.99808   0.00000  Uiso   1.00
H75    H     0.63290   0.60530   0.24859   0.00000  Uiso   1.00
H76    H     0.91854   0.88697   0.23210   0.00000  Uiso   1.00
H77    H     0.36941   0.82565   0.05369   0.00000  Uiso   1.00
H78    H     0.30821   0.74582   0.97397   0.00000  Uiso   1.00
H79    H     0.57667   0.80627   0.09277   0.00000  Uiso   1.00
H80    H     0.23789   0.93984   0.08495   0.00000  Uiso   1.00
H81    H     0.21756   0.63367   0.90040   0.00000  Uiso   1.00
H82    H     0.78361   0.76116   0.15091   0.00000  Uiso   1.00
H83    H     0.06924   0.04282   0.13441   0.00000  Uiso   1.00
O84    O     0.09881   0.49993   0.89886   0.00000  Uiso   1.00
O85    O     0.84143   0.66720   0.22752   0.00000  Uiso   1.00
O86    O     0.90420   0.03673   0.20588   0.00000  Uiso   1.00
N87    N     0.11070   0.52546   0.98603   0.00000  Uiso   1.00
N88    N     0.63993   0.64464   0.22023   0.00000  Uiso   1.00
N89    N     0.97208   0.90798   0.20483   0.00000  Uiso   1.00
N90    N     0.19179   0.60933   0.93347   0.00000  Uiso   1.00
N91    N     0.72102   0.72851   0.16767   0.00000  Uiso   1.00
N92    N     0.05317   0.99185   0.15226   0.00000  Uiso   1.00
C93    C     0.23371   0.81469   0.35836   0.00000  Uiso   1.00
C94    C     0.21961   0.83824   0.41409   0.00000  Uiso   1.00
C95    C     0.16260   0.90477   0.43167   0.00000  Uiso   1.00
C96    C     0.15921   0.91584   0.48407   0.00000  Uiso   1.00
C97    C     0.12949   0.96059   0.56550   0.00000  Uiso   1.00
C98    C     0.36548   0.80540   0.34955   0.00000  Uiso   1.00
C99    C     0.43110   0.84431   0.31285   0.00000  Uiso   1.00
C100   C     0.55051   0.82774   0.31093   0.00000  Uiso   1.00
C101   C     0.74723   0.82146   0.29212   0.00000  Uiso   1.00
C102   C     0.18141   0.73283   0.35380   0.00000  Uiso   1.00
C103   C     0.09228   0.71072   0.32067   0.00000  Uiso   1.00
C104   C     0.05673   0.63304   0.32232   0.00000  Uiso   1.00
C105   C     0.96765   0.51408   0.31012   0.00000  Uiso   1.00
C106   C     0.32908   0.71606   0.42017   0.00000  Uiso   1.00
C107   C     0.27141   0.78467   0.44766   0.00000  Uiso   1.00
C108   C     0.26811   0.79565   0.50006   0.00000  Uiso   1.00
C109   C     0.21110   0.86218   0.51771   0.00000  Uiso   1.00
C110   C     0.41728   0.75184   0.38312   0.00000  Uiso   1.00
C111   C     0.53661   0.73520   0.38124   0.00000  Uiso   1.00
C112   C     0.60240   0.77407   0.34456   0.00000  Uiso   1.00
C113   C     0.23320   0.67926   0.38737   0.00000  Uiso   1.00
C114   C     0.19779   0.60160   0.38906   0.00000  Uiso   1.00
C115   C     0.10862   0.57937   0.35595   0.00000  Uiso   1.00
H116   H     0.19339   0.85639   0.33222   0.00000  Uiso   1.00
H117   H     0.12253   0.94621   0.40567   0.00000  Uiso   1.00
H118   H     0.39099   0.88576   0.28688   0.00000  Uiso   1.00
H119   H     0.05222   0.75219   0.29470   0.00000  Uiso   1.00
H120   H     0.06686   0.02218   0.50192   0.00000  Uiso   1.00
H121   H     0.63290   0.89470   0.25141   0.00000  Uiso   1.00
H122   H     0.91854   0.61303   0.26790   0.00000  Uiso   1.00
H123   H     0.36941   0.67435   0.44631   0.00000  Uiso   1.00
H124   H     0.30821   0.75418   0.52603   0.00000  Uiso   1.00
H125   H     0.57667   0.69373   0.40723   0.00000  Uiso   1.00
H126   H     0.23789   0.56016   0.41505   0.00000  Uiso   1.00
H127   H     0.21756   0.86633   0.59960   0.00000  Uiso   1.00
H128   H     0.78361   0.73884   0.34909   0.00000  Uiso   1.00
H129   H     0.06924   0.45718   0.36559   0.00000  Uiso   1.00
O130   O     0.09881   0.00007   0.60114   0.00000  Uiso   1.00
O131   O     0.84143   0.83280   0.27248   0.00000  Uiso   1.00
O132   O     0.90420   0.46327   0.29412   0.00000  Uiso   1.00
N133   N     0.11070   0.97454   0.51397   0.00000  Uiso   1.00
N134   N     0.63993   0.85536   0.27977   0.00000  Uiso   1.00
N135   N     0.97208   0.59202   0.29517   0.00000  Uiso   1.00
N136   N     0.19179   0.89067   0.56653   0.00000  Uiso   1.00
N137   N     0.72102   0.77149   0.33233   0.00000  Uiso   1.00
N138   N     0.05317   0.50815   0.34774   0.00000  Uiso   1.00
C139   C     0.26629   0.18531   0.35836   0.00000  Uiso   1.00
C140   C     0.28039   0.16176   0.41409   0.00000  Uiso   1.00
C141   C     0.33740   0.09523   0.43167   0.00000  Uiso   1.00
C142   C     0.34079   0.08416   0.48407   0.00000  Uiso   1.00
C143   C     0.37051   0.03941   0.56550   0.00000  Uiso   1.00
C144   C     0.13452   0.19460   0.34955   0.00000  Uiso   1.00
C145   C     0.06890   0.15569   0.31285   0.00000  Uiso   1.00
C146   C     0.94949   0.17226   0.31093   0.00000  Uiso   1.00
C147   C     0.75277   0.17854   0.29212   0.00000  Uiso   1.00
C148   C     0.31859   0.26717   0.35380   0.00000  Uiso   1.00
C149   C     0.40772   0.28928   0.32067   0.00000  Uiso   1.00
C150   C     0.44327   0.36696   0.32232   0.00000  Uiso   1.00
C151   C     0.53235   0.48592   0.31012   0.00000  Uiso   1.00
C152   C     0.17092   0.28394   0.42017   0.00000  Uiso   1.00
C153   C     0.22859   0.21533   0.44766   0.00000  Uiso   1.00
C154   C     0.23189   0.20435   0.50006   0.00000  Uiso   1.00
C155   C     0.28890   0.13782   0.51771   0.00000  Uiso   1.00
C156   C     0.08272   0.24816   0.38312   0.00000  Uiso   1.00
C157   C     0.96339   0.26480   0.38124   0.00000  Uiso   1.00
C158   C     0.89760   0.22593   0.34456   0.00000  Uiso   1.00
C159   C     0.26680   0.32074   0.38737   0.00000  Uiso   1.00
C160   C     0.30221   0.39840   0.38906   0.00000  Uiso   1.00
C161   C     0.39138   0.42063   0.35595   0.00000  Uiso   1.00
H162   H     0.30661   0.14361   0.33222   0.00000  Uiso   1.00
H163   H     0.37747   0.05379   0.40567   0.00000  Uiso   1.00
H164   H     0.10901   0.11424   0.28688   0.00000  Uiso   1.00
H165   H     0.44778   0.24781   0.29470   0.00000  Uiso   1.00
H166   H     0.43314   0.97782   0.50192   0.00000  Uiso   1.00
H167   H     0.86710   0.10530   0.25141   0.00000  Uiso   1.00
H168   H     0.58146   0.38697   0.26790   0.00000  Uiso   1.00
H169   H     0.13059   0.32565   0.44631   0.00000  Uiso   1.00
H170   H     0.19179   0.24582   0.52603   0.00000  Uiso   1.00
H171   H     0.92333   0.30627   0.40723   0.00000  Uiso   1.00
H172   H     0.26211   0.43984   0.41505   0.00000  Uiso   1.00
H173   H     0.28244   0.13367   0.59960   0.00000  Uiso   1.00
H174   H     0.71639   0.26116   0.34909   0.00000  Uiso   1.00
H175   H     0.43076   0.54282   0.36559   0.00000  Uiso   1.00
O176   O     0.40119   0.99993   0.60114   0.00000  Uiso   1.00
O177   O     0.65857   0.16720   0.27248   0.00000  Uiso   1.00
O178   O     0.59580   0.53673   0.29412   0.00000  Uiso   1.00
N179   N     0.38930   0.02546   0.51397   0.00000  Uiso   1.00
N180   N     0.86007   0.14464   0.27977   0.00000  Uiso   1.00
N181   N     0.52792   0.40798   0.29517   0.00000  Uiso   1.00
N182   N     0.30821   0.10933   0.56653   0.00000  Uiso   1.00
N183   N     0.77898   0.22851   0.33233   0.00000  Uiso   1.00
N184   N     0.44683   0.49185   0.34774   0.00000  Uiso   1.00
C185   C     0.73371   0.68531   0.85836   0.00000  Uiso   1.00
C186   C     0.71961   0.66176   0.91409   0.00000  Uiso   1.00
C187   C     0.66260   0.59523   0.93167   0.00000  Uiso   1.00
C188   C     0.65921   0.58416   0.98407   0.00000  Uiso   1.00
C189   C     0.62949   0.53941   0.06550   0.00000  Uiso   1.00
C190   C     0.86548   0.69460   0.84955   0.00000  Uiso   1.00
C191   C     0.93110   0.65569   0.81285   0.00000  Uiso   1.00
C192   C     0.05051   0.67226   0.81093   0.00000  Uiso   1.00
C193   C     0.24723   0.67854   0.79212   0.00000  Uiso   1.00
C194   C     0.68141   0.76717   0.85380   0.00000  Uiso   1.00
C195   C     0.59228   0.78928   0.82067   0.00000  Uiso   1.00
C196   C     0.55673   0.86696   0.82232   0.00000  Uiso   1.00
C197   C     0.46765   0.98592   0.81012   0.00000  Uiso   1.00
C198   C     0.82908   0.78394   0.92017   0.00000  Uiso   1.00
C199   C     0.77141   0.71533   0.94766   0.00000  Uiso   1.00
C200   C     0.76811   0.70435   0.00006   0.00000  Uiso   1.00
C201   C     0.71110   0.63782   0.01771   0.00000  Uiso   1.00
C202   C     0.91728   0.74816   0.88312   0.00000  Uiso   1.00
C203   C     0.03661   0.76480   0.88124   0.00000  Uiso   1.00
C204   C     0.10240   0.72593   0.84456   0.00000  Uiso   1.00
C205   C     0.73320   0.82074   0.88737   0.00000  Uiso   1.00
C206   C     0.69779   0.89840   0.88906   0.00000  Uiso   1.00
C207   C     0.60862   0.92063   0.85595   0.00000  Uiso   1.00
H208   H     0.69339   0.64361   0.83222   0.00000  Uiso   1.00
H209   H     0.62253   0.55379   0.90567   0.00000  Uiso   1.00
H210   H     0.89099   0.61424   0.78688   0.00000  Uiso   1.00
H211   H     0.55222   0.74781   0.79470   0.00000  Uiso   1.00
H212   H     0.56686   0.47782   0.00192   0.00000  Uiso   1.00
H213   H     0.13290   0.60530   0.75141   0.00000  Uiso   1.00
H214   H     0.41854   0.88697   0.76790   0.00000  Uiso   1.00
H215   H     0.86941   0.82565   0.94631   0.00000  Uiso   1.00
H216   H     0.80821   0.74582   0.02603   0.00000  Uiso   1.00
H217   H     0.07667   0.80627   0.90723   0.00000  Uiso   1.00
H218   H     0.73789   0.93984   0.91505   0.00000  Uiso   1.00
H219   H     0.71756   0.63367   0.09960   0.00000  Uiso   1.00
H220   H     0.28361   0.76116   0.84909   0.00000  Uiso   1.00
H221   H     0.56924   0.04282   0.86559   0.00000  Uiso   1.00
O222   O     0.59881   0.49993   0.10114   0.00000  Uiso   1.00
O223   O     0.34143   0.66720   0.77248   0.00000  Uiso   1.00
O224   O     0.40420   0.03673   0.79412   0.00000  Uiso   1.00
N225   N     0.61070   0.52546   0.01397   0.00000  Uiso   1.00
N226   N     0.13993   0.64464   0.77977   0.00000  Uiso   1.00
N227   N     0.47208   0.90798   0.79517   0.00000  Uiso   1.00
N228   N     0.69179   0.60933   0.06653   0.00000  Uiso   1.00
N229   N     0.22102   0.72851   0.83233   0.00000  Uiso   1.00
N230   N     0.55317   0.99185   0.84774   0.00000  Uiso   1.00
C231   C     0.76629   0.31469   0.85836   0.00000  Uiso   1.00
C232   C     0.78039   0.33824   0.91409   0.00000  Uiso   1.00
C233   C     0.83740   0.40477   0.93167   0.00000  Uiso   1.00
C234   C     0.84079   0.41584   0.98407   0.00000  Uiso   1.00
C235   C     0.87051   0.46059   0.06550   0.00000  Uiso   1.00
C236   C     0.63452   0.30540   0.84955   0.00000  Uiso   1.00
C237   C     0.56890   0.34431   0.81285   0.00000  Uiso   1.00
C238   C     0.44949   0.32774   0.81093   0.00000  Uiso   1.00
C239   C     0.25277   0.32146   0.79212   0.00000  Uiso   1.00
C240   C     0.81859   0.23283   0.85380   0.00000  Uiso   1.00
C241   C     0.90772   0.21072   0.82067   0.00000  Uiso   1.00
C242   C     0.94327   0.13304   0.82232   0.00000  Uiso   1.00
C243   C     0.03235   0.01408   0.81012   0.00000  Uiso   1.00
C244   C     0.67092   0.21606   0.92017   0.00000  Uiso   1.00
C245   C     0.72859   0.28467   0.94766   0.00000  Uiso   1.00
C246   C     0.73189   0.29565   0.00006   0.00000  Uiso   1.00
C247   C     0.78890   0.36218   0.01771   0.00000  Uiso   1.00
C248   C     0.58272   0.25184   0.88312   0.00000  Uiso   1.00
C249   C     0.46339   0.23520   0.88124   0.00000  Uiso   1.00
C250   C     0.39760   0.27407   0.84456   0.00000  Uiso   1.00
C251   C     0.76680   0.17926   0.88737   0.00000  Uiso   1.00
C252   C     0.80221   0.10160   0.88906   0.00000  Uiso   1.00
C253   C     0.89138   0.07937   0.85595   0.00000  Uiso   1.00
H254   H     0.80661   0.35639   0.83222   0.00000  Uiso   1.00
H255   H     0.87747   0.44621   0.90567   0.00000  Uiso   1.00
H256   H     0.60901   0.38576   0.78688   0.00000  Uiso   1.00
H257   H     0.94778   0.25219   0.79470   0.00000  Uiso   1.00
H258   H     0.93314   0.52218   0.00192   0.00000  Uiso   1.00
H259   H     0.36710   0.39470   0.75141   0.00000  Uiso   1.00
H260   H     0.08146   0.11303   0.76790   0.00000  Uiso   1.00
H261   H     0.63059   0.17435   0.94631   0.00000  Uiso   1.00
H262   H     0.69179   0.25418   0.02603   0.00000  Uiso   1.00
H263   H     0.42333   0.19373   0.90723   0.00000  Uiso   1.00
H264   H     0.76211   0.06016   0.91505   0.00000  Uiso   1.00
H265   H     0.78244   0.36633   0.09960   0.00000  Uiso   1.00
H266   H     0.21639   0.23884   0.84909   0.00000  Uiso   1.00
H267   H     0.93076   0.95718   0.86559   0.00000  Uiso   1.00
O268   O     0.90119   0.50007   0.10114   0.00000  Uiso   1.00
O269   O     0.15857   0.33280   0.77248   0.00000  Uiso   1.00
O270   O     0.09580   0.96327   0.79412   0.00000  Uiso   1.00
N271   N     0.88930   0.47454   0.01397   0.00000  Uiso   1.00
N272   N     0.36007   0.35536   0.77977   0.00000  Uiso   1.00
N273   N     0.02792   0.09202   0.79517   0.00000  Uiso   1.00
N274   N     0.80821   0.39067   0.06653   0.00000  Uiso   1.00
N275   N     0.27898   0.27149   0.83233   0.00000  Uiso   1.00
N276   N     0.94683   0.00815   0.84774   0.00000  Uiso   1.00
C277   C     0.76629   0.18531   0.64164   0.00000  Uiso   1.00
C278   C     0.78039   0.16176   0.58591   0.00000  Uiso   1.00
C279   C     0.83740   0.09523   0.56833   0.00000  Uiso   1.00
C280   C     0.84079   0.08416   0.51593   0.00000  Uiso   1.00
C281   C     0.87051   0.03941   0.43450   0.00000  Uiso   1.00
C282   C     0.63452   0.19460   0.65045   0.00000  Uiso   1.00
C283   C     0.56890   0.15569   0.68715   0.00000  Uiso   1.00
C284   C     0.44949   0.17226   0.68907   0.00000  Uiso   1.00
C285   C     0.25277   0.17854   0.70788   0.00000  Uiso   1.00
C286   C     0.81859   0.26717   0.64620   0.00000  Uiso   1.00
C287   C     0.90772   0.28928   0.67933   0.00000  Uiso   1.00
C288   C     0.94327   0.36696   0.67768   0.00000  Uiso   1.00
C289   C     0.03235   0.48592   0.68988   0.00000  Uiso   1.00
C290   C     0.67092   0.28394   0.57983   0.00000  Uiso   1.00
C291   C     0.72859   0.21533   0.55234   0.00000  Uiso   1.00
C292   C     0.73189   0.20435   0.49994   0.00000  Uiso   1.00
C293   C     0.78890   0.13782   0.48229   0.00000  Uiso   1.00
C294   C     0.58272   0.24816   0.61688   0.00000  Uiso   1.00
C295   C     0.46339   0.26480   0.61876   0.00000  Uiso   1.00
C296   C     0.39760   0.22593   0.65544   0.00000  Uiso   1.00
C297   C     0.76680   0.32074   0.61263   0.00000  Uiso   1.00
C298   C     0.80221   0.39840   0.61094   0.00000  Uiso   1.00
C299   C     0.89138   0.42063   0.64405   0.00000  Uiso   1.00
H300   H     0.80661   0.14361   0.66778   0.00000  Uiso   1.00
H301   H     0.87747   0.05379   0.59433   0.00000  Uiso   1.00
H302   H     0.60901   0.11424   0.71312   0.00000  Uiso   1.00
H303   H     0.94778   0.24781   0.70530   0.00000  Uiso   1.00
H304   H     0.93314   0.97782   0.49808   0.00000  Uiso   1.00
H305   H     0.36710   0.10530   0.74859   0.00000  Uiso   1.00
H306   H     0.08146   0.38697   0.73210   0.00000  Uiso   1.00
H307   H     0.63059   0.32565   0.55369   0.00000  Uiso   1.00
H308   H     0.69179   0.24582   0.47397   0.00000  Uiso   1.00
H309   H     0.42333   0.30627   0.59277   0.00000  Uiso   1.00
H310   H     0.76211   0.43984   0.58495   0.00000  Uiso   1.00
H311   H     0.78244   0.13367   0.40040   0.00000  Uiso   1.00
H312   H     0.21639   0.26116   0.65091   0.00000  Uiso   1.00
H313   H     0.93076   0.54282   0.63441   0.00000  Uiso   1.00
O314   O     0.90119   0.99993   0.39886   0.00000  Uiso   1.00
O315   O     0.15857   0.16720   0.72752   0.00000  Uiso   1.00
O316   O     0.09580   0.53673   0.70588   0.00000  Uiso   1.00
N317   N     0.88930   0.02546   0.48603   0.00000  Uiso   1.00
N318   N     0.36007   0.14464   0.72023   0.00000  Uiso   1.00
N319   N     0.02792   0.40798   0.70483   0.00000  Uiso   1.00
N320   N     0.80821   0.10933   0.43347   0.00000  Uiso   1.00
N321   N     0.27898   0.22851   0.66767   0.00000  Uiso   1.00
N322   N     0.94683   0.49185   0.65226   0.00000  Uiso   1.00
C323   C     0.73371   0.81469   0.64164   0.00000  Uiso   1.00
C324   C     0.71961   0.83824   0.58591   0.00000  Uiso   1.00
C325   C     0.66260   0.90477   0.56833   0.00000  Uiso   1.00
C326   C     0.65921   0.91584   0.51593   0.00000  Uiso   1.00
C327   C     0.62949   0.96059   0.43450   0.00000  Uiso   1.00
C328   C     0.86548   0.80540   0.65045   0.00000  Uiso   1.00
C329   C     0.93110   0.84431   0.68715   0.00000  Uiso   1.00
C330   C     0.05051   0.82774   0.68907   0.00000  Uiso   1.00
C331   C     0.24723   0.82146   0.70788   0.00000  Uiso   1.00
C332   C     0.68141   0.73283   0.64620   0.00000  Uiso   1.00
C333   C     0.59228   0.71072   0.67933   0.00000  Uiso   1.00
C334   C     0.55673   0.63304   0.67768   0.00000  Uiso   1.00
C335   C     0.46765   0.51408   0.68988   0.00000  Uiso   1.00
C336   C     0.82908   0.71606   0.57983   0.00000  Uiso   1.00
C337   C     0.77141   0.78467   0.55234   0.00000  Uiso   1.00
C338   C     0.76811   0.79565   0.49994   0.00000  Uiso   1.00
C339   C     0.71110   0.86218   0.48229   0.00000  Uiso   1.00
C340   C     0.91728   0.75184   0.61688   0.00000  Uiso   1.00
C341   C     0.03661   0.73520   0.61876   0.00000  Uiso   1.00
C342   C     0.10240   0.77407   0.65544   0.00000  Uiso   1.00
C343   C     0.73320   0.67926   0.61263   0.00000  Uiso   1.00
C344   C     0.69779   0.60160   0.61094   0.00000  Uiso   1.00
C345   C     0.60862   0.57937   0.64405   0.00000  Uiso   1.00
H346   H     0.69339   0.85639   0.66778   0.00000  Uiso   1.00
H347   H     0.62253   0.94621   0.59433   0.00000  Uiso   1.00
H348   H     0.89099   0.88576   0.71312   0.00000  Uiso   1.00
H349   H     0.55222   0.75219   0.70530   0.00000  Uiso   1.00
H350   H     0.56686   0.02218   0.49808   0.00000  Uiso   1.00
H351   H     0.13290   0.89470   0.74859   0.00000  Uiso   1.00
H352   H     0.41854   0.61303   0.73210   0.00000  Uiso   1.00
H353   H     0.86941   0.67435   0.55369   0.00000  Uiso   1.00
H354   H     0.80821   0.75418   0.47397   0.00000  Uiso   1.00
H355   H     0.07667   0.69373   0.59277   0.00000  Uiso   1.00
H356   H     0.73789   0.56016   0.58495   0.00000  Uiso   1.00
H357   H     0.71756   0.86633   0.40040   0.00000  Uiso   1.00
H358   H     0.28361   0.73884   0.65091   0.00000  Uiso   1.00
H359   H     0.56924   0.45718   0.63441   0.00000  Uiso   1.00
O360   O     0.59881   0.00007   0.39886   0.00000  Uiso   1.00
O361   O     0.34143   0.83280   0.72752   0.00000  Uiso   1.00
O362   O     0.40420   0.46327   0.70588   0.00000  Uiso   1.00
N363   N     0.61070   0.97454   0.48603   0.00000  Uiso   1.00
N364   N     0.13993   0.85536   0.72023   0.00000  Uiso   1.00
N365   N     0.47208   0.59202   0.70483   0.00000  Uiso   1.00
N366   N     0.69179   0.89067   0.43347   0.00000  Uiso   1.00
N367   N     0.22102   0.77149   0.66767   0.00000  Uiso   1.00
N368   N     0.55317   0.50815   0.65226   0.00000  Uiso   1.00
