data_job_04774
_audit_creation_date              2018-12-19
_audit_creation_method            'Materials Studio'
_symmetry_space_group_name_H-M    'P1'
_symmetry_Int_Tables_number       1
_symmetry_cell_setting            triclinic
loop_
_symmetry_equiv_pos_as_xyz
  x,y,z
_cell_length_a                    18.8359
_cell_length_b                    23.3415
_cell_length_c                    11.6065
_cell_angle_alpha                 90.0000
_cell_angle_beta                  79.5332
_cell_angle_gamma                 90.0000
loop_
_atom_site_label
_atom_site_type_symbol
_atom_site_fract_x
_atom_site_fract_y
_atom_site_fract_z
_atom_site_U_iso_or_equiv
_atom_site_adp_type
_atom_site_occupancy
C1     C     0.82834   0.41276   0.24003   0.00000  Uiso   1.00
C2     C     0.84304   0.40161   0.10838   0.00000  Uiso   1.00
C3     C     0.87631   0.43934   0.02294   0.00000  Uiso   1.00
C4     C     0.88475   0.42114   0.90737   0.00000  Uiso   1.00
C5     C     0.91119   0.41206   0.70735   0.00000  Uiso   1.00
C6     C     0.74730   0.40467   0.28040   0.00000  Uiso   1.00
C7     C     0.70007   0.44497   0.33961   0.00000  Uiso   1.00
C8     C     0.62792   0.42933   0.36886   0.00000  Uiso   1.00
C9     C     0.50573   0.42499   0.43598   0.00000  Uiso   1.00
C10    C     0.86441   0.36386   0.29478   0.00000  Uiso   1.00
C11    C     0.91563   0.36984   0.36611   0.00000  Uiso   1.00
C12    C     0.94207   0.31983   0.40750   0.00000  Uiso   1.00
C13    C     0.00171   0.25212   0.49695   0.00000  Uiso   1.00
C14    C     0.78418   0.31333   0.18673   0.00000  Uiso   1.00
C15    C     0.81905   0.34761   0.07944   0.00000  Uiso   1.00
C16    C     0.82745   0.32934   0.96397   0.00000  Uiso   1.00
C17    C     0.86073   0.36703   0.87836   0.00000  Uiso   1.00
C18    C     0.72331   0.35067   0.25146   0.00000  Uiso   1.00
C19    C     0.65122   0.33497   0.28064   0.00000  Uiso   1.00
C20    C     0.60389   0.37523   0.33986   0.00000  Uiso   1.00
C21    C     0.84042   0.30985   0.26583   0.00000  Uiso   1.00
C22    C     0.86678   0.25983   0.30713   0.00000  Uiso   1.00
C23    C     0.91804   0.26573   0.37850   0.00000  Uiso   1.00
H24    H     0.84700   0.45481   0.26258   0.00000  Uiso   1.00
H25    H     0.89485   0.48114   0.04538   0.00000  Uiso   1.00
H26    H     0.71865   0.48676   0.36201   0.00000  Uiso   1.00
H27    H     0.93418   0.41164   0.38849   0.00000  Uiso   1.00
H28    H     0.93730   0.48652   0.79180   0.00000  Uiso   1.00
H29    H     0.56577   0.49837   0.45947   0.00000  Uiso   1.00
H30    H     0.02026   0.33996   0.51533   0.00000  Uiso   1.00
H31    H     0.76550   0.27128   0.16420   0.00000  Uiso   1.00
H32    H     0.80888   0.28754   0.94159   0.00000  Uiso   1.00
H33    H     0.63268   0.29317   0.25822   0.00000  Uiso   1.00
H34    H     0.84821   0.21804   0.28471   0.00000  Uiso   1.00
H35    H     0.86752   0.32939   0.70756   0.00000  Uiso   1.00
H36    H     0.49599   0.34124   0.37524   0.00000  Uiso   1.00
H37    H     0.95048   0.18283   0.43109   0.00000  Uiso   1.00
O38    O     0.93240   0.42197   0.60502   0.00000  Uiso   1.00
O39    O     0.44496   0.43751   0.48100   0.00000  Uiso   1.00
O40    O     0.04124   0.22968   0.55427   0.00000  Uiso   1.00
N41    N     0.91494   0.44730   0.80253   0.00000  Uiso   1.00
N42    N     0.56757   0.45839   0.42674   0.00000  Uiso   1.00
N43    N     0.99247   0.31029   0.47899   0.00000  Uiso   1.00
N44    N     0.87739   0.36275   0.75720   0.00000  Uiso   1.00
N45    N     0.53003   0.37384   0.38141   0.00000  Uiso   1.00
N46    N     0.95492   0.22574   0.43366   0.00000  Uiso   1.00
C47    C     0.32834   0.91276   0.24003   0.00000  Uiso   1.00
C48    C     0.34304   0.90161   0.10838   0.00000  Uiso   1.00
C49    C     0.37631   0.93934   0.02294   0.00000  Uiso   1.00
C50    C     0.38475   0.92114   0.90737   0.00000  Uiso   1.00
C51    C     0.41119   0.91206   0.70735   0.00000  Uiso   1.00
C52    C     0.24730   0.90467   0.28040   0.00000  Uiso   1.00
C53    C     0.20007   0.94497   0.33961   0.00000  Uiso   1.00
C54    C     0.12792   0.92933   0.36886   0.00000  Uiso   1.00
C55    C     0.00573   0.92499   0.43598   0.00000  Uiso   1.00
C56    C     0.36441   0.86386   0.29478   0.00000  Uiso   1.00
C57    C     0.41563   0.86984   0.36611   0.00000  Uiso   1.00
C58    C     0.44207   0.81983   0.40750   0.00000  Uiso   1.00
C59    C     0.50171   0.75212   0.49695   0.00000  Uiso   1.00
C60    C     0.28418   0.81333   0.18673   0.00000  Uiso   1.00
C61    C     0.31905   0.84761   0.07944   0.00000  Uiso   1.00
C62    C     0.32745   0.82934   0.96397   0.00000  Uiso   1.00
C63    C     0.36073   0.86703   0.87836   0.00000  Uiso   1.00
C64    C     0.22331   0.85067   0.25146   0.00000  Uiso   1.00
C65    C     0.15122   0.83497   0.28064   0.00000  Uiso   1.00
C66    C     0.10389   0.87523   0.33986   0.00000  Uiso   1.00
C67    C     0.34042   0.80985   0.26583   0.00000  Uiso   1.00
C68    C     0.36678   0.75983   0.30713   0.00000  Uiso   1.00
C69    C     0.41804   0.76573   0.37850   0.00000  Uiso   1.00
H70    H     0.34700   0.95481   0.26258   0.00000  Uiso   1.00
H71    H     0.39485   0.98114   0.04538   0.00000  Uiso   1.00
H72    H     0.21865   0.98676   0.36201   0.00000  Uiso   1.00
H73    H     0.43418   0.91164   0.38849   0.00000  Uiso   1.00
H74    H     0.43730   0.98652   0.79180   0.00000  Uiso   1.00
H75    H     0.06577   0.99837   0.45947   0.00000  Uiso   1.00
H76    H     0.52026   0.83996   0.51533   0.00000  Uiso   1.00
H77    H     0.26550   0.77128   0.16420   0.00000  Uiso   1.00
H78    H     0.30888   0.78754   0.94159   0.00000  Uiso   1.00
H79    H     0.13268   0.79317   0.25822   0.00000  Uiso   1.00
H80    H     0.34821   0.71804   0.28471   0.00000  Uiso   1.00
H81    H     0.36752   0.82939   0.70756   0.00000  Uiso   1.00
H82    H     0.99599   0.84124   0.37524   0.00000  Uiso   1.00
H83    H     0.45048   0.68283   0.43109   0.00000  Uiso   1.00
O84    O     0.43240   0.92197   0.60502   0.00000  Uiso   1.00
O85    O     0.94496   0.93751   0.48100   0.00000  Uiso   1.00
O86    O     0.54124   0.72968   0.55427   0.00000  Uiso   1.00
N87    N     0.41494   0.94730   0.80253   0.00000  Uiso   1.00
N88    N     0.06757   0.95839   0.42674   0.00000  Uiso   1.00
N89    N     0.49247   0.81029   0.47899   0.00000  Uiso   1.00
N90    N     0.37739   0.86275   0.75720   0.00000  Uiso   1.00
N91    N     0.03003   0.87384   0.38141   0.00000  Uiso   1.00
N92    N     0.45492   0.72574   0.43366   0.00000  Uiso   1.00
C93    C     0.17166   0.41276   0.25997   0.00000  Uiso   1.00
C94    C     0.15696   0.40161   0.39162   0.00000  Uiso   1.00
C95    C     0.12369   0.43934   0.47706   0.00000  Uiso   1.00
C96    C     0.11525   0.42114   0.59263   0.00000  Uiso   1.00
C97    C     0.08881   0.41206   0.79265   0.00000  Uiso   1.00
C98    C     0.25270   0.40467   0.21960   0.00000  Uiso   1.00
C99    C     0.29993   0.44497   0.16039   0.00000  Uiso   1.00
C100   C     0.37208   0.42933   0.13114   0.00000  Uiso   1.00
C101   C     0.49427   0.42499   0.06402   0.00000  Uiso   1.00
C102   C     0.13559   0.36386   0.20522   0.00000  Uiso   1.00
C103   C     0.08437   0.36984   0.13389   0.00000  Uiso   1.00
C104   C     0.05793   0.31983   0.09250   0.00000  Uiso   1.00
C105   C     0.99829   0.25212   0.00305   0.00000  Uiso   1.00
C106   C     0.21582   0.31333   0.31327   0.00000  Uiso   1.00
C107   C     0.18095   0.34761   0.42056   0.00000  Uiso   1.00
C108   C     0.17255   0.32934   0.53603   0.00000  Uiso   1.00
C109   C     0.13927   0.36703   0.62164   0.00000  Uiso   1.00
C110   C     0.27669   0.35067   0.24854   0.00000  Uiso   1.00
C111   C     0.34878   0.33497   0.21936   0.00000  Uiso   1.00
C112   C     0.39611   0.37523   0.16014   0.00000  Uiso   1.00
C113   C     0.15958   0.30985   0.23417   0.00000  Uiso   1.00
C114   C     0.13322   0.25983   0.19287   0.00000  Uiso   1.00
C115   C     0.08196   0.26573   0.12151   0.00000  Uiso   1.00
H116   H     0.15300   0.45481   0.23742   0.00000  Uiso   1.00
H117   H     0.10515   0.48114   0.45462   0.00000  Uiso   1.00
H118   H     0.28135   0.48676   0.13799   0.00000  Uiso   1.00
H119   H     0.06582   0.41164   0.11151   0.00000  Uiso   1.00
H120   H     0.06270   0.48652   0.70820   0.00000  Uiso   1.00
H121   H     0.43423   0.49837   0.04053   0.00000  Uiso   1.00
H122   H     0.97974   0.33996   0.98467   0.00000  Uiso   1.00
H123   H     0.23450   0.27128   0.33580   0.00000  Uiso   1.00
H124   H     0.19112   0.28754   0.55841   0.00000  Uiso   1.00
H125   H     0.36732   0.29317   0.24178   0.00000  Uiso   1.00
H126   H     0.15179   0.21804   0.21529   0.00000  Uiso   1.00
H127   H     0.13248   0.32939   0.79244   0.00000  Uiso   1.00
H128   H     0.50401   0.34124   0.12476   0.00000  Uiso   1.00
H129   H     0.04952   0.18283   0.06891   0.00000  Uiso   1.00
O130   O     0.06760   0.42197   0.89498   0.00000  Uiso   1.00
O131   O     0.55504   0.43751   0.01900   0.00000  Uiso   1.00
O132   O     0.95876   0.22968   0.94573   0.00000  Uiso   1.00
N133   N     0.08506   0.44730   0.69747   0.00000  Uiso   1.00
N134   N     0.43243   0.45839   0.07326   0.00000  Uiso   1.00
N135   N     0.00753   0.31029   0.02101   0.00000  Uiso   1.00
N136   N     0.12261   0.36275   0.74280   0.00000  Uiso   1.00
N137   N     0.46997   0.37384   0.11859   0.00000  Uiso   1.00
N138   N     0.04508   0.22574   0.06634   0.00000  Uiso   1.00
C139   C     0.67166   0.91276   0.25997   0.00000  Uiso   1.00
C140   C     0.65696   0.90161   0.39162   0.00000  Uiso   1.00
C141   C     0.62369   0.93934   0.47706   0.00000  Uiso   1.00
C142   C     0.61525   0.92114   0.59263   0.00000  Uiso   1.00
C143   C     0.58881   0.91206   0.79265   0.00000  Uiso   1.00
C144   C     0.75270   0.90467   0.21960   0.00000  Uiso   1.00
C145   C     0.79993   0.94497   0.16039   0.00000  Uiso   1.00
C146   C     0.87208   0.92933   0.13114   0.00000  Uiso   1.00
C147   C     0.99427   0.92499   0.06402   0.00000  Uiso   1.00
C148   C     0.63559   0.86386   0.20522   0.00000  Uiso   1.00
C149   C     0.58437   0.86984   0.13389   0.00000  Uiso   1.00
C150   C     0.55793   0.81983   0.09250   0.00000  Uiso   1.00
C151   C     0.49829   0.75212   0.00305   0.00000  Uiso   1.00
C152   C     0.71582   0.81333   0.31327   0.00000  Uiso   1.00
C153   C     0.68095   0.84761   0.42056   0.00000  Uiso   1.00
C154   C     0.67255   0.82934   0.53603   0.00000  Uiso   1.00
C155   C     0.63927   0.86703   0.62164   0.00000  Uiso   1.00
C156   C     0.77669   0.85067   0.24854   0.00000  Uiso   1.00
C157   C     0.84878   0.83497   0.21936   0.00000  Uiso   1.00
C158   C     0.89611   0.87523   0.16014   0.00000  Uiso   1.00
C159   C     0.65958   0.80985   0.23417   0.00000  Uiso   1.00
C160   C     0.63322   0.75983   0.19287   0.00000  Uiso   1.00
C161   C     0.58196   0.76573   0.12151   0.00000  Uiso   1.00
H162   H     0.65300   0.95481   0.23742   0.00000  Uiso   1.00
H163   H     0.60515   0.98114   0.45462   0.00000  Uiso   1.00
H164   H     0.78135   0.98676   0.13799   0.00000  Uiso   1.00
H165   H     0.56582   0.91164   0.11151   0.00000  Uiso   1.00
H166   H     0.56270   0.98652   0.70820   0.00000  Uiso   1.00
H167   H     0.93423   0.99837   0.04053   0.00000  Uiso   1.00
H168   H     0.47974   0.83996   0.98467   0.00000  Uiso   1.00
H169   H     0.73450   0.77128   0.33580   0.00000  Uiso   1.00
H170   H     0.69112   0.78754   0.55841   0.00000  Uiso   1.00
H171   H     0.86732   0.79317   0.24178   0.00000  Uiso   1.00
H172   H     0.65179   0.71804   0.21529   0.00000  Uiso   1.00
H173   H     0.63248   0.82939   0.79244   0.00000  Uiso   1.00
H174   H     0.00401   0.84124   0.12476   0.00000  Uiso   1.00
H175   H     0.54952   0.68283   0.06891   0.00000  Uiso   1.00
O176   O     0.56760   0.92197   0.89498   0.00000  Uiso   1.00
O177   O     0.05504   0.93751   0.01900   0.00000  Uiso   1.00
O178   O     0.45876   0.72968   0.94573   0.00000  Uiso   1.00
N179   N     0.58506   0.94730   0.69747   0.00000  Uiso   1.00
N180   N     0.93243   0.95839   0.07326   0.00000  Uiso   1.00
N181   N     0.50753   0.81029   0.02101   0.00000  Uiso   1.00
N182   N     0.62261   0.86275   0.74280   0.00000  Uiso   1.00
N183   N     0.96997   0.87384   0.11859   0.00000  Uiso   1.00
N184   N     0.54508   0.72574   0.06634   0.00000  Uiso   1.00
C185   C     0.17166   0.58724   0.75997   0.00000  Uiso   1.00
C186   C     0.15696   0.59839   0.89162   0.00000  Uiso   1.00
C187   C     0.12369   0.56066   0.97706   0.00000  Uiso   1.00
C188   C     0.11525   0.57886   0.09263   0.00000  Uiso   1.00
C189   C     0.08881   0.58794   0.29265   0.00000  Uiso   1.00
C190   C     0.25270   0.59533   0.71960   0.00000  Uiso   1.00
C191   C     0.29993   0.55503   0.66039   0.00000  Uiso   1.00
C192   C     0.37208   0.57067   0.63114   0.00000  Uiso   1.00
C193   C     0.49427   0.57501   0.56402   0.00000  Uiso   1.00
C194   C     0.13559   0.63614   0.70522   0.00000  Uiso   1.00
C195   C     0.08437   0.63016   0.63389   0.00000  Uiso   1.00
C196   C     0.05793   0.68017   0.59250   0.00000  Uiso   1.00
C197   C     0.99829   0.74788   0.50305   0.00000  Uiso   1.00
C198   C     0.21582   0.68667   0.81327   0.00000  Uiso   1.00
C199   C     0.18095   0.65239   0.92056   0.00000  Uiso   1.00
C200   C     0.17255   0.67066   0.03603   0.00000  Uiso   1.00
C201   C     0.13927   0.63297   0.12164   0.00000  Uiso   1.00
C202   C     0.27669   0.64933   0.74854   0.00000  Uiso   1.00
C203   C     0.34878   0.66503   0.71936   0.00000  Uiso   1.00
C204   C     0.39611   0.62477   0.66014   0.00000  Uiso   1.00
C205   C     0.15958   0.69015   0.73417   0.00000  Uiso   1.00
C206   C     0.13322   0.74017   0.69287   0.00000  Uiso   1.00
C207   C     0.08196   0.73427   0.62151   0.00000  Uiso   1.00
H208   H     0.15300   0.54519   0.73742   0.00000  Uiso   1.00
H209   H     0.10515   0.51886   0.95462   0.00000  Uiso   1.00
H210   H     0.28135   0.51324   0.63799   0.00000  Uiso   1.00
H211   H     0.06582   0.58836   0.61151   0.00000  Uiso   1.00
H212   H     0.06270   0.51348   0.20820   0.00000  Uiso   1.00
H213   H     0.43423   0.50163   0.54053   0.00000  Uiso   1.00
H214   H     0.97974   0.66004   0.48467   0.00000  Uiso   1.00
H215   H     0.23450   0.72872   0.83580   0.00000  Uiso   1.00
H216   H     0.19112   0.71246   0.05841   0.00000  Uiso   1.00
H217   H     0.36732   0.70683   0.74178   0.00000  Uiso   1.00
H218   H     0.15179   0.78196   0.71529   0.00000  Uiso   1.00
H219   H     0.13248   0.67061   0.29244   0.00000  Uiso   1.00
H220   H     0.50401   0.65876   0.62476   0.00000  Uiso   1.00
H221   H     0.04952   0.81717   0.56891   0.00000  Uiso   1.00
O222   O     0.06760   0.57803   0.39498   0.00000  Uiso   1.00
O223   O     0.55504   0.56249   0.51900   0.00000  Uiso   1.00
O224   O     0.95876   0.77032   0.44573   0.00000  Uiso   1.00
N225   N     0.08506   0.55270   0.19747   0.00000  Uiso   1.00
N226   N     0.43243   0.54161   0.57326   0.00000  Uiso   1.00
N227   N     0.00753   0.68971   0.52101   0.00000  Uiso   1.00
N228   N     0.12261   0.63725   0.24280   0.00000  Uiso   1.00
N229   N     0.46997   0.62616   0.61859   0.00000  Uiso   1.00
N230   N     0.04508   0.77426   0.56634   0.00000  Uiso   1.00
C231   C     0.67166   0.08724   0.75997   0.00000  Uiso   1.00
C232   C     0.65696   0.09839   0.89162   0.00000  Uiso   1.00
C233   C     0.62369   0.06066   0.97706   0.00000  Uiso   1.00
C234   C     0.61525   0.07886   0.09263   0.00000  Uiso   1.00
C235   C     0.58881   0.08794   0.29265   0.00000  Uiso   1.00
C236   C     0.75270   0.09533   0.71960   0.00000  Uiso   1.00
C237   C     0.79993   0.05503   0.66039   0.00000  Uiso   1.00
C238   C     0.87208   0.07067   0.63114   0.00000  Uiso   1.00
C239   C     0.99427   0.07501   0.56402   0.00000  Uiso   1.00
C240   C     0.63559   0.13614   0.70522   0.00000  Uiso   1.00
C241   C     0.58437   0.13016   0.63389   0.00000  Uiso   1.00
C242   C     0.55793   0.18017   0.59250   0.00000  Uiso   1.00
C243   C     0.49829   0.24788   0.50305   0.00000  Uiso   1.00
C244   C     0.71582   0.18667   0.81327   0.00000  Uiso   1.00
C245   C     0.68095   0.15239   0.92056   0.00000  Uiso   1.00
C246   C     0.67255   0.17066   0.03603   0.00000  Uiso   1.00
C247   C     0.63927   0.13297   0.12164   0.00000  Uiso   1.00
C248   C     0.77669   0.14933   0.74854   0.00000  Uiso   1.00
C249   C     0.84878   0.16503   0.71936   0.00000  Uiso   1.00
C250   C     0.89611   0.12477   0.66014   0.00000  Uiso   1.00
C251   C     0.65958   0.19015   0.73417   0.00000  Uiso   1.00
C252   C     0.63322   0.24017   0.69287   0.00000  Uiso   1.00
C253   C     0.58196   0.23427   0.62151   0.00000  Uiso   1.00
H254   H     0.65300   0.04519   0.73742   0.00000  Uiso   1.00
H255   H     0.60515   0.01886   0.95462   0.00000  Uiso   1.00
H256   H     0.78135   0.01324   0.63799   0.00000  Uiso   1.00
H257   H     0.56582   0.08836   0.61151   0.00000  Uiso   1.00
H258   H     0.56270   0.01348   0.20820   0.00000  Uiso   1.00
H259   H     0.93423   0.00163   0.54053   0.00000  Uiso   1.00
H260   H     0.47974   0.16004   0.48467   0.00000  Uiso   1.00
H261   H     0.73450   0.22872   0.83580   0.00000  Uiso   1.00
H262   H     0.69112   0.21246   0.05841   0.00000  Uiso   1.00
H263   H     0.86732   0.20683   0.74178   0.00000  Uiso   1.00
H264   H     0.65179   0.28196   0.71529   0.00000  Uiso   1.00
H265   H     0.63248   0.17061   0.29244   0.00000  Uiso   1.00
H266   H     0.00401   0.15876   0.62476   0.00000  Uiso   1.00
H267   H     0.54952   0.31717   0.56891   0.00000  Uiso   1.00
O268   O     0.56760   0.07803   0.39498   0.00000  Uiso   1.00
O269   O     0.05504   0.06249   0.51900   0.00000  Uiso   1.00
O270   O     0.45876   0.27032   0.44573   0.00000  Uiso   1.00
N271   N     0.58506   0.05270   0.19747   0.00000  Uiso   1.00
N272   N     0.93243   0.04161   0.57326   0.00000  Uiso   1.00
N273   N     0.50753   0.18971   0.52101   0.00000  Uiso   1.00
N274   N     0.62261   0.13725   0.24280   0.00000  Uiso   1.00
N275   N     0.96997   0.12616   0.61859   0.00000  Uiso   1.00
N276   N     0.54508   0.27426   0.56634   0.00000  Uiso   1.00
C277   C     0.82834   0.58724   0.74003   0.00000  Uiso   1.00
C278   C     0.84304   0.59839   0.60838   0.00000  Uiso   1.00
C279   C     0.87631   0.56066   0.52294   0.00000  Uiso   1.00
C280   C     0.88475   0.57886   0.40737   0.00000  Uiso   1.00
C281   C     0.91119   0.58794   0.20735   0.00000  Uiso   1.00
C282   C     0.74730   0.59533   0.78040   0.00000  Uiso   1.00
C283   C     0.70007   0.55503   0.83961   0.00000  Uiso   1.00
C284   C     0.62792   0.57067   0.86886   0.00000  Uiso   1.00
C285   C     0.50573   0.57501   0.93598   0.00000  Uiso   1.00
C286   C     0.86441   0.63614   0.79478   0.00000  Uiso   1.00
C287   C     0.91563   0.63016   0.86611   0.00000  Uiso   1.00
C288   C     0.94207   0.68017   0.90750   0.00000  Uiso   1.00
C289   C     0.00171   0.74788   0.99695   0.00000  Uiso   1.00
C290   C     0.78418   0.68667   0.68673   0.00000  Uiso   1.00
C291   C     0.81905   0.65239   0.57944   0.00000  Uiso   1.00
C292   C     0.82745   0.67066   0.46397   0.00000  Uiso   1.00
C293   C     0.86073   0.63297   0.37836   0.00000  Uiso   1.00
C294   C     0.72331   0.64933   0.75146   0.00000  Uiso   1.00
C295   C     0.65122   0.66503   0.78064   0.00000  Uiso   1.00
C296   C     0.60389   0.62477   0.83986   0.00000  Uiso   1.00
C297   C     0.84042   0.69015   0.76583   0.00000  Uiso   1.00
C298   C     0.86678   0.74017   0.80713   0.00000  Uiso   1.00
C299   C     0.91804   0.73427   0.87850   0.00000  Uiso   1.00
H300   H     0.84700   0.54519   0.76258   0.00000  Uiso   1.00
H301   H     0.89485   0.51886   0.54538   0.00000  Uiso   1.00
H302   H     0.71865   0.51324   0.86201   0.00000  Uiso   1.00
H303   H     0.93418   0.58836   0.88849   0.00000  Uiso   1.00
H304   H     0.93730   0.51348   0.29180   0.00000  Uiso   1.00
H305   H     0.56577   0.50163   0.95947   0.00000  Uiso   1.00
H306   H     0.02026   0.66004   0.01533   0.00000  Uiso   1.00
H307   H     0.76550   0.72872   0.66420   0.00000  Uiso   1.00
H308   H     0.80888   0.71246   0.44159   0.00000  Uiso   1.00
H309   H     0.63268   0.70683   0.75822   0.00000  Uiso   1.00
H310   H     0.84821   0.78196   0.78471   0.00000  Uiso   1.00
H311   H     0.86752   0.67061   0.20756   0.00000  Uiso   1.00
H312   H     0.49599   0.65876   0.87524   0.00000  Uiso   1.00
H313   H     0.95048   0.81717   0.93109   0.00000  Uiso   1.00
O314   O     0.93240   0.57803   0.10502   0.00000  Uiso   1.00
O315   O     0.44496   0.56249   0.98100   0.00000  Uiso   1.00
O316   O     0.04124   0.77032   0.05427   0.00000  Uiso   1.00
N317   N     0.91494   0.55270   0.30253   0.00000  Uiso   1.00
N318   N     0.56757   0.54161   0.92674   0.00000  Uiso   1.00
N319   N     0.99247   0.68971   0.97899   0.00000  Uiso   1.00
N320   N     0.87739   0.63725   0.25720   0.00000  Uiso   1.00
N321   N     0.53003   0.62616   0.88141   0.00000  Uiso   1.00
N322   N     0.95492   0.77426   0.93366   0.00000  Uiso   1.00
C323   C     0.32834   0.08724   0.74003   0.00000  Uiso   1.00
C324   C     0.34304   0.09839   0.60838   0.00000  Uiso   1.00
C325   C     0.37631   0.06066   0.52294   0.00000  Uiso   1.00
C326   C     0.38475   0.07886   0.40737   0.00000  Uiso   1.00
C327   C     0.41119   0.08794   0.20735   0.00000  Uiso   1.00
C328   C     0.24730   0.09533   0.78040   0.00000  Uiso   1.00
C329   C     0.20007   0.05503   0.83961   0.00000  Uiso   1.00
C330   C     0.12792   0.07067   0.86886   0.00000  Uiso   1.00
C331   C     0.00573   0.07501   0.93598   0.00000  Uiso   1.00
C332   C     0.36441   0.13614   0.79478   0.00000  Uiso   1.00
C333   C     0.41563   0.13016   0.86611   0.00000  Uiso   1.00
C334   C     0.44207   0.18017   0.90750   0.00000  Uiso   1.00
C335   C     0.50171   0.24788   0.99695   0.00000  Uiso   1.00
C336   C     0.28418   0.18667   0.68673   0.00000  Uiso   1.00
C337   C     0.31905   0.15239   0.57944   0.00000  Uiso   1.00
C338   C     0.32745   0.17066   0.46397   0.00000  Uiso   1.00
C339   C     0.36073   0.13297   0.37836   0.00000  Uiso   1.00
C340   C     0.22331   0.14933   0.75146   0.00000  Uiso   1.00
C341   C     0.15122   0.16503   0.78064   0.00000  Uiso   1.00
C342   C     0.10389   0.12477   0.83986   0.00000  Uiso   1.00
C343   C     0.34042   0.19015   0.76583   0.00000  Uiso   1.00
C344   C     0.36678   0.24017   0.80713   0.00000  Uiso   1.00
C345   C     0.41804   0.23427   0.87850   0.00000  Uiso   1.00
H346   H     0.34700   0.04519   0.76258   0.00000  Uiso   1.00
H347   H     0.39485   0.01886   0.54538   0.00000  Uiso   1.00
H348   H     0.21865   0.01324   0.86201   0.00000  Uiso   1.00
H349   H     0.43418   0.08836   0.88849   0.00000  Uiso   1.00
H350   H     0.43730   0.01348   0.29180   0.00000  Uiso   1.00
H351   H     0.06577   0.00163   0.95947   0.00000  Uiso   1.00
H352   H     0.52026   0.16004   0.01533   0.00000  Uiso   1.00
H353   H     0.26550   0.22872   0.66420   0.00000  Uiso   1.00
H354   H     0.30888   0.21246   0.44159   0.00000  Uiso   1.00
H355   H     0.13268   0.20683   0.75822   0.00000  Uiso   1.00
H356   H     0.34821   0.28196   0.78471   0.00000  Uiso   1.00
H357   H     0.36752   0.17061   0.20756   0.00000  Uiso   1.00
H358   H     0.99599   0.15876   0.87524   0.00000  Uiso   1.00
H359   H     0.45048   0.31717   0.93109   0.00000  Uiso   1.00
O360   O     0.43240   0.07803   0.10502   0.00000  Uiso   1.00
O361   O     0.94496   0.06249   0.98100   0.00000  Uiso   1.00
O362   O     0.54124   0.27032   0.05427   0.00000  Uiso   1.00
N363   N     0.41494   0.05270   0.30253   0.00000  Uiso   1.00
N364   N     0.06757   0.04161   0.92674   0.00000  Uiso   1.00
N365   N     0.49247   0.18971   0.97899   0.00000  Uiso   1.00
N366   N     0.37739   0.13725   0.25720   0.00000  Uiso   1.00
N367   N     0.03003   0.12616   0.88141   0.00000  Uiso   1.00
N368   N     0.45492   0.27426   0.93366   0.00000  Uiso   1.00
