data_job_02726
_audit_creation_date              2018-12-19
_audit_creation_method            'Materials Studio'
_symmetry_space_group_name_H-M    'P1'
_symmetry_Int_Tables_number       1
_symmetry_cell_setting            triclinic
loop_
_symmetry_equiv_pos_as_xyz
  x,y,z
_cell_length_a                    24.7073
_cell_length_b                    10.8057
_cell_length_c                    21.0946
_cell_angle_alpha                 90.0000
_cell_angle_beta                  90.0000
_cell_angle_gamma                 90.0000
loop_
_atom_site_label
_atom_site_type_symbol
_atom_site_fract_x
_atom_site_fract_y
_atom_site_fract_z
_atom_site_U_iso_or_equiv
_atom_site_adp_type
_atom_site_occupancy
C1     C     0.90960   0.48135   0.20664   0.00000  Uiso   1.00
C2     C     0.86537   0.53691   0.24826   0.00000  Uiso   1.00
C3     C     0.86454   0.53618   0.31404   0.00000  Uiso   1.00
C4     C     0.82048   0.59182   0.34331   0.00000  Uiso   1.00
C5     C     0.75814   0.66976   0.41331   0.00000  Uiso   1.00
C6     C     0.88130   0.38954   0.16287   0.00000  Uiso   1.00
C7     C     0.89388   0.26492   0.15684   0.00000  Uiso   1.00
C8     C     0.86324   0.19652   0.11422   0.00000  Uiso   1.00
C9     C     0.82566   0.04568   0.05161   0.00000  Uiso   1.00
C10    C     0.92951   0.58620   0.16424   0.00000  Uiso   1.00
C11    C     0.98262   0.62691   0.15937   0.00000  Uiso   1.00
C12    C     0.99257   0.72407   0.11789   0.00000  Uiso   1.00
C13    C     0.02983   0.87858   0.05742   0.00000  Uiso   1.00
C14    C     0.83283   0.58147   0.14164   0.00000  Uiso   1.00
C15    C     0.82367   0.59128   0.21295   0.00000  Uiso   1.00
C16    C     0.77960   0.64695   0.24213   0.00000  Uiso   1.00
C17    C     0.77871   0.64631   0.30794   0.00000  Uiso   1.00
C18    C     0.83960   0.44391   0.12756   0.00000  Uiso   1.00
C19    C     0.80894   0.37568   0.08494   0.00000  Uiso   1.00
C20    C     0.82147   0.25099   0.07886   0.00000  Uiso   1.00
C21    C     0.88781   0.64058   0.12894   0.00000  Uiso   1.00
C22    C     0.89768   0.73768   0.08746   0.00000  Uiso   1.00
C23    C     0.95079   0.77854   0.08253   0.00000  Uiso   1.00
H24    H     0.94206   0.43901   0.23412   0.00000  Uiso   1.00
H25    H     0.89682   0.49408   0.34134   0.00000  Uiso   1.00
H26    H     0.92615   0.22287   0.18416   0.00000  Uiso   1.00
H27    H     0.01488   0.58481   0.18669   0.00000  Uiso   1.00
H28    H     0.82826   0.57908   0.44465   0.00000  Uiso   1.00
H29    H     0.89013   0.00722   0.11322   0.00000  Uiso   1.00
H30    H     0.07722   0.77044   0.11855   0.00000  Uiso   1.00
H31    H     0.80036   0.62380   0.11416   0.00000  Uiso   1.00
H32    H     0.74734   0.68902   0.21480   0.00000  Uiso   1.00
H33    H     0.77668   0.41780   0.05763   0.00000  Uiso   1.00
H34    H     0.86540   0.77974   0.06015   0.00000  Uiso   1.00
H35    H     0.70693   0.73729   0.34195   0.00000  Uiso   1.00
H36    H     0.76881   0.16542   0.01052   0.00000  Uiso   1.00
H37    H     0.95590   0.92865   0.01584   0.00000  Uiso   1.00
O38    O     0.73527   0.69771   0.46167   0.00000  Uiso   1.00
O39    O     0.81645   0.94746   0.02684   0.00000  Uiso   1.00
O40    O     0.06190   0.94879   0.03383   0.00000  Uiso   1.00
N41    N     0.80699   0.60738   0.40667   0.00000  Uiso   1.00
N42    N     0.86483   0.07272   0.09681   0.00000  Uiso   1.00
N43    N     0.03974   0.78625   0.10177   0.00000  Uiso   1.00
N44    N     0.74170   0.69252   0.35140   0.00000  Uiso   1.00
N45    N     0.79954   0.15786   0.04154   0.00000  Uiso   1.00
N46    N     0.97446   0.87138   0.04651   0.00000  Uiso   1.00
C47    C     0.59040   0.51865   0.20664   0.00000  Uiso   1.00
C48    C     0.63463   0.46309   0.24826   0.00000  Uiso   1.00
C49    C     0.63546   0.46382   0.31404   0.00000  Uiso   1.00
C50    C     0.67952   0.40818   0.34331   0.00000  Uiso   1.00
C51    C     0.74186   0.33024   0.41331   0.00000  Uiso   1.00
C52    C     0.61870   0.61046   0.16287   0.00000  Uiso   1.00
C53    C     0.60612   0.73508   0.15684   0.00000  Uiso   1.00
C54    C     0.63676   0.80348   0.11422   0.00000  Uiso   1.00
C55    C     0.67434   0.95432   0.05161   0.00000  Uiso   1.00
C56    C     0.57049   0.41380   0.16424   0.00000  Uiso   1.00
C57    C     0.51738   0.37309   0.15937   0.00000  Uiso   1.00
C58    C     0.50743   0.27593   0.11789   0.00000  Uiso   1.00
C59    C     0.47017   0.12142   0.05742   0.00000  Uiso   1.00
C60    C     0.66717   0.41853   0.14164   0.00000  Uiso   1.00
C61    C     0.67633   0.40872   0.21295   0.00000  Uiso   1.00
C62    C     0.72040   0.35305   0.24213   0.00000  Uiso   1.00
C63    C     0.72129   0.35369   0.30794   0.00000  Uiso   1.00
C64    C     0.66040   0.55609   0.12756   0.00000  Uiso   1.00
C65    C     0.69106   0.62432   0.08494   0.00000  Uiso   1.00
C66    C     0.67853   0.74901   0.07886   0.00000  Uiso   1.00
C67    C     0.61219   0.35942   0.12894   0.00000  Uiso   1.00
C68    C     0.60232   0.26232   0.08746   0.00000  Uiso   1.00
C69    C     0.54921   0.22146   0.08253   0.00000  Uiso   1.00
H70    H     0.55794   0.56099   0.23412   0.00000  Uiso   1.00
H71    H     0.60318   0.50592   0.34134   0.00000  Uiso   1.00
H72    H     0.57385   0.77713   0.18416   0.00000  Uiso   1.00
H73    H     0.48512   0.41519   0.18669   0.00000  Uiso   1.00
H74    H     0.67174   0.42092   0.44465   0.00000  Uiso   1.00
H75    H     0.60987   0.99278   0.11322   0.00000  Uiso   1.00
H76    H     0.42278   0.22956   0.11855   0.00000  Uiso   1.00
H77    H     0.69964   0.37620   0.11416   0.00000  Uiso   1.00
H78    H     0.75266   0.31098   0.21480   0.00000  Uiso   1.00
H79    H     0.72332   0.58220   0.05763   0.00000  Uiso   1.00
H80    H     0.63460   0.22026   0.06015   0.00000  Uiso   1.00
H81    H     0.79307   0.26271   0.34195   0.00000  Uiso   1.00
H82    H     0.73119   0.83458   0.01052   0.00000  Uiso   1.00
H83    H     0.54410   0.07135   0.01584   0.00000  Uiso   1.00
O84    O     0.76473   0.30229   0.46167   0.00000  Uiso   1.00
O85    O     0.68355   0.05254   0.02684   0.00000  Uiso   1.00
O86    O     0.43810   0.05121   0.03383   0.00000  Uiso   1.00
N87    N     0.69301   0.39262   0.40667   0.00000  Uiso   1.00
N88    N     0.63517   0.92728   0.09681   0.00000  Uiso   1.00
N89    N     0.46026   0.21375   0.10177   0.00000  Uiso   1.00
N90    N     0.75830   0.30748   0.35140   0.00000  Uiso   1.00
N91    N     0.70046   0.84214   0.04154   0.00000  Uiso   1.00
N92    N     0.52554   0.12862   0.04651   0.00000  Uiso   1.00
C93    C     0.09040   0.48135   0.29336   0.00000  Uiso   1.00
C94    C     0.13463   0.53691   0.25174   0.00000  Uiso   1.00
C95    C     0.13546   0.53618   0.18596   0.00000  Uiso   1.00
C96    C     0.17952   0.59182   0.15669   0.00000  Uiso   1.00
C97    C     0.24186   0.66976   0.08669   0.00000  Uiso   1.00
C98    C     0.11870   0.38954   0.33713   0.00000  Uiso   1.00
C99    C     0.10612   0.26492   0.34316   0.00000  Uiso   1.00
C100   C     0.13676   0.19652   0.38578   0.00000  Uiso   1.00
C101   C     0.17434   0.04568   0.44839   0.00000  Uiso   1.00
C102   C     0.07049   0.58620   0.33576   0.00000  Uiso   1.00
C103   C     0.01738   0.62691   0.34063   0.00000  Uiso   1.00
C104   C     0.00743   0.72407   0.38211   0.00000  Uiso   1.00
C105   C     0.97017   0.87858   0.44258   0.00000  Uiso   1.00
C106   C     0.16717   0.58147   0.35836   0.00000  Uiso   1.00
C107   C     0.17633   0.59128   0.28705   0.00000  Uiso   1.00
C108   C     0.22040   0.64695   0.25787   0.00000  Uiso   1.00
C109   C     0.22129   0.64631   0.19206   0.00000  Uiso   1.00
C110   C     0.16040   0.44391   0.37244   0.00000  Uiso   1.00
C111   C     0.19106   0.37568   0.41506   0.00000  Uiso   1.00
C112   C     0.17853   0.25099   0.42114   0.00000  Uiso   1.00
C113   C     0.11219   0.64058   0.37106   0.00000  Uiso   1.00
C114   C     0.10232   0.73768   0.41254   0.00000  Uiso   1.00
C115   C     0.04921   0.77854   0.41747   0.00000  Uiso   1.00
H116   H     0.05794   0.43901   0.26588   0.00000  Uiso   1.00
H117   H     0.10318   0.49408   0.15866   0.00000  Uiso   1.00
H118   H     0.07385   0.22287   0.31584   0.00000  Uiso   1.00
H119   H     0.98512   0.58481   0.31331   0.00000  Uiso   1.00
H120   H     0.17174   0.57908   0.05535   0.00000  Uiso   1.00
H121   H     0.10987   0.00722   0.38678   0.00000  Uiso   1.00
H122   H     0.92278   0.77044   0.38145   0.00000  Uiso   1.00
H123   H     0.19964   0.62380   0.38584   0.00000  Uiso   1.00
H124   H     0.25266   0.68902   0.28520   0.00000  Uiso   1.00
H125   H     0.22332   0.41780   0.44237   0.00000  Uiso   1.00
H126   H     0.13460   0.77974   0.43985   0.00000  Uiso   1.00
H127   H     0.29307   0.73729   0.15805   0.00000  Uiso   1.00
H128   H     0.23119   0.16542   0.48948   0.00000  Uiso   1.00
H129   H     0.04410   0.92865   0.48416   0.00000  Uiso   1.00
O130   O     0.26473   0.69771   0.03833   0.00000  Uiso   1.00
O131   O     0.18355   0.94746   0.47316   0.00000  Uiso   1.00
O132   O     0.93810   0.94879   0.46617   0.00000  Uiso   1.00
N133   N     0.19301   0.60738   0.09333   0.00000  Uiso   1.00
N134   N     0.13517   0.07272   0.40319   0.00000  Uiso   1.00
N135   N     0.96026   0.78625   0.39823   0.00000  Uiso   1.00
N136   N     0.25830   0.69252   0.14860   0.00000  Uiso   1.00
N137   N     0.20046   0.15786   0.45846   0.00000  Uiso   1.00
N138   N     0.02554   0.87138   0.45349   0.00000  Uiso   1.00
C139   C     0.40960   0.51865   0.29336   0.00000  Uiso   1.00
C140   C     0.36537   0.46309   0.25174   0.00000  Uiso   1.00
C141   C     0.36454   0.46382   0.18596   0.00000  Uiso   1.00
C142   C     0.32048   0.40818   0.15669   0.00000  Uiso   1.00
C143   C     0.25814   0.33024   0.08669   0.00000  Uiso   1.00
C144   C     0.38130   0.61046   0.33713   0.00000  Uiso   1.00
C145   C     0.39388   0.73508   0.34316   0.00000  Uiso   1.00
C146   C     0.36324   0.80348   0.38578   0.00000  Uiso   1.00
C147   C     0.32566   0.95432   0.44839   0.00000  Uiso   1.00
C148   C     0.42951   0.41380   0.33576   0.00000  Uiso   1.00
C149   C     0.48262   0.37309   0.34063   0.00000  Uiso   1.00
C150   C     0.49257   0.27593   0.38211   0.00000  Uiso   1.00
C151   C     0.52983   0.12142   0.44258   0.00000  Uiso   1.00
C152   C     0.33283   0.41853   0.35836   0.00000  Uiso   1.00
C153   C     0.32367   0.40872   0.28705   0.00000  Uiso   1.00
C154   C     0.27960   0.35305   0.25787   0.00000  Uiso   1.00
C155   C     0.27871   0.35369   0.19206   0.00000  Uiso   1.00
C156   C     0.33960   0.55609   0.37244   0.00000  Uiso   1.00
C157   C     0.30894   0.62432   0.41506   0.00000  Uiso   1.00
C158   C     0.32147   0.74901   0.42114   0.00000  Uiso   1.00
C159   C     0.38781   0.35942   0.37106   0.00000  Uiso   1.00
C160   C     0.39768   0.26232   0.41254   0.00000  Uiso   1.00
C161   C     0.45079   0.22146   0.41747   0.00000  Uiso   1.00
H162   H     0.44206   0.56099   0.26588   0.00000  Uiso   1.00
H163   H     0.39682   0.50592   0.15866   0.00000  Uiso   1.00
H164   H     0.42615   0.77713   0.31584   0.00000  Uiso   1.00
H165   H     0.51488   0.41519   0.31331   0.00000  Uiso   1.00
H166   H     0.32826   0.42092   0.05535   0.00000  Uiso   1.00
H167   H     0.39013   0.99278   0.38678   0.00000  Uiso   1.00
H168   H     0.57722   0.22956   0.38145   0.00000  Uiso   1.00
H169   H     0.30036   0.37620   0.38584   0.00000  Uiso   1.00
H170   H     0.24734   0.31098   0.28520   0.00000  Uiso   1.00
H171   H     0.27668   0.58220   0.44237   0.00000  Uiso   1.00
H172   H     0.36540   0.22026   0.43985   0.00000  Uiso   1.00
H173   H     0.20693   0.26271   0.15805   0.00000  Uiso   1.00
H174   H     0.26881   0.83458   0.48948   0.00000  Uiso   1.00
H175   H     0.45590   0.07135   0.48416   0.00000  Uiso   1.00
O176   O     0.23527   0.30229   0.03833   0.00000  Uiso   1.00
O177   O     0.31645   0.05254   0.47316   0.00000  Uiso   1.00
O178   O     0.56190   0.05121   0.46617   0.00000  Uiso   1.00
N179   N     0.30699   0.39262   0.09333   0.00000  Uiso   1.00
N180   N     0.36483   0.92728   0.40319   0.00000  Uiso   1.00
N181   N     0.53974   0.21375   0.39823   0.00000  Uiso   1.00
N182   N     0.24170   0.30748   0.14860   0.00000  Uiso   1.00
N183   N     0.29954   0.84214   0.45846   0.00000  Uiso   1.00
N184   N     0.47446   0.12862   0.45349   0.00000  Uiso   1.00
C185   C     0.09040   0.51865   0.79336   0.00000  Uiso   1.00
C186   C     0.13463   0.46309   0.75174   0.00000  Uiso   1.00
C187   C     0.13546   0.46382   0.68596   0.00000  Uiso   1.00
C188   C     0.17952   0.40818   0.65669   0.00000  Uiso   1.00
C189   C     0.24186   0.33024   0.58669   0.00000  Uiso   1.00
C190   C     0.11870   0.61046   0.83713   0.00000  Uiso   1.00
C191   C     0.10612   0.73508   0.84316   0.00000  Uiso   1.00
C192   C     0.13676   0.80348   0.88578   0.00000  Uiso   1.00
C193   C     0.17434   0.95432   0.94839   0.00000  Uiso   1.00
C194   C     0.07049   0.41380   0.83576   0.00000  Uiso   1.00
C195   C     0.01738   0.37309   0.84063   0.00000  Uiso   1.00
C196   C     0.00743   0.27593   0.88211   0.00000  Uiso   1.00
C197   C     0.97017   0.12142   0.94258   0.00000  Uiso   1.00
C198   C     0.16717   0.41853   0.85836   0.00000  Uiso   1.00
C199   C     0.17633   0.40872   0.78705   0.00000  Uiso   1.00
C200   C     0.22040   0.35305   0.75787   0.00000  Uiso   1.00
C201   C     0.22129   0.35369   0.69206   0.00000  Uiso   1.00
C202   C     0.16040   0.55609   0.87244   0.00000  Uiso   1.00
C203   C     0.19106   0.62432   0.91506   0.00000  Uiso   1.00
C204   C     0.17853   0.74901   0.92114   0.00000  Uiso   1.00
C205   C     0.11219   0.35942   0.87106   0.00000  Uiso   1.00
C206   C     0.10232   0.26232   0.91254   0.00000  Uiso   1.00
C207   C     0.04921   0.22146   0.91747   0.00000  Uiso   1.00
H208   H     0.05794   0.56099   0.76588   0.00000  Uiso   1.00
H209   H     0.10318   0.50592   0.65866   0.00000  Uiso   1.00
H210   H     0.07385   0.77713   0.81584   0.00000  Uiso   1.00
H211   H     0.98512   0.41519   0.81331   0.00000  Uiso   1.00
H212   H     0.17174   0.42092   0.55535   0.00000  Uiso   1.00
H213   H     0.10987   0.99278   0.88678   0.00000  Uiso   1.00
H214   H     0.92278   0.22956   0.88145   0.00000  Uiso   1.00
H215   H     0.19964   0.37620   0.88584   0.00000  Uiso   1.00
H216   H     0.25266   0.31098   0.78520   0.00000  Uiso   1.00
H217   H     0.22332   0.58220   0.94237   0.00000  Uiso   1.00
H218   H     0.13460   0.22026   0.93985   0.00000  Uiso   1.00
H219   H     0.29307   0.26271   0.65805   0.00000  Uiso   1.00
H220   H     0.23119   0.83458   0.98948   0.00000  Uiso   1.00
H221   H     0.04410   0.07135   0.98416   0.00000  Uiso   1.00
O222   O     0.26473   0.30229   0.53833   0.00000  Uiso   1.00
O223   O     0.18355   0.05254   0.97316   0.00000  Uiso   1.00
O224   O     0.93810   0.05121   0.96617   0.00000  Uiso   1.00
N225   N     0.19301   0.39262   0.59333   0.00000  Uiso   1.00
N226   N     0.13517   0.92728   0.90319   0.00000  Uiso   1.00
N227   N     0.96026   0.21375   0.89823   0.00000  Uiso   1.00
N228   N     0.25830   0.30748   0.64860   0.00000  Uiso   1.00
N229   N     0.20046   0.84214   0.95846   0.00000  Uiso   1.00
N230   N     0.02554   0.12862   0.95349   0.00000  Uiso   1.00
C231   C     0.40960   0.48135   0.79336   0.00000  Uiso   1.00
C232   C     0.36537   0.53691   0.75174   0.00000  Uiso   1.00
C233   C     0.36454   0.53618   0.68596   0.00000  Uiso   1.00
C234   C     0.32048   0.59182   0.65669   0.00000  Uiso   1.00
C235   C     0.25814   0.66976   0.58669   0.00000  Uiso   1.00
C236   C     0.38130   0.38954   0.83713   0.00000  Uiso   1.00
C237   C     0.39388   0.26492   0.84316   0.00000  Uiso   1.00
C238   C     0.36324   0.19652   0.88578   0.00000  Uiso   1.00
C239   C     0.32566   0.04568   0.94839   0.00000  Uiso   1.00
C240   C     0.42951   0.58620   0.83576   0.00000  Uiso   1.00
C241   C     0.48262   0.62691   0.84063   0.00000  Uiso   1.00
C242   C     0.49257   0.72407   0.88211   0.00000  Uiso   1.00
C243   C     0.52983   0.87858   0.94258   0.00000  Uiso   1.00
C244   C     0.33283   0.58147   0.85836   0.00000  Uiso   1.00
C245   C     0.32367   0.59128   0.78705   0.00000  Uiso   1.00
C246   C     0.27960   0.64695   0.75787   0.00000  Uiso   1.00
C247   C     0.27871   0.64631   0.69206   0.00000  Uiso   1.00
C248   C     0.33960   0.44391   0.87244   0.00000  Uiso   1.00
C249   C     0.30894   0.37568   0.91506   0.00000  Uiso   1.00
C250   C     0.32147   0.25099   0.92114   0.00000  Uiso   1.00
C251   C     0.38781   0.64058   0.87106   0.00000  Uiso   1.00
C252   C     0.39768   0.73768   0.91254   0.00000  Uiso   1.00
C253   C     0.45079   0.77854   0.91747   0.00000  Uiso   1.00
H254   H     0.44206   0.43901   0.76588   0.00000  Uiso   1.00
H255   H     0.39682   0.49408   0.65866   0.00000  Uiso   1.00
H256   H     0.42615   0.22287   0.81584   0.00000  Uiso   1.00
H257   H     0.51488   0.58481   0.81331   0.00000  Uiso   1.00
H258   H     0.32826   0.57908   0.55535   0.00000  Uiso   1.00
H259   H     0.39013   0.00722   0.88678   0.00000  Uiso   1.00
H260   H     0.57722   0.77044   0.88145   0.00000  Uiso   1.00
H261   H     0.30036   0.62380   0.88584   0.00000  Uiso   1.00
H262   H     0.24734   0.68902   0.78520   0.00000  Uiso   1.00
H263   H     0.27668   0.41780   0.94237   0.00000  Uiso   1.00
H264   H     0.36540   0.77974   0.93985   0.00000  Uiso   1.00
H265   H     0.20693   0.73729   0.65805   0.00000  Uiso   1.00
H266   H     0.26881   0.16542   0.98948   0.00000  Uiso   1.00
H267   H     0.45590   0.92865   0.98416   0.00000  Uiso   1.00
O268   O     0.23527   0.69771   0.53833   0.00000  Uiso   1.00
O269   O     0.31645   0.94746   0.97316   0.00000  Uiso   1.00
O270   O     0.56190   0.94879   0.96617   0.00000  Uiso   1.00
N271   N     0.30699   0.60738   0.59333   0.00000  Uiso   1.00
N272   N     0.36483   0.07272   0.90319   0.00000  Uiso   1.00
N273   N     0.53974   0.78625   0.89823   0.00000  Uiso   1.00
N274   N     0.24170   0.69252   0.64860   0.00000  Uiso   1.00
N275   N     0.29954   0.15786   0.95846   0.00000  Uiso   1.00
N276   N     0.47446   0.87138   0.95349   0.00000  Uiso   1.00
C277   C     0.90960   0.51865   0.70664   0.00000  Uiso   1.00
C278   C     0.86537   0.46309   0.74826   0.00000  Uiso   1.00
C279   C     0.86454   0.46382   0.81404   0.00000  Uiso   1.00
C280   C     0.82048   0.40818   0.84331   0.00000  Uiso   1.00
C281   C     0.75814   0.33024   0.91331   0.00000  Uiso   1.00
C282   C     0.88130   0.61046   0.66287   0.00000  Uiso   1.00
C283   C     0.89388   0.73508   0.65684   0.00000  Uiso   1.00
C284   C     0.86324   0.80348   0.61422   0.00000  Uiso   1.00
C285   C     0.82566   0.95432   0.55161   0.00000  Uiso   1.00
C286   C     0.92951   0.41380   0.66424   0.00000  Uiso   1.00
C287   C     0.98262   0.37309   0.65937   0.00000  Uiso   1.00
C288   C     0.99257   0.27593   0.61789   0.00000  Uiso   1.00
C289   C     0.02983   0.12142   0.55742   0.00000  Uiso   1.00
C290   C     0.83283   0.41853   0.64164   0.00000  Uiso   1.00
C291   C     0.82367   0.40872   0.71295   0.00000  Uiso   1.00
C292   C     0.77960   0.35305   0.74213   0.00000  Uiso   1.00
C293   C     0.77871   0.35369   0.80794   0.00000  Uiso   1.00
C294   C     0.83960   0.55609   0.62756   0.00000  Uiso   1.00
C295   C     0.80894   0.62432   0.58494   0.00000  Uiso   1.00
C296   C     0.82147   0.74901   0.57886   0.00000  Uiso   1.00
C297   C     0.88781   0.35942   0.62894   0.00000  Uiso   1.00
C298   C     0.89768   0.26232   0.58746   0.00000  Uiso   1.00
C299   C     0.95079   0.22146   0.58253   0.00000  Uiso   1.00
H300   H     0.94206   0.56099   0.73412   0.00000  Uiso   1.00
H301   H     0.89682   0.50592   0.84134   0.00000  Uiso   1.00
H302   H     0.92615   0.77713   0.68416   0.00000  Uiso   1.00
H303   H     0.01488   0.41519   0.68669   0.00000  Uiso   1.00
H304   H     0.82826   0.42092   0.94465   0.00000  Uiso   1.00
H305   H     0.89013   0.99278   0.61322   0.00000  Uiso   1.00
H306   H     0.07722   0.22956   0.61855   0.00000  Uiso   1.00
H307   H     0.80036   0.37620   0.61416   0.00000  Uiso   1.00
H308   H     0.74734   0.31098   0.71480   0.00000  Uiso   1.00
H309   H     0.77668   0.58220   0.55763   0.00000  Uiso   1.00
H310   H     0.86540   0.22026   0.56015   0.00000  Uiso   1.00
H311   H     0.70693   0.26271   0.84195   0.00000  Uiso   1.00
H312   H     0.76881   0.83458   0.51052   0.00000  Uiso   1.00
H313   H     0.95590   0.07135   0.51584   0.00000  Uiso   1.00
O314   O     0.73527   0.30229   0.96167   0.00000  Uiso   1.00
O315   O     0.81645   0.05254   0.52684   0.00000  Uiso   1.00
O316   O     0.06190   0.05121   0.53383   0.00000  Uiso   1.00
N317   N     0.80699   0.39262   0.90667   0.00000  Uiso   1.00
N318   N     0.86483   0.92728   0.59681   0.00000  Uiso   1.00
N319   N     0.03974   0.21375   0.60177   0.00000  Uiso   1.00
N320   N     0.74170   0.30748   0.85140   0.00000  Uiso   1.00
N321   N     0.79954   0.84214   0.54154   0.00000  Uiso   1.00
N322   N     0.97446   0.12862   0.54651   0.00000  Uiso   1.00
C323   C     0.59040   0.48135   0.70664   0.00000  Uiso   1.00
C324   C     0.63463   0.53691   0.74826   0.00000  Uiso   1.00
C325   C     0.63546   0.53618   0.81404   0.00000  Uiso   1.00
C326   C     0.67952   0.59182   0.84331   0.00000  Uiso   1.00
C327   C     0.74186   0.66976   0.91331   0.00000  Uiso   1.00
C328   C     0.61870   0.38954   0.66287   0.00000  Uiso   1.00
C329   C     0.60612   0.26492   0.65684   0.00000  Uiso   1.00
C330   C     0.63676   0.19652   0.61422   0.00000  Uiso   1.00
C331   C     0.67434   0.04568   0.55161   0.00000  Uiso   1.00
C332   C     0.57049   0.58620   0.66424   0.00000  Uiso   1.00
C333   C     0.51738   0.62691   0.65937   0.00000  Uiso   1.00
C334   C     0.50743   0.72407   0.61789   0.00000  Uiso   1.00
C335   C     0.47017   0.87858   0.55742   0.00000  Uiso   1.00
C336   C     0.66717   0.58147   0.64164   0.00000  Uiso   1.00
C337   C     0.67633   0.59128   0.71295   0.00000  Uiso   1.00
C338   C     0.72040   0.64695   0.74213   0.00000  Uiso   1.00
C339   C     0.72129   0.64631   0.80794   0.00000  Uiso   1.00
C340   C     0.66040   0.44391   0.62756   0.00000  Uiso   1.00
C341   C     0.69106   0.37568   0.58494   0.00000  Uiso   1.00
C342   C     0.67853   0.25099   0.57886   0.00000  Uiso   1.00
C343   C     0.61219   0.64058   0.62894   0.00000  Uiso   1.00
C344   C     0.60232   0.73768   0.58746   0.00000  Uiso   1.00
C345   C     0.54921   0.77854   0.58253   0.00000  Uiso   1.00
H346   H     0.55794   0.43901   0.73412   0.00000  Uiso   1.00
H347   H     0.60318   0.49408   0.84134   0.00000  Uiso   1.00
H348   H     0.57385   0.22287   0.68416   0.00000  Uiso   1.00
H349   H     0.48512   0.58481   0.68669   0.00000  Uiso   1.00
H350   H     0.67174   0.57908   0.94465   0.00000  Uiso   1.00
H351   H     0.60987   0.00722   0.61322   0.00000  Uiso   1.00
H352   H     0.42278   0.77044   0.61855   0.00000  Uiso   1.00
H353   H     0.69964   0.62380   0.61416   0.00000  Uiso   1.00
H354   H     0.75266   0.68902   0.71480   0.00000  Uiso   1.00
H355   H     0.72332   0.41780   0.55763   0.00000  Uiso   1.00
H356   H     0.63460   0.77974   0.56015   0.00000  Uiso   1.00
H357   H     0.79307   0.73729   0.84195   0.00000  Uiso   1.00
H358   H     0.73119   0.16542   0.51052   0.00000  Uiso   1.00
H359   H     0.54410   0.92865   0.51584   0.00000  Uiso   1.00
O360   O     0.76473   0.69771   0.96167   0.00000  Uiso   1.00
O361   O     0.68355   0.94746   0.52684   0.00000  Uiso   1.00
O362   O     0.43810   0.94879   0.53383   0.00000  Uiso   1.00
N363   N     0.69301   0.60738   0.90667   0.00000  Uiso   1.00
N364   N     0.63517   0.07272   0.59681   0.00000  Uiso   1.00
N365   N     0.46026   0.78625   0.60177   0.00000  Uiso   1.00
N366   N     0.75830   0.69252   0.85140   0.00000  Uiso   1.00
N367   N     0.70046   0.15786   0.54154   0.00000  Uiso   1.00
N368   N     0.52554   0.87138   0.54651   0.00000  Uiso   1.00
