data_job_00741
_audit_creation_date              2018-12-19
_audit_creation_method            'Materials Studio'
_symmetry_space_group_name_H-M    'P1'
_symmetry_Int_Tables_number       1
_symmetry_cell_setting            triclinic
loop_
_symmetry_equiv_pos_as_xyz
  x,y,z
_cell_length_a                    15.0379
_cell_length_b                    14.6873
_cell_length_c                    26.1458
_cell_angle_alpha                 90.0000
_cell_angle_beta                  124.0101
_cell_angle_gamma                 90.0000
loop_
_atom_site_label
_atom_site_type_symbol
_atom_site_fract_x
_atom_site_fract_y
_atom_site_fract_z
_atom_site_U_iso_or_equiv
_atom_site_adp_type
_atom_site_occupancy
C1     C     0.53068   0.33236   0.88955   0.00000  Uiso   1.00
C2     C     0.48634   0.25034   0.90412   0.00000  Uiso   1.00
C3     C     0.40573   0.25264   0.91477   0.00000  Uiso   1.00
C4     C     0.37654   0.17023   0.92736   0.00000  Uiso   1.00
C5     C     0.30016   0.05530   0.94973   0.00000  Uiso   1.00
C6     C     0.65120   0.33288   0.93832   0.00000  Uiso   1.00
C7     C     0.70920   0.40459   0.97773   0.00000  Uiso   1.00
C8     C     0.81879   0.39166   0.01909   0.00000  Uiso   1.00
C9     C     0.99838   0.40490   0.09454   0.00000  Uiso   1.00
C10    C     0.51722   0.31077   0.82853   0.00000  Uiso   1.00
C11    C     0.46259   0.36390   0.77562   0.00000  Uiso   1.00
C12    C     0.45940   0.33236   0.72456   0.00000  Uiso   1.00
C13    C     0.43096   0.31127   0.62954   0.00000  Uiso   1.00
C14    C     0.62218   0.18191   0.89294   0.00000  Uiso   1.00
C15    C     0.53604   0.16862   0.90597   0.00000  Uiso   1.00
C16    C     0.50696   0.08618   0.91853   0.00000  Uiso   1.00
C17    C     0.42632   0.08835   0.92920   0.00000  Uiso   1.00
C18    C     0.70090   0.25116   0.94017   0.00000  Uiso   1.00
C19    C     0.81043   0.23812   0.98148   0.00000  Uiso   1.00
C20    C     0.86858   0.30979   0.02094   0.00000  Uiso   1.00
C21    C     0.56692   0.22904   0.83037   0.00000  Uiso   1.00
C22    C     0.56382   0.19743   0.77938   0.00000  Uiso   1.00
C23    C     0.50919   0.25049   0.72641   0.00000  Uiso   1.00
H24    H     0.49200   0.39599   0.88812   0.00000  Uiso   1.00
H25    H     0.36730   0.31590   0.91335   0.00000  Uiso   1.00
H26    H     0.67072   0.46782   0.97629   0.00000  Uiso   1.00
H27    H     0.42414   0.42713   0.77422   0.00000  Uiso   1.00
H28    H     0.25099   0.19107   0.94216   0.00000  Uiso   1.00
H29    H     0.89078   0.51142   0.07485   0.00000  Uiso   1.00
H30    H     0.37082   0.42562   0.64875   0.00000  Uiso   1.00
H31    H     0.66088   0.11828   0.89438   0.00000  Uiso   1.00
H32    H     0.54543   0.02294   0.91996   0.00000  Uiso   1.00
H33    H     0.84886   0.17487   0.98290   0.00000  Uiso   1.00
H34    H     0.60228   0.13418   0.78082   0.00000  Uiso   1.00
H35    H     0.39557   0.95330   0.94753   0.00000  Uiso   1.00
H36    H     0.03537   0.27366   0.08022   0.00000  Uiso   1.00
H37    H     0.51541   0.18785   0.65411   0.00000  Uiso   1.00
O38    O     0.24432   0.01448   0.96158   0.00000  Uiso   1.00
O39    O     0.08370   0.43479   0.13565   0.00000  Uiso   1.00
O40    O     0.40153   0.32221   0.57661   0.00000  Uiso   1.00
N41    N     0.30084   0.14819   0.93990   0.00000  Uiso   1.00
N42    N     0.89901   0.44770   0.06397   0.00000  Uiso   1.00
N43    N     0.41292   0.36749   0.66560   0.00000  Uiso   1.00
N44    N     0.37864   0.02025   0.94279   0.00000  Uiso   1.00
N45    N     0.97681   0.31975   0.06685   0.00000  Uiso   1.00
N46    N     0.49072   0.23955   0.66849   0.00000  Uiso   1.00
C47    C     0.02314   0.81419   0.25979   0.00000  Uiso   1.00
C48    C     0.97923   0.73350   0.27581   0.00000  Uiso   1.00
C49    C     0.89986   0.73759   0.28743   0.00000  Uiso   1.00
C50    C     0.87087   0.65618   0.30128   0.00000  Uiso   1.00
C51    C     0.79533   0.54344   0.32586   0.00000  Uiso   1.00
C52    C     0.14397   0.81449   0.30775   0.00000  Uiso   1.00
C53    C     0.20312   0.88668   0.34622   0.00000  Uiso   1.00
C54    C     0.31281   0.87345   0.38695   0.00000  Uiso   1.00
C55    C     0.49304   0.88648   0.46109   0.00000  Uiso   1.00
C56    C     0.00765   0.79052   0.19850   0.00000  Uiso   1.00
C57    C     0.95219   0.84256   0.14511   0.00000  Uiso   1.00
C58    C     0.94713   0.80915   0.09386   0.00000  Uiso   1.00
C59    C     0.91570   0.78495   0.99838   0.00000  Uiso   1.00
C60    C     0.11278   0.66233   0.26372   0.00000  Uiso   1.00
C61    C     0.02793   0.65102   0.27795   0.00000  Uiso   1.00
C62    C     0.99904   0.56957   0.29178   0.00000  Uiso   1.00
C63    C     0.91964   0.57354   0.30341   0.00000  Uiso   1.00
C64    C     0.19267   0.73201   0.30989   0.00000  Uiso   1.00
C65    C     0.30230   0.71867   0.35057   0.00000  Uiso   1.00
C66    C     0.36159   0.79082   0.38909   0.00000  Uiso   1.00
C67    C     0.05634   0.70803   0.20064   0.00000  Uiso   1.00
C68    C     0.05137   0.67454   0.14946   0.00000  Uiso   1.00
C69    C     0.99592   0.72651   0.09600   0.00000  Uiso   1.00
H70    H     0.98523   0.87841   0.25813   0.00000  Uiso   1.00
H71    H     0.86221   0.80144   0.28578   0.00000  Uiso   1.00
H72    H     0.16542   0.95051   0.34455   0.00000  Uiso   1.00
H73    H     0.91453   0.90639   0.14348   0.00000  Uiso   1.00
H74    H     0.74731   0.67973   0.31739   0.00000  Uiso   1.00
H75    H     0.38665   0.99407   0.44131   0.00000  Uiso   1.00
H76    H     0.85760   0.90103   0.01730   0.00000  Uiso   1.00
H77    H     0.15069   0.59811   0.26538   0.00000  Uiso   1.00
H78    H     0.03674   0.50575   0.29343   0.00000  Uiso   1.00
H79    H     0.33995   0.65483   0.35221   0.00000  Uiso   1.00
H80    H     0.08906   0.61070   0.15113   0.00000  Uiso   1.00
H81    H     0.88897   0.43974   0.32361   0.00000  Uiso   1.00
H82    H     0.52831   0.75408   0.44752   0.00000  Uiso   1.00
H83    H     0.99926   0.66104   0.02352   0.00000  Uiso   1.00
O84    O     0.74022   0.50404   0.33884   0.00000  Uiso   1.00
O85    O     0.57900   0.91645   0.50140   0.00000  Uiso   1.00
O86    O     0.88490   0.79438   0.94512   0.00000  Uiso   1.00
N87    N     0.79627   0.63592   0.31499   0.00000  Uiso   1.00
N88    N     0.39401   0.92980   0.43086   0.00000  Uiso   1.00
N89    N     0.89942   0.84283   0.03445   0.00000  Uiso   1.00
N90    N     0.87250   0.50678   0.31834   0.00000  Uiso   1.00
N91    N     0.47024   0.80067   0.43420   0.00000  Uiso   1.00
N92    N     0.97565   0.71369   0.03779   0.00000  Uiso   1.00
C93    C     0.46932   0.83236   0.61045   0.00000  Uiso   1.00
C94    C     0.51366   0.75034   0.59588   0.00000  Uiso   1.00
C95    C     0.59427   0.75264   0.58523   0.00000  Uiso   1.00
C96    C     0.62346   0.67023   0.57264   0.00000  Uiso   1.00
C97    C     0.69984   0.55530   0.55027   0.00000  Uiso   1.00
C98    C     0.34880   0.83288   0.56168   0.00000  Uiso   1.00
C99    C     0.29080   0.90459   0.52227   0.00000  Uiso   1.00
C100   C     0.18121   0.89166   0.48091   0.00000  Uiso   1.00
C101   C     0.00162   0.90490   0.40546   0.00000  Uiso   1.00
C102   C     0.48278   0.81077   0.67147   0.00000  Uiso   1.00
C103   C     0.53741   0.86390   0.72438   0.00000  Uiso   1.00
C104   C     0.54060   0.83236   0.77544   0.00000  Uiso   1.00
C105   C     0.56904   0.81127   0.87046   0.00000  Uiso   1.00
C106   C     0.37782   0.68191   0.60706   0.00000  Uiso   1.00
C107   C     0.46396   0.66862   0.59403   0.00000  Uiso   1.00
C108   C     0.49304   0.58618   0.58147   0.00000  Uiso   1.00
C109   C     0.57368   0.58835   0.57080   0.00000  Uiso   1.00
C110   C     0.29910   0.75116   0.55983   0.00000  Uiso   1.00
C111   C     0.18957   0.73812   0.51852   0.00000  Uiso   1.00
C112   C     0.13142   0.80979   0.47906   0.00000  Uiso   1.00
C113   C     0.43308   0.72904   0.66963   0.00000  Uiso   1.00
C114   C     0.43618   0.69743   0.72062   0.00000  Uiso   1.00
C115   C     0.49081   0.75049   0.77359   0.00000  Uiso   1.00
H116   H     0.50800   0.89599   0.61188   0.00000  Uiso   1.00
H117   H     0.63270   0.81590   0.58665   0.00000  Uiso   1.00
H118   H     0.32928   0.96782   0.52371   0.00000  Uiso   1.00
H119   H     0.57586   0.92713   0.72578   0.00000  Uiso   1.00
H120   H     0.74901   0.69107   0.55784   0.00000  Uiso   1.00
H121   H     0.10922   0.01142   0.42515   0.00000  Uiso   1.00
H122   H     0.62918   0.92562   0.85125   0.00000  Uiso   1.00
H123   H     0.33912   0.61828   0.60562   0.00000  Uiso   1.00
H124   H     0.45457   0.52294   0.58004   0.00000  Uiso   1.00
H125   H     0.15114   0.67487   0.51710   0.00000  Uiso   1.00
H126   H     0.39772   0.63418   0.71918   0.00000  Uiso   1.00
H127   H     0.60443   0.45330   0.55247   0.00000  Uiso   1.00
H128   H     0.96463   0.77366   0.41978   0.00000  Uiso   1.00
H129   H     0.48459   0.68785   0.84589   0.00000  Uiso   1.00
O130   O     0.75568   0.51448   0.53842   0.00000  Uiso   1.00
O131   O     0.91630   0.93479   0.36435   0.00000  Uiso   1.00
O132   O     0.59847   0.82221   0.92339   0.00000  Uiso   1.00
N133   N     0.69916   0.64819   0.56010   0.00000  Uiso   1.00
N134   N     0.10099   0.94770   0.43603   0.00000  Uiso   1.00
N135   N     0.58708   0.86749   0.83440   0.00000  Uiso   1.00
N136   N     0.62136   0.52025   0.55721   0.00000  Uiso   1.00
N137   N     0.02319   0.81975   0.43315   0.00000  Uiso   1.00
N138   N     0.50928   0.73955   0.83151   0.00000  Uiso   1.00
C139   C     0.97686   0.31419   0.24021   0.00000  Uiso   1.00
C140   C     0.02077   0.23350   0.22419   0.00000  Uiso   1.00
C141   C     0.10014   0.23759   0.21257   0.00000  Uiso   1.00
C142   C     0.12913   0.15618   0.19872   0.00000  Uiso   1.00
C143   C     0.20467   0.04344   0.17414   0.00000  Uiso   1.00
C144   C     0.85603   0.31449   0.19225   0.00000  Uiso   1.00
C145   C     0.79688   0.38668   0.15378   0.00000  Uiso   1.00
C146   C     0.68719   0.37345   0.11305   0.00000  Uiso   1.00
C147   C     0.50696   0.38648   0.03891   0.00000  Uiso   1.00
C148   C     0.99235   0.29052   0.30150   0.00000  Uiso   1.00
C149   C     0.04781   0.34256   0.35489   0.00000  Uiso   1.00
C150   C     0.05287   0.30915   0.40614   0.00000  Uiso   1.00
C151   C     0.08430   0.28495   0.50162   0.00000  Uiso   1.00
C152   C     0.88722   0.16233   0.23628   0.00000  Uiso   1.00
C153   C     0.97207   0.15102   0.22205   0.00000  Uiso   1.00
C154   C     0.00096   0.06957   0.20822   0.00000  Uiso   1.00
C155   C     0.08036   0.07354   0.19659   0.00000  Uiso   1.00
C156   C     0.80733   0.23201   0.19011   0.00000  Uiso   1.00
C157   C     0.69770   0.21867   0.14943   0.00000  Uiso   1.00
C158   C     0.63841   0.29082   0.11091   0.00000  Uiso   1.00
C159   C     0.94366   0.20803   0.29936   0.00000  Uiso   1.00
C160   C     0.94863   0.17454   0.35054   0.00000  Uiso   1.00
C161   C     0.00408   0.22651   0.40400   0.00000  Uiso   1.00
H162   H     0.01477   0.37841   0.24187   0.00000  Uiso   1.00
H163   H     0.13779   0.30144   0.21422   0.00000  Uiso   1.00
H164   H     0.83458   0.45051   0.15545   0.00000  Uiso   1.00
H165   H     0.08547   0.40639   0.35652   0.00000  Uiso   1.00
H166   H     0.25269   0.17973   0.18261   0.00000  Uiso   1.00
H167   H     0.61335   0.49407   0.05869   0.00000  Uiso   1.00
H168   H     0.14240   0.40103   0.48270   0.00000  Uiso   1.00
H169   H     0.84931   0.09811   0.23462   0.00000  Uiso   1.00
H170   H     0.96326   0.00575   0.20657   0.00000  Uiso   1.00
H171   H     0.66005   0.15483   0.14779   0.00000  Uiso   1.00
H172   H     0.91094   0.11070   0.34887   0.00000  Uiso   1.00
H173   H     0.11103   0.93974   0.17639   0.00000  Uiso   1.00
H174   H     0.47169   0.25408   0.05248   0.00000  Uiso   1.00
H175   H     0.00074   0.16104   0.47648   0.00000  Uiso   1.00
O176   O     0.25978   0.00404   0.16116   0.00000  Uiso   1.00
O177   O     0.42100   0.41645   0.99860   0.00000  Uiso   1.00
O178   O     0.11510   0.29438   0.55488   0.00000  Uiso   1.00
N179   N     0.20373   0.13592   0.18501   0.00000  Uiso   1.00
N180   N     0.60599   0.42980   0.06914   0.00000  Uiso   1.00
N181   N     0.10058   0.34283   0.46555   0.00000  Uiso   1.00
N182   N     0.12750   0.00678   0.18166   0.00000  Uiso   1.00
N183   N     0.52976   0.30067   0.06580   0.00000  Uiso   1.00
N184   N     0.02435   0.21369   0.46221   0.00000  Uiso   1.00
C185   C     0.46932   0.66764   0.11045   0.00000  Uiso   1.00
C186   C     0.51366   0.74966   0.09588   0.00000  Uiso   1.00
C187   C     0.59427   0.74736   0.08523   0.00000  Uiso   1.00
C188   C     0.62346   0.82977   0.07264   0.00000  Uiso   1.00
C189   C     0.69984   0.94470   0.05027   0.00000  Uiso   1.00
C190   C     0.34880   0.66712   0.06168   0.00000  Uiso   1.00
C191   C     0.29080   0.59541   0.02227   0.00000  Uiso   1.00
C192   C     0.18121   0.60834   0.98091   0.00000  Uiso   1.00
C193   C     0.00162   0.59510   0.90546   0.00000  Uiso   1.00
C194   C     0.48278   0.68923   0.17147   0.00000  Uiso   1.00
C195   C     0.53741   0.63610   0.22438   0.00000  Uiso   1.00
C196   C     0.54060   0.66764   0.27544   0.00000  Uiso   1.00
C197   C     0.56904   0.68873   0.37046   0.00000  Uiso   1.00
C198   C     0.37782   0.81809   0.10706   0.00000  Uiso   1.00
C199   C     0.46396   0.83138   0.09403   0.00000  Uiso   1.00
C200   C     0.49304   0.91382   0.08147   0.00000  Uiso   1.00
C201   C     0.57368   0.91165   0.07080   0.00000  Uiso   1.00
C202   C     0.29910   0.74884   0.05983   0.00000  Uiso   1.00
C203   C     0.18957   0.76188   0.01852   0.00000  Uiso   1.00
C204   C     0.13142   0.69021   0.97906   0.00000  Uiso   1.00
C205   C     0.43308   0.77096   0.16963   0.00000  Uiso   1.00
C206   C     0.43618   0.80257   0.22062   0.00000  Uiso   1.00
C207   C     0.49081   0.74951   0.27359   0.00000  Uiso   1.00
H208   H     0.50800   0.60401   0.11188   0.00000  Uiso   1.00
H209   H     0.63270   0.68410   0.08665   0.00000  Uiso   1.00
H210   H     0.32928   0.53218   0.02371   0.00000  Uiso   1.00
H211   H     0.57586   0.57287   0.22578   0.00000  Uiso   1.00
H212   H     0.74901   0.80893   0.05784   0.00000  Uiso   1.00
H213   H     0.10922   0.48858   0.92515   0.00000  Uiso   1.00
H214   H     0.62918   0.57438   0.35125   0.00000  Uiso   1.00
H215   H     0.33912   0.88172   0.10562   0.00000  Uiso   1.00
H216   H     0.45457   0.97706   0.08004   0.00000  Uiso   1.00
H217   H     0.15114   0.82513   0.01710   0.00000  Uiso   1.00
H218   H     0.39772   0.86582   0.21918   0.00000  Uiso   1.00
H219   H     0.60443   0.04670   0.05247   0.00000  Uiso   1.00
H220   H     0.96463   0.72634   0.91978   0.00000  Uiso   1.00
H221   H     0.48459   0.81215   0.34589   0.00000  Uiso   1.00
O222   O     0.75568   0.98552   0.03842   0.00000  Uiso   1.00
O223   O     0.91630   0.56521   0.86435   0.00000  Uiso   1.00
O224   O     0.59847   0.67779   0.42339   0.00000  Uiso   1.00
N225   N     0.69916   0.85181   0.06010   0.00000  Uiso   1.00
N226   N     0.10099   0.55230   0.93603   0.00000  Uiso   1.00
N227   N     0.58708   0.63251   0.33440   0.00000  Uiso   1.00
N228   N     0.62136   0.97975   0.05721   0.00000  Uiso   1.00
N229   N     0.02319   0.68025   0.93315   0.00000  Uiso   1.00
N230   N     0.50928   0.76045   0.33151   0.00000  Uiso   1.00
C231   C     0.97686   0.18581   0.74021   0.00000  Uiso   1.00
C232   C     0.02077   0.26650   0.72419   0.00000  Uiso   1.00
C233   C     0.10014   0.26241   0.71257   0.00000  Uiso   1.00
C234   C     0.12913   0.34382   0.69872   0.00000  Uiso   1.00
C235   C     0.20467   0.45656   0.67414   0.00000  Uiso   1.00
C236   C     0.85603   0.18551   0.69225   0.00000  Uiso   1.00
C237   C     0.79688   0.11332   0.65378   0.00000  Uiso   1.00
C238   C     0.68719   0.12655   0.61305   0.00000  Uiso   1.00
C239   C     0.50696   0.11352   0.53891   0.00000  Uiso   1.00
C240   C     0.99235   0.20948   0.80150   0.00000  Uiso   1.00
C241   C     0.04781   0.15744   0.85489   0.00000  Uiso   1.00
C242   C     0.05287   0.19085   0.90614   0.00000  Uiso   1.00
C243   C     0.08430   0.21505   0.00162   0.00000  Uiso   1.00
C244   C     0.88722   0.33767   0.73628   0.00000  Uiso   1.00
C245   C     0.97207   0.34898   0.72205   0.00000  Uiso   1.00
C246   C     0.00096   0.43043   0.70822   0.00000  Uiso   1.00
C247   C     0.08036   0.42646   0.69659   0.00000  Uiso   1.00
C248   C     0.80733   0.26799   0.69011   0.00000  Uiso   1.00
C249   C     0.69770   0.28133   0.64943   0.00000  Uiso   1.00
C250   C     0.63841   0.20918   0.61091   0.00000  Uiso   1.00
C251   C     0.94366   0.29197   0.79936   0.00000  Uiso   1.00
C252   C     0.94863   0.32546   0.85054   0.00000  Uiso   1.00
C253   C     0.00408   0.27349   0.90400   0.00000  Uiso   1.00
H254   H     0.01477   0.12159   0.74187   0.00000  Uiso   1.00
H255   H     0.13779   0.19856   0.71422   0.00000  Uiso   1.00
H256   H     0.83458   0.04949   0.65545   0.00000  Uiso   1.00
H257   H     0.08547   0.09361   0.85652   0.00000  Uiso   1.00
H258   H     0.25269   0.32027   0.68261   0.00000  Uiso   1.00
H259   H     0.61335   0.00593   0.55869   0.00000  Uiso   1.00
H260   H     0.14240   0.09897   0.98270   0.00000  Uiso   1.00
H261   H     0.84931   0.40189   0.73462   0.00000  Uiso   1.00
H262   H     0.96326   0.49425   0.70657   0.00000  Uiso   1.00
H263   H     0.66005   0.34517   0.64779   0.00000  Uiso   1.00
H264   H     0.91094   0.38930   0.84887   0.00000  Uiso   1.00
H265   H     0.11103   0.56026   0.67639   0.00000  Uiso   1.00
H266   H     0.47169   0.24592   0.55248   0.00000  Uiso   1.00
H267   H     0.00074   0.33896   0.97648   0.00000  Uiso   1.00
O268   O     0.25978   0.49596   0.66116   0.00000  Uiso   1.00
O269   O     0.42100   0.08355   0.49860   0.00000  Uiso   1.00
O270   O     0.11510   0.20562   0.05488   0.00000  Uiso   1.00
N271   N     0.20373   0.36408   0.68501   0.00000  Uiso   1.00
N272   N     0.60599   0.07020   0.56914   0.00000  Uiso   1.00
N273   N     0.10058   0.15717   0.96555   0.00000  Uiso   1.00
N274   N     0.12750   0.49322   0.68166   0.00000  Uiso   1.00
N275   N     0.52976   0.19933   0.56580   0.00000  Uiso   1.00
N276   N     0.02435   0.28631   0.96221   0.00000  Uiso   1.00
C277   C     0.53068   0.16764   0.38955   0.00000  Uiso   1.00
C278   C     0.48634   0.24966   0.40412   0.00000  Uiso   1.00
C279   C     0.40573   0.24736   0.41477   0.00000  Uiso   1.00
C280   C     0.37654   0.32977   0.42736   0.00000  Uiso   1.00
C281   C     0.30016   0.44470   0.44973   0.00000  Uiso   1.00
C282   C     0.65120   0.16712   0.43832   0.00000  Uiso   1.00
C283   C     0.70920   0.09541   0.47773   0.00000  Uiso   1.00
C284   C     0.81879   0.10834   0.51909   0.00000  Uiso   1.00
C285   C     0.99838   0.09510   0.59454   0.00000  Uiso   1.00
C286   C     0.51722   0.18923   0.32853   0.00000  Uiso   1.00
C287   C     0.46259   0.13610   0.27562   0.00000  Uiso   1.00
C288   C     0.45940   0.16764   0.22456   0.00000  Uiso   1.00
C289   C     0.43096   0.18873   0.12954   0.00000  Uiso   1.00
C290   C     0.62218   0.31809   0.39294   0.00000  Uiso   1.00
C291   C     0.53604   0.33138   0.40597   0.00000  Uiso   1.00
C292   C     0.50696   0.41382   0.41853   0.00000  Uiso   1.00
C293   C     0.42632   0.41165   0.42920   0.00000  Uiso   1.00
C294   C     0.70090   0.24884   0.44017   0.00000  Uiso   1.00
C295   C     0.81043   0.26188   0.48148   0.00000  Uiso   1.00
C296   C     0.86858   0.19021   0.52094   0.00000  Uiso   1.00
C297   C     0.56692   0.27096   0.33037   0.00000  Uiso   1.00
C298   C     0.56382   0.30257   0.27938   0.00000  Uiso   1.00
C299   C     0.50919   0.24951   0.22641   0.00000  Uiso   1.00
H300   H     0.49200   0.10401   0.38812   0.00000  Uiso   1.00
H301   H     0.36730   0.18410   0.41335   0.00000  Uiso   1.00
H302   H     0.67072   0.03218   0.47629   0.00000  Uiso   1.00
H303   H     0.42414   0.07287   0.27422   0.00000  Uiso   1.00
H304   H     0.25099   0.30893   0.44216   0.00000  Uiso   1.00
H305   H     0.89078   0.98858   0.57485   0.00000  Uiso   1.00
H306   H     0.37082   0.07438   0.14875   0.00000  Uiso   1.00
H307   H     0.66088   0.38172   0.39438   0.00000  Uiso   1.00
H308   H     0.54543   0.47706   0.41996   0.00000  Uiso   1.00
H309   H     0.84886   0.32513   0.48290   0.00000  Uiso   1.00
H310   H     0.60228   0.36582   0.28082   0.00000  Uiso   1.00
H311   H     0.39557   0.54670   0.44753   0.00000  Uiso   1.00
H312   H     0.03537   0.22634   0.58022   0.00000  Uiso   1.00
H313   H     0.51541   0.31215   0.15411   0.00000  Uiso   1.00
O314   O     0.24432   0.48552   0.46158   0.00000  Uiso   1.00
O315   O     0.08370   0.06521   0.63565   0.00000  Uiso   1.00
O316   O     0.40153   0.17779   0.07661   0.00000  Uiso   1.00
N317   N     0.30084   0.35181   0.43990   0.00000  Uiso   1.00
N318   N     0.89901   0.05230   0.56397   0.00000  Uiso   1.00
N319   N     0.41292   0.13251   0.16560   0.00000  Uiso   1.00
N320   N     0.37864   0.47975   0.44279   0.00000  Uiso   1.00
N321   N     0.97681   0.18025   0.56685   0.00000  Uiso   1.00
N322   N     0.49072   0.26045   0.16849   0.00000  Uiso   1.00
C323   C     0.02314   0.68581   0.75979   0.00000  Uiso   1.00
C324   C     0.97923   0.76650   0.77581   0.00000  Uiso   1.00
C325   C     0.89986   0.76241   0.78743   0.00000  Uiso   1.00
C326   C     0.87087   0.84382   0.80128   0.00000  Uiso   1.00
C327   C     0.79533   0.95656   0.82586   0.00000  Uiso   1.00
C328   C     0.14397   0.68551   0.80775   0.00000  Uiso   1.00
C329   C     0.20312   0.61332   0.84622   0.00000  Uiso   1.00
C330   C     0.31281   0.62655   0.88695   0.00000  Uiso   1.00
C331   C     0.49304   0.61352   0.96109   0.00000  Uiso   1.00
C332   C     0.00765   0.70948   0.69850   0.00000  Uiso   1.00
C333   C     0.95219   0.65744   0.64511   0.00000  Uiso   1.00
C334   C     0.94713   0.69085   0.59386   0.00000  Uiso   1.00
C335   C     0.91570   0.71505   0.49838   0.00000  Uiso   1.00
C336   C     0.11278   0.83767   0.76372   0.00000  Uiso   1.00
C337   C     0.02793   0.84898   0.77795   0.00000  Uiso   1.00
C338   C     0.99904   0.93043   0.79178   0.00000  Uiso   1.00
C339   C     0.91964   0.92646   0.80341   0.00000  Uiso   1.00
C340   C     0.19267   0.76799   0.80989   0.00000  Uiso   1.00
C341   C     0.30230   0.78133   0.85057   0.00000  Uiso   1.00
C342   C     0.36159   0.70918   0.88909   0.00000  Uiso   1.00
C343   C     0.05634   0.79197   0.70064   0.00000  Uiso   1.00
C344   C     0.05137   0.82546   0.64946   0.00000  Uiso   1.00
C345   C     0.99592   0.77349   0.59600   0.00000  Uiso   1.00
H346   H     0.98523   0.62159   0.75813   0.00000  Uiso   1.00
H347   H     0.86221   0.69856   0.78578   0.00000  Uiso   1.00
H348   H     0.16542   0.54949   0.84455   0.00000  Uiso   1.00
H349   H     0.91453   0.59361   0.64348   0.00000  Uiso   1.00
H350   H     0.74731   0.82027   0.81739   0.00000  Uiso   1.00
H351   H     0.38665   0.50593   0.94131   0.00000  Uiso   1.00
H352   H     0.85760   0.59897   0.51730   0.00000  Uiso   1.00
H353   H     0.15069   0.90189   0.76538   0.00000  Uiso   1.00
H354   H     0.03674   0.99425   0.79343   0.00000  Uiso   1.00
H355   H     0.33995   0.84517   0.85221   0.00000  Uiso   1.00
H356   H     0.08906   0.88930   0.65113   0.00000  Uiso   1.00
H357   H     0.88897   0.06026   0.82361   0.00000  Uiso   1.00
H358   H     0.52831   0.74592   0.94752   0.00000  Uiso   1.00
H359   H     0.99926   0.83896   0.52352   0.00000  Uiso   1.00
O360   O     0.74022   0.99596   0.83884   0.00000  Uiso   1.00
O361   O     0.57900   0.58355   0.00140   0.00000  Uiso   1.00
O362   O     0.88490   0.70562   0.44512   0.00000  Uiso   1.00
N363   N     0.79627   0.86408   0.81499   0.00000  Uiso   1.00
N364   N     0.39401   0.57020   0.93086   0.00000  Uiso   1.00
N365   N     0.89942   0.65717   0.53445   0.00000  Uiso   1.00
N366   N     0.87250   0.99322   0.81834   0.00000  Uiso   1.00
N367   N     0.47024   0.69933   0.93420   0.00000  Uiso   1.00
N368   N     0.97565   0.78631   0.53779   0.00000  Uiso   1.00
