data_job_04603
_audit_creation_date              2018-12-19
_audit_creation_method            'Materials Studio'
_symmetry_space_group_name_H-M    'P1'
_symmetry_Int_Tables_number       1
_symmetry_cell_setting            triclinic
loop_
_symmetry_equiv_pos_as_xyz
  x,y,z
_cell_length_a                    19.2788
_cell_length_b                    14.9170
_cell_length_c                    15.9005
_cell_angle_alpha                 90.0000
_cell_angle_beta                  90.0000
_cell_angle_gamma                 90.0000
loop_
_atom_site_label
_atom_site_type_symbol
_atom_site_fract_x
_atom_site_fract_y
_atom_site_fract_z
_atom_site_U_iso_or_equiv
_atom_site_adp_type
_atom_site_occupancy
C1     C     0.63207   0.04515   0.14746   0.00000  Uiso   1.00
C2     C     0.64027   0.13858   0.10983   0.00000  Uiso   1.00
C3     C     0.59890   0.17552   0.04739   0.00000  Uiso   1.00
C4     C     0.61486   0.26197   0.02147   0.00000  Uiso   1.00
C5     C     0.61919   0.39977   0.95764   0.00000  Uiso   1.00
C6     C     0.70167   0.99838   0.13507   0.00000  Uiso   1.00
C7     C     0.71190   0.91744   0.09386   0.00000  Uiso   1.00
C8     C     0.77954   0.88587   0.08921   0.00000  Uiso   1.00
C9     C     0.87918   0.80599   0.06462   0.00000  Uiso   1.00
C10    C     0.62414   0.05868   0.24203   0.00000  Uiso   1.00
C11    C     0.56919   0.02841   0.29075   0.00000  Uiso   1.00
C12    C     0.57157   0.04759   0.37615   0.00000  Uiso   1.00
C13    C     0.55083   0.06131   0.51763   0.00000  Uiso   1.00
C14    C     0.73400   0.13299   0.21249   0.00000  Uiso   1.00
C15    C     0.69564   0.18629   0.14515   0.00000  Uiso   1.00
C16    C     0.71166   0.27271   0.11933   0.00000  Uiso   1.00
C17    C     0.67032   0.30978   0.05686   0.00000  Uiso   1.00
C18    C     0.75703   0.04609   0.17039   0.00000  Uiso   1.00
C19    C     0.82467   0.01464   0.16581   0.00000  Uiso   1.00
C20    C     0.83501   0.93368   0.12459   0.00000  Uiso   1.00
C21    C     0.67950   0.10639   0.27735   0.00000  Uiso   1.00
C22    C     0.68196   0.12561   0.36269   0.00000  Uiso   1.00
C23    C     0.62703   0.09539   0.41154   0.00000  Uiso   1.00
H24    H     0.58898   0.00799   0.11996   0.00000  Uiso   1.00
H25    H     0.55606   0.13856   0.02006   0.00000  Uiso   1.00
H26    H     0.66905   0.88053   0.06654   0.00000  Uiso   1.00
H27    H     0.52636   0.99149   0.26340   0.00000  Uiso   1.00
H28    H     0.54400   0.30436   0.92486   0.00000  Uiso   1.00
H29    H     0.78223   0.76026   0.02289   0.00000  Uiso   1.00
H30    H     0.48135   0.99423   0.43800   0.00000  Uiso   1.00
H31    H     0.77710   0.17014   0.23999   0.00000  Uiso   1.00
H32    H     0.75451   0.30962   0.14667   0.00000  Uiso   1.00
H33    H     0.86750   0.05158   0.19315   0.00000  Uiso   1.00
H34    H     0.72481   0.16254   0.39000   0.00000  Uiso   1.00
H35    H     0.70507   0.44320   0.02762   0.00000  Uiso   1.00
H36    H     0.94331   0.89909   0.12565   0.00000  Uiso   1.00
H37    H     0.64242   0.13306   0.54076   0.00000  Uiso   1.00
O38    O     0.60629   0.46259   0.91267   0.00000  Uiso   1.00
O39    O     0.91884   0.74874   0.04130   0.00000  Uiso   1.00
O40    O     0.52409   0.05571   0.58590   0.00000  Uiso   1.00
N41    N     0.58500   0.31790   0.96186   0.00000  Uiso   1.00
N42    N     0.80774   0.80920   0.05350   0.00000  Uiso   1.00
N43    N     0.52644   0.02793   0.44160   0.00000  Uiso   1.00
N44    N     0.67167   0.39261   0.01716   0.00000  Uiso   1.00
N45    N     0.89441   0.88391   0.10880   0.00000  Uiso   1.00
N46    N     0.61311   0.10263   0.49689   0.00000  Uiso   1.00
C47    C     0.36957   0.28687   0.79470   0.00000  Uiso   1.00
C48    C     0.35653   0.38020   0.83051   0.00000  Uiso   1.00
C49    C     0.39561   0.42178   0.89256   0.00000  Uiso   1.00
C50    C     0.37524   0.50726   0.91673   0.00000  Uiso   1.00
C51    C     0.36370   0.64572   0.97793   0.00000  Uiso   1.00
C52    C     0.30236   0.23471   0.80742   0.00000  Uiso   1.00
C53    C     0.29589   0.15396   0.85006   0.00000  Uiso   1.00
C54    C     0.22992   0.11697   0.85479   0.00000  Uiso   1.00
C55    C     0.13428   0.02952   0.88009   0.00000  Uiso   1.00
C56    C     0.37742   0.29906   0.69996   0.00000  Uiso   1.00
C57    C     0.43405   0.27240   0.65224   0.00000  Uiso   1.00
C58    C     0.43127   0.28956   0.56648   0.00000  Uiso   1.00
C59    C     0.45218   0.30202   0.42494   0.00000  Uiso   1.00
C60    C     0.26392   0.36474   0.72726   0.00000  Uiso   1.00
C61    C     0.29915   0.42249   0.79387   0.00000  Uiso   1.00
C62    C     0.27872   0.50793   0.81795   0.00000  Uiso   1.00
C63    C     0.31775   0.54963   0.88003   0.00000  Uiso   1.00
C64    C     0.24497   0.27700   0.77079   0.00000  Uiso   1.00
C65    C     0.17900   0.24011   0.77545   0.00000  Uiso   1.00
C66    C     0.17243   0.15933   0.81809   0.00000  Uiso   1.00
C67    C     0.32004   0.34136   0.66333   0.00000  Uiso   1.00
C68    C     0.31716   0.35855   0.57762   0.00000  Uiso   1.00
C69    C     0.37378   0.33192   0.52978   0.00000  Uiso   1.00
H70    H     0.41424   0.25394   0.82322   0.00000  Uiso   1.00
H71    H     0.44001   0.38903   0.92091   0.00000  Uiso   1.00
H72    H     0.34031   0.12125   0.87840   0.00000  Uiso   1.00
H73    H     0.47845   0.23967   0.68061   0.00000  Uiso   1.00
H74    H     0.44325   0.55743   0.01307   0.00000  Uiso   1.00
H75    H     0.23303   0.99279   0.92342   0.00000  Uiso   1.00
H76    H     0.52433   0.24250   0.50634   0.00000  Uiso   1.00
H77    H     0.21924   0.39766   0.69873   0.00000  Uiso   1.00
H78    H     0.23431   0.54064   0.78959   0.00000  Uiso   1.00
H79    H     0.13460   0.27286   0.74709   0.00000  Uiso   1.00
H80    H     0.27275   0.39128   0.54930   0.00000  Uiso   1.00
H81    H     0.27629   0.68048   0.90649   0.00000  Uiso   1.00
H82    H     0.06607   0.11584   0.81684   0.00000  Uiso   1.00
H83    H     0.35737   0.36555   0.39976   0.00000  Uiso   1.00
O84    O     0.37318   0.71040   0.02181   0.00000  Uiso   1.00
O85    O     0.09738   0.96961   0.90419   0.00000  Uiso   1.00
O86    O     0.47957   0.29723   0.35699   0.00000  Uiso   1.00
N87    N     0.40190   0.56678   0.97551   0.00000  Uiso   1.00
N88    N     0.20535   0.03888   0.89170   0.00000  Uiso   1.00
N89    N     0.47769   0.27231   0.50176   0.00000  Uiso   1.00
N90    N     0.31206   0.63299   0.91816   0.00000  Uiso   1.00
N91    N     0.11551   0.10509   0.83436   0.00000  Uiso   1.00
N92    N     0.38785   0.33853   0.44441   0.00000  Uiso   1.00
C93    C     0.36793   0.95485   0.64746   0.00000  Uiso   1.00
C94    C     0.35973   0.86142   0.60983   0.00000  Uiso   1.00
C95    C     0.40110   0.82448   0.54739   0.00000  Uiso   1.00
C96    C     0.38514   0.73803   0.52147   0.00000  Uiso   1.00
C97    C     0.38081   0.60023   0.45764   0.00000  Uiso   1.00
C98    C     0.29833   0.00162   0.63507   0.00000  Uiso   1.00
C99    C     0.28810   0.08256   0.59386   0.00000  Uiso   1.00
C100   C     0.22046   0.11413   0.58921   0.00000  Uiso   1.00
C101   C     0.12082   0.19401   0.56462   0.00000  Uiso   1.00
C102   C     0.37586   0.94132   0.74203   0.00000  Uiso   1.00
C103   C     0.43081   0.97159   0.79075   0.00000  Uiso   1.00
C104   C     0.42843   0.95241   0.87615   0.00000  Uiso   1.00
C105   C     0.44917   0.93869   0.01763   0.00000  Uiso   1.00
C106   C     0.26600   0.86701   0.71249   0.00000  Uiso   1.00
C107   C     0.30436   0.81371   0.64515   0.00000  Uiso   1.00
C108   C     0.28834   0.72729   0.61933   0.00000  Uiso   1.00
C109   C     0.32968   0.69022   0.55686   0.00000  Uiso   1.00
C110   C     0.24297   0.95391   0.67039   0.00000  Uiso   1.00
C111   C     0.17533   0.98536   0.66581   0.00000  Uiso   1.00
C112   C     0.16499   0.06632   0.62459   0.00000  Uiso   1.00
C113   C     0.32050   0.89361   0.77735   0.00000  Uiso   1.00
C114   C     0.31804   0.87439   0.86269   0.00000  Uiso   1.00
C115   C     0.37297   0.90461   0.91154   0.00000  Uiso   1.00
H116   H     0.41102   0.99201   0.61996   0.00000  Uiso   1.00
H117   H     0.44394   0.86144   0.52006   0.00000  Uiso   1.00
H118   H     0.33095   0.11947   0.56654   0.00000  Uiso   1.00
H119   H     0.47364   0.00851   0.76340   0.00000  Uiso   1.00
H120   H     0.45600   0.69564   0.42486   0.00000  Uiso   1.00
H121   H     0.21777   0.23974   0.52289   0.00000  Uiso   1.00
H122   H     0.51865   0.00577   0.93800   0.00000  Uiso   1.00
H123   H     0.22290   0.82986   0.73999   0.00000  Uiso   1.00
H124   H     0.24549   0.69038   0.64667   0.00000  Uiso   1.00
H125   H     0.13250   0.94842   0.69315   0.00000  Uiso   1.00
H126   H     0.27519   0.83746   0.89000   0.00000  Uiso   1.00
H127   H     0.29493   0.55680   0.52762   0.00000  Uiso   1.00
H128   H     0.05669   0.10091   0.62565   0.00000  Uiso   1.00
H129   H     0.35758   0.86694   0.04076   0.00000  Uiso   1.00
O130   O     0.39371   0.53741   0.41267   0.00000  Uiso   1.00
O131   O     0.08116   0.25126   0.54130   0.00000  Uiso   1.00
O132   O     0.47591   0.94429   0.08590   0.00000  Uiso   1.00
N133   N     0.41500   0.68210   0.46186   0.00000  Uiso   1.00
N134   N     0.19226   0.19080   0.55350   0.00000  Uiso   1.00
N135   N     0.47356   0.97207   0.94160   0.00000  Uiso   1.00
N136   N     0.32833   0.60739   0.51716   0.00000  Uiso   1.00
N137   N     0.10559   0.11609   0.60880   0.00000  Uiso   1.00
N138   N     0.38689   0.89737   0.99689   0.00000  Uiso   1.00
C139   C     0.63043   0.71313   0.29470   0.00000  Uiso   1.00
C140   C     0.64347   0.61980   0.33051   0.00000  Uiso   1.00
C141   C     0.60439   0.57822   0.39256   0.00000  Uiso   1.00
C142   C     0.62476   0.49274   0.41673   0.00000  Uiso   1.00
C143   C     0.63630   0.35428   0.47793   0.00000  Uiso   1.00
C144   C     0.69764   0.76529   0.30742   0.00000  Uiso   1.00
C145   C     0.70411   0.84604   0.35006   0.00000  Uiso   1.00
C146   C     0.77008   0.88303   0.35479   0.00000  Uiso   1.00
C147   C     0.86572   0.97048   0.38009   0.00000  Uiso   1.00
C148   C     0.62258   0.70094   0.19996   0.00000  Uiso   1.00
C149   C     0.56595   0.72760   0.15224   0.00000  Uiso   1.00
C150   C     0.56873   0.71044   0.06648   0.00000  Uiso   1.00
C151   C     0.54782   0.69798   0.92494   0.00000  Uiso   1.00
C152   C     0.73608   0.63526   0.22726   0.00000  Uiso   1.00
C153   C     0.70085   0.57751   0.29387   0.00000  Uiso   1.00
C154   C     0.72128   0.49207   0.31795   0.00000  Uiso   1.00
C155   C     0.68225   0.45037   0.38003   0.00000  Uiso   1.00
C156   C     0.75503   0.72300   0.27079   0.00000  Uiso   1.00
C157   C     0.82100   0.75989   0.27545   0.00000  Uiso   1.00
C158   C     0.82757   0.84067   0.31809   0.00000  Uiso   1.00
C159   C     0.67996   0.65864   0.16333   0.00000  Uiso   1.00
C160   C     0.68284   0.64145   0.07762   0.00000  Uiso   1.00
C161   C     0.62622   0.66808   0.02978   0.00000  Uiso   1.00
H162   H     0.58576   0.74606   0.32322   0.00000  Uiso   1.00
H163   H     0.55999   0.61097   0.42091   0.00000  Uiso   1.00
H164   H     0.65969   0.87875   0.37840   0.00000  Uiso   1.00
H165   H     0.52155   0.76033   0.18061   0.00000  Uiso   1.00
H166   H     0.55675   0.44257   0.51307   0.00000  Uiso   1.00
H167   H     0.76697   0.00721   0.42342   0.00000  Uiso   1.00
H168   H     0.47567   0.75750   0.00634   0.00000  Uiso   1.00
H169   H     0.78076   0.60234   0.19873   0.00000  Uiso   1.00
H170   H     0.76569   0.45936   0.28959   0.00000  Uiso   1.00
H171   H     0.86540   0.72714   0.24709   0.00000  Uiso   1.00
H172   H     0.72725   0.60872   0.04930   0.00000  Uiso   1.00
H173   H     0.72371   0.31952   0.40649   0.00000  Uiso   1.00
H174   H     0.93393   0.88416   0.31684   0.00000  Uiso   1.00
H175   H     0.64263   0.63445   0.89976   0.00000  Uiso   1.00
O176   O     0.62682   0.28960   0.52181   0.00000  Uiso   1.00
O177   O     0.90262   0.03039   0.40419   0.00000  Uiso   1.00
O178   O     0.52043   0.70277   0.85699   0.00000  Uiso   1.00
N179   N     0.59810   0.43322   0.47551   0.00000  Uiso   1.00
N180   N     0.79465   0.96112   0.39170   0.00000  Uiso   1.00
N181   N     0.52231   0.72769   0.00176   0.00000  Uiso   1.00
N182   N     0.68794   0.36701   0.41816   0.00000  Uiso   1.00
N183   N     0.88449   0.89491   0.33436   0.00000  Uiso   1.00
N184   N     0.61215   0.66147   0.94441   0.00000  Uiso   1.00
C185   C     0.13207   0.95485   0.14746   0.00000  Uiso   1.00
C186   C     0.14027   0.86142   0.10983   0.00000  Uiso   1.00
C187   C     0.09890   0.82448   0.04739   0.00000  Uiso   1.00
C188   C     0.11486   0.73803   0.02147   0.00000  Uiso   1.00
C189   C     0.11919   0.60023   0.95764   0.00000  Uiso   1.00
C190   C     0.20167   0.00162   0.13507   0.00000  Uiso   1.00
C191   C     0.21190   0.08256   0.09386   0.00000  Uiso   1.00
C192   C     0.27954   0.11413   0.08921   0.00000  Uiso   1.00
C193   C     0.37918   0.19401   0.06462   0.00000  Uiso   1.00
C194   C     0.12414   0.94132   0.24203   0.00000  Uiso   1.00
C195   C     0.06919   0.97159   0.29075   0.00000  Uiso   1.00
C196   C     0.07157   0.95241   0.37615   0.00000  Uiso   1.00
C197   C     0.05083   0.93869   0.51763   0.00000  Uiso   1.00
C198   C     0.23400   0.86701   0.21249   0.00000  Uiso   1.00
C199   C     0.19564   0.81371   0.14515   0.00000  Uiso   1.00
C200   C     0.21166   0.72729   0.11933   0.00000  Uiso   1.00
C201   C     0.17032   0.69022   0.05686   0.00000  Uiso   1.00
C202   C     0.25703   0.95391   0.17039   0.00000  Uiso   1.00
C203   C     0.32467   0.98536   0.16581   0.00000  Uiso   1.00
C204   C     0.33501   0.06632   0.12459   0.00000  Uiso   1.00
C205   C     0.17950   0.89361   0.27735   0.00000  Uiso   1.00
C206   C     0.18196   0.87439   0.36269   0.00000  Uiso   1.00
C207   C     0.12703   0.90461   0.41154   0.00000  Uiso   1.00
H208   H     0.08898   0.99201   0.11996   0.00000  Uiso   1.00
H209   H     0.05606   0.86144   0.02006   0.00000  Uiso   1.00
H210   H     0.16905   0.11947   0.06654   0.00000  Uiso   1.00
H211   H     0.02636   0.00851   0.26340   0.00000  Uiso   1.00
H212   H     0.04400   0.69564   0.92486   0.00000  Uiso   1.00
H213   H     0.28223   0.23974   0.02289   0.00000  Uiso   1.00
H214   H     0.98135   0.00577   0.43800   0.00000  Uiso   1.00
H215   H     0.27710   0.82986   0.23999   0.00000  Uiso   1.00
H216   H     0.25451   0.69038   0.14667   0.00000  Uiso   1.00
H217   H     0.36750   0.94842   0.19315   0.00000  Uiso   1.00
H218   H     0.22481   0.83746   0.39000   0.00000  Uiso   1.00
H219   H     0.20507   0.55680   0.02762   0.00000  Uiso   1.00
H220   H     0.44331   0.10091   0.12565   0.00000  Uiso   1.00
H221   H     0.14242   0.86694   0.54076   0.00000  Uiso   1.00
O222   O     0.10629   0.53741   0.91267   0.00000  Uiso   1.00
O223   O     0.41884   0.25126   0.04130   0.00000  Uiso   1.00
O224   O     0.02409   0.94429   0.58590   0.00000  Uiso   1.00
N225   N     0.08500   0.68210   0.96186   0.00000  Uiso   1.00
N226   N     0.30774   0.19080   0.05350   0.00000  Uiso   1.00
N227   N     0.02644   0.97207   0.44160   0.00000  Uiso   1.00
N228   N     0.17167   0.60739   0.01716   0.00000  Uiso   1.00
N229   N     0.39441   0.11609   0.10880   0.00000  Uiso   1.00
N230   N     0.11311   0.89737   0.49689   0.00000  Uiso   1.00
C231   C     0.86957   0.71313   0.79470   0.00000  Uiso   1.00
C232   C     0.85653   0.61980   0.83051   0.00000  Uiso   1.00
C233   C     0.89561   0.57822   0.89256   0.00000  Uiso   1.00
C234   C     0.87524   0.49274   0.91673   0.00000  Uiso   1.00
C235   C     0.86370   0.35428   0.97793   0.00000  Uiso   1.00
C236   C     0.80236   0.76529   0.80742   0.00000  Uiso   1.00
C237   C     0.79589   0.84604   0.85006   0.00000  Uiso   1.00
C238   C     0.72992   0.88303   0.85479   0.00000  Uiso   1.00
C239   C     0.63428   0.97048   0.88009   0.00000  Uiso   1.00
C240   C     0.87742   0.70094   0.69996   0.00000  Uiso   1.00
C241   C     0.93405   0.72760   0.65224   0.00000  Uiso   1.00
C242   C     0.93127   0.71044   0.56648   0.00000  Uiso   1.00
C243   C     0.95218   0.69798   0.42494   0.00000  Uiso   1.00
C244   C     0.76392   0.63526   0.72726   0.00000  Uiso   1.00
C245   C     0.79915   0.57751   0.79387   0.00000  Uiso   1.00
C246   C     0.77872   0.49207   0.81795   0.00000  Uiso   1.00
C247   C     0.81775   0.45037   0.88003   0.00000  Uiso   1.00
C248   C     0.74497   0.72300   0.77079   0.00000  Uiso   1.00
C249   C     0.67900   0.75989   0.77545   0.00000  Uiso   1.00
C250   C     0.67243   0.84067   0.81809   0.00000  Uiso   1.00
C251   C     0.82004   0.65864   0.66333   0.00000  Uiso   1.00
C252   C     0.81716   0.64145   0.57762   0.00000  Uiso   1.00
C253   C     0.87378   0.66808   0.52978   0.00000  Uiso   1.00
H254   H     0.91424   0.74606   0.82322   0.00000  Uiso   1.00
H255   H     0.94001   0.61097   0.92091   0.00000  Uiso   1.00
H256   H     0.84031   0.87875   0.87840   0.00000  Uiso   1.00
H257   H     0.97845   0.76033   0.68061   0.00000  Uiso   1.00
H258   H     0.94325   0.44257   0.01307   0.00000  Uiso   1.00
H259   H     0.73303   0.00721   0.92342   0.00000  Uiso   1.00
H260   H     0.02433   0.75750   0.50634   0.00000  Uiso   1.00
H261   H     0.71924   0.60234   0.69873   0.00000  Uiso   1.00
H262   H     0.73431   0.45936   0.78959   0.00000  Uiso   1.00
H263   H     0.63460   0.72714   0.74709   0.00000  Uiso   1.00
H264   H     0.77275   0.60872   0.54930   0.00000  Uiso   1.00
H265   H     0.77629   0.31952   0.90649   0.00000  Uiso   1.00
H266   H     0.56607   0.88416   0.81684   0.00000  Uiso   1.00
H267   H     0.85737   0.63445   0.39976   0.00000  Uiso   1.00
O268   O     0.87318   0.28960   0.02181   0.00000  Uiso   1.00
O269   O     0.59738   0.03039   0.90419   0.00000  Uiso   1.00
O270   O     0.97957   0.70277   0.35699   0.00000  Uiso   1.00
N271   N     0.90190   0.43322   0.97551   0.00000  Uiso   1.00
N272   N     0.70535   0.96112   0.89170   0.00000  Uiso   1.00
N273   N     0.97769   0.72769   0.50176   0.00000  Uiso   1.00
N274   N     0.81206   0.36701   0.91816   0.00000  Uiso   1.00
N275   N     0.61551   0.89491   0.83436   0.00000  Uiso   1.00
N276   N     0.88785   0.66147   0.44441   0.00000  Uiso   1.00
C277   C     0.86793   0.04515   0.64746   0.00000  Uiso   1.00
C278   C     0.85973   0.13858   0.60983   0.00000  Uiso   1.00
C279   C     0.90110   0.17552   0.54739   0.00000  Uiso   1.00
C280   C     0.88514   0.26197   0.52147   0.00000  Uiso   1.00
C281   C     0.88081   0.39977   0.45764   0.00000  Uiso   1.00
C282   C     0.79833   0.99838   0.63507   0.00000  Uiso   1.00
C283   C     0.78810   0.91744   0.59386   0.00000  Uiso   1.00
C284   C     0.72046   0.88587   0.58921   0.00000  Uiso   1.00
C285   C     0.62082   0.80599   0.56462   0.00000  Uiso   1.00
C286   C     0.87586   0.05868   0.74203   0.00000  Uiso   1.00
C287   C     0.93081   0.02841   0.79075   0.00000  Uiso   1.00
C288   C     0.92843   0.04759   0.87615   0.00000  Uiso   1.00
C289   C     0.94917   0.06131   0.01763   0.00000  Uiso   1.00
C290   C     0.76600   0.13299   0.71249   0.00000  Uiso   1.00
C291   C     0.80436   0.18629   0.64515   0.00000  Uiso   1.00
C292   C     0.78834   0.27271   0.61933   0.00000  Uiso   1.00
C293   C     0.82968   0.30978   0.55686   0.00000  Uiso   1.00
C294   C     0.74297   0.04609   0.67039   0.00000  Uiso   1.00
C295   C     0.67533   0.01464   0.66581   0.00000  Uiso   1.00
C296   C     0.66499   0.93368   0.62459   0.00000  Uiso   1.00
C297   C     0.82050   0.10639   0.77735   0.00000  Uiso   1.00
C298   C     0.81804   0.12561   0.86269   0.00000  Uiso   1.00
C299   C     0.87297   0.09539   0.91154   0.00000  Uiso   1.00
H300   H     0.91102   0.00799   0.61996   0.00000  Uiso   1.00
H301   H     0.94394   0.13856   0.52006   0.00000  Uiso   1.00
H302   H     0.83095   0.88053   0.56654   0.00000  Uiso   1.00
H303   H     0.97364   0.99149   0.76340   0.00000  Uiso   1.00
H304   H     0.95600   0.30436   0.42486   0.00000  Uiso   1.00
H305   H     0.71777   0.76026   0.52289   0.00000  Uiso   1.00
H306   H     0.01865   0.99423   0.93800   0.00000  Uiso   1.00
H307   H     0.72290   0.17014   0.73999   0.00000  Uiso   1.00
H308   H     0.74549   0.30962   0.64667   0.00000  Uiso   1.00
H309   H     0.63250   0.05158   0.69315   0.00000  Uiso   1.00
H310   H     0.77519   0.16254   0.89000   0.00000  Uiso   1.00
H311   H     0.79493   0.44320   0.52762   0.00000  Uiso   1.00
H312   H     0.55669   0.89909   0.62565   0.00000  Uiso   1.00
H313   H     0.85758   0.13306   0.04076   0.00000  Uiso   1.00
O314   O     0.89371   0.46259   0.41267   0.00000  Uiso   1.00
O315   O     0.58116   0.74874   0.54130   0.00000  Uiso   1.00
O316   O     0.97591   0.05571   0.08590   0.00000  Uiso   1.00
N317   N     0.91500   0.31790   0.46186   0.00000  Uiso   1.00
N318   N     0.69226   0.80920   0.55350   0.00000  Uiso   1.00
N319   N     0.97356   0.02793   0.94160   0.00000  Uiso   1.00
N320   N     0.82833   0.39261   0.51716   0.00000  Uiso   1.00
N321   N     0.60559   0.88391   0.60880   0.00000  Uiso   1.00
N322   N     0.88689   0.10263   0.99689   0.00000  Uiso   1.00
C323   C     0.13043   0.28687   0.29470   0.00000  Uiso   1.00
C324   C     0.14347   0.38020   0.33051   0.00000  Uiso   1.00
C325   C     0.10439   0.42178   0.39256   0.00000  Uiso   1.00
C326   C     0.12476   0.50726   0.41673   0.00000  Uiso   1.00
C327   C     0.13630   0.64572   0.47793   0.00000  Uiso   1.00
C328   C     0.19764   0.23471   0.30742   0.00000  Uiso   1.00
C329   C     0.20411   0.15396   0.35006   0.00000  Uiso   1.00
C330   C     0.27008   0.11697   0.35479   0.00000  Uiso   1.00
C331   C     0.36572   0.02952   0.38009   0.00000  Uiso   1.00
C332   C     0.12258   0.29906   0.19996   0.00000  Uiso   1.00
C333   C     0.06595   0.27240   0.15224   0.00000  Uiso   1.00
C334   C     0.06873   0.28956   0.06648   0.00000  Uiso   1.00
C335   C     0.04782   0.30202   0.92494   0.00000  Uiso   1.00
C336   C     0.23608   0.36474   0.22726   0.00000  Uiso   1.00
C337   C     0.20085   0.42249   0.29387   0.00000  Uiso   1.00
C338   C     0.22128   0.50793   0.31795   0.00000  Uiso   1.00
C339   C     0.18225   0.54963   0.38003   0.00000  Uiso   1.00
C340   C     0.25503   0.27700   0.27079   0.00000  Uiso   1.00
C341   C     0.32100   0.24011   0.27545   0.00000  Uiso   1.00
C342   C     0.32757   0.15933   0.31809   0.00000  Uiso   1.00
C343   C     0.17996   0.34136   0.16333   0.00000  Uiso   1.00
C344   C     0.18284   0.35855   0.07762   0.00000  Uiso   1.00
C345   C     0.12622   0.33192   0.02978   0.00000  Uiso   1.00
H346   H     0.08576   0.25394   0.32322   0.00000  Uiso   1.00
H347   H     0.05999   0.38903   0.42091   0.00000  Uiso   1.00
H348   H     0.15969   0.12125   0.37840   0.00000  Uiso   1.00
H349   H     0.02155   0.23967   0.18061   0.00000  Uiso   1.00
H350   H     0.05675   0.55743   0.51307   0.00000  Uiso   1.00
H351   H     0.26697   0.99279   0.42342   0.00000  Uiso   1.00
H352   H     0.97567   0.24250   0.00634   0.00000  Uiso   1.00
H353   H     0.28076   0.39766   0.19873   0.00000  Uiso   1.00
H354   H     0.26569   0.54064   0.28959   0.00000  Uiso   1.00
H355   H     0.36540   0.27286   0.24709   0.00000  Uiso   1.00
H356   H     0.22725   0.39128   0.04930   0.00000  Uiso   1.00
H357   H     0.22371   0.68048   0.40649   0.00000  Uiso   1.00
H358   H     0.43393   0.11584   0.31684   0.00000  Uiso   1.00
H359   H     0.14263   0.36555   0.89976   0.00000  Uiso   1.00
O360   O     0.12682   0.71040   0.52181   0.00000  Uiso   1.00
O361   O     0.40262   0.96961   0.40419   0.00000  Uiso   1.00
O362   O     0.02043   0.29723   0.85699   0.00000  Uiso   1.00
N363   N     0.09810   0.56678   0.47551   0.00000  Uiso   1.00
N364   N     0.29465   0.03888   0.39170   0.00000  Uiso   1.00
N365   N     0.02231   0.27231   0.00176   0.00000  Uiso   1.00
N366   N     0.18794   0.63299   0.41816   0.00000  Uiso   1.00
N367   N     0.38449   0.10509   0.33436   0.00000  Uiso   1.00
N368   N     0.11215   0.33853   0.94441   0.00000  Uiso   1.00
