data_job_05290
_audit_creation_date              2018-12-19
_audit_creation_method            'Materials Studio'
_symmetry_space_group_name_H-M    'P1'
_symmetry_Int_Tables_number       1
_symmetry_cell_setting            triclinic
loop_
_symmetry_equiv_pos_as_xyz
  x,y,z
_cell_length_a                    7.2280
_cell_length_b                    19.7235
_cell_length_c                    15.4551
_cell_angle_alpha                 90.0000
_cell_angle_beta                  90.0000
_cell_angle_gamma                 90.0000
loop_
_atom_site_label
_atom_site_type_symbol
_atom_site_fract_x
_atom_site_fract_y
_atom_site_fract_z
_atom_site_U_iso_or_equiv
_atom_site_adp_type
_atom_site_occupancy
C1     C     0.18777   0.02555   0.75005   0.00000  Uiso   1.00
C2     C     0.13855   0.06842   0.67123   0.00000  Uiso   1.00
C3     C     0.25865   0.08623   0.60496   0.00000  Uiso   1.00
C4     C     0.18695   0.12575   0.53861   0.00000  Uiso   1.00
C5     C     0.13872   0.18915   0.41624   0.00000  Uiso   1.00
C6     C     0.13853   0.06843   0.82886   0.00000  Uiso   1.00
C7     C     0.25861   0.08625   0.89514   0.00000  Uiso   1.00
C8     C     0.18688   0.12576   0.96149   0.00000  Uiso   1.00
C9     C     0.13859   0.18915   0.08388   0.00000  Uiso   1.00
C10    C     0.05261   0.96619   0.75007   0.00000  Uiso   1.00
C11    C     0.10044   0.89804   0.75011   0.00000  Uiso   1.00
C12    C     0.95637   0.85148   0.75014   0.00000  Uiso   1.00
C13    C     0.77467   0.75612   0.75019   0.00000  Uiso   1.00
C14    C     0.84686   0.06403   0.75004   0.00000  Uiso   1.00
C15    C     0.95338   0.08932   0.67123   0.00000  Uiso   1.00
C16    C     0.88148   0.12881   0.60495   0.00000  Uiso   1.00
C17    C     0.00145   0.14669   0.53860   0.00000  Uiso   1.00
C18    C     0.95337   0.08933   0.82886   0.00000  Uiso   1.00
C19    C     0.88144   0.12882   0.89513   0.00000  Uiso   1.00
C20    C     0.00138   0.14671   0.96149   0.00000  Uiso   1.00
C21    C     0.86744   0.98709   0.75006   0.00000  Uiso   1.00
C22    C     0.72327   0.94062   0.75010   0.00000  Uiso   1.00
C23    C     0.77087   0.87242   0.75014   0.00000  Uiso   1.00
H24    H     0.33192   0.00928   0.75006   0.00000  Uiso   1.00
H25    H     0.40194   0.07005   0.60500   0.00000  Uiso   1.00
H26    H     0.40189   0.07006   0.89513   0.00000  Uiso   1.00
H27    H     0.24374   0.88189   0.75012   0.00000  Uiso   1.00
H28    H     0.39792   0.14667   0.44418   0.00000  Uiso   1.00
H29    H     0.39781   0.14667   0.05596   0.00000  Uiso   1.00
H30    H     0.06433   0.74986   0.75018   0.00000  Uiso   1.00
H31    H     0.70269   0.08031   0.75004   0.00000  Uiso   1.00
H32    H     0.73818   0.14498   0.60497   0.00000  Uiso   1.00
H33    H     0.73814   0.14499   0.89511   0.00000  Uiso   1.00
H34    H     0.57999   0.95681   0.75009   0.00000  Uiso   1.00
H35    H     0.85919   0.20749   0.44416   0.00000  Uiso   1.00
H36    H     0.85908   0.20748   0.05594   0.00000  Uiso   1.00
H37    H     0.52560   0.81068   0.75015   0.00000  Uiso   1.00
O38    O     0.16327   0.21836   0.34875   0.00000  Uiso   1.00
O39    O     0.16311   0.21834   0.15139   0.00000  Uiso   1.00
O40    O     0.72560   0.69775   0.75020   0.00000  Uiso   1.00
N41    N     0.26625   0.15210   0.46407   0.00000  Uiso   1.00
N42    N     0.26616   0.15210   0.03604   0.00000  Uiso   1.00
N43    N     0.95438   0.78113   0.75019   0.00000  Uiso   1.00
N44    N     0.97637   0.18482   0.46406   0.00000  Uiso   1.00
N45    N     0.97627   0.18483   0.03603   0.00000  Uiso   1.00
N46    N     0.66449   0.81385   0.75017   0.00000  Uiso   1.00
C47    C     0.31223   0.97445   0.25005   0.00000  Uiso   1.00
C48    C     0.36145   0.93158   0.17123   0.00000  Uiso   1.00
C49    C     0.24135   0.91377   0.10496   0.00000  Uiso   1.00
C50    C     0.31305   0.87425   0.03861   0.00000  Uiso   1.00
C51    C     0.36128   0.81085   0.91624   0.00000  Uiso   1.00
C52    C     0.36147   0.93157   0.32886   0.00000  Uiso   1.00
C53    C     0.24139   0.91375   0.39514   0.00000  Uiso   1.00
C54    C     0.31312   0.87424   0.46149   0.00000  Uiso   1.00
C55    C     0.36141   0.81085   0.58388   0.00000  Uiso   1.00
C56    C     0.44739   0.03381   0.25007   0.00000  Uiso   1.00
C57    C     0.39956   0.10196   0.25011   0.00000  Uiso   1.00
C58    C     0.54363   0.14852   0.25014   0.00000  Uiso   1.00
C59    C     0.72533   0.24388   0.25019   0.00000  Uiso   1.00
C60    C     0.65314   0.93597   0.25004   0.00000  Uiso   1.00
C61    C     0.54662   0.91068   0.17123   0.00000  Uiso   1.00
C62    C     0.61852   0.87119   0.10495   0.00000  Uiso   1.00
C63    C     0.49855   0.85331   0.03860   0.00000  Uiso   1.00
C64    C     0.54663   0.91067   0.32886   0.00000  Uiso   1.00
C65    C     0.61856   0.87118   0.39513   0.00000  Uiso   1.00
C66    C     0.49862   0.85329   0.46149   0.00000  Uiso   1.00
C67    C     0.63256   0.01291   0.25006   0.00000  Uiso   1.00
C68    C     0.77673   0.05938   0.25010   0.00000  Uiso   1.00
C69    C     0.72913   0.12758   0.25014   0.00000  Uiso   1.00
H70    H     0.16808   0.99072   0.25006   0.00000  Uiso   1.00
H71    H     0.09806   0.92995   0.10500   0.00000  Uiso   1.00
H72    H     0.09811   0.92994   0.39513   0.00000  Uiso   1.00
H73    H     0.25626   0.11811   0.25012   0.00000  Uiso   1.00
H74    H     0.10208   0.85333   0.94418   0.00000  Uiso   1.00
H75    H     0.10219   0.85333   0.55596   0.00000  Uiso   1.00
H76    H     0.43567   0.25014   0.25018   0.00000  Uiso   1.00
H77    H     0.79731   0.91969   0.25004   0.00000  Uiso   1.00
H78    H     0.76182   0.85502   0.10497   0.00000  Uiso   1.00
H79    H     0.76186   0.85501   0.39511   0.00000  Uiso   1.00
H80    H     0.92001   0.04319   0.25009   0.00000  Uiso   1.00
H81    H     0.64081   0.79251   0.94416   0.00000  Uiso   1.00
H82    H     0.64092   0.79252   0.55594   0.00000  Uiso   1.00
H83    H     0.97440   0.18932   0.25015   0.00000  Uiso   1.00
O84    O     0.33673   0.78164   0.84875   0.00000  Uiso   1.00
O85    O     0.33689   0.78166   0.65139   0.00000  Uiso   1.00
O86    O     0.77440   0.30225   0.25020   0.00000  Uiso   1.00
N87    N     0.23375   0.84790   0.96407   0.00000  Uiso   1.00
N88    N     0.23384   0.84790   0.53604   0.00000  Uiso   1.00
N89    N     0.54562   0.21887   0.25019   0.00000  Uiso   1.00
N90    N     0.52363   0.81518   0.96406   0.00000  Uiso   1.00
N91    N     0.52373   0.81517   0.53603   0.00000  Uiso   1.00
N92    N     0.83551   0.18615   0.25017   0.00000  Uiso   1.00
C93    C     0.81223   0.52555   0.74995   0.00000  Uiso   1.00
C94    C     0.86145   0.56842   0.82877   0.00000  Uiso   1.00
C95    C     0.74135   0.58623   0.89504   0.00000  Uiso   1.00
C96    C     0.81305   0.62575   0.96139   0.00000  Uiso   1.00
C97    C     0.86128   0.68915   0.08376   0.00000  Uiso   1.00
C98    C     0.86147   0.56843   0.67114   0.00000  Uiso   1.00
C99    C     0.74139   0.58625   0.60486   0.00000  Uiso   1.00
C100   C     0.81312   0.62576   0.53851   0.00000  Uiso   1.00
C101   C     0.86141   0.68915   0.41612   0.00000  Uiso   1.00
C102   C     0.94739   0.46619   0.74993   0.00000  Uiso   1.00
C103   C     0.89956   0.39804   0.74989   0.00000  Uiso   1.00
C104   C     0.04363   0.35148   0.74986   0.00000  Uiso   1.00
C105   C     0.22533   0.25612   0.74981   0.00000  Uiso   1.00
C106   C     0.15314   0.56403   0.74996   0.00000  Uiso   1.00
C107   C     0.04662   0.58932   0.82877   0.00000  Uiso   1.00
C108   C     0.11852   0.62881   0.89505   0.00000  Uiso   1.00
C109   C     0.99855   0.64669   0.96140   0.00000  Uiso   1.00
C110   C     0.04663   0.58933   0.67114   0.00000  Uiso   1.00
C111   C     0.11856   0.62882   0.60487   0.00000  Uiso   1.00
C112   C     0.99862   0.64671   0.53851   0.00000  Uiso   1.00
C113   C     0.13256   0.48709   0.74994   0.00000  Uiso   1.00
C114   C     0.27673   0.44062   0.74990   0.00000  Uiso   1.00
C115   C     0.22913   0.37242   0.74986   0.00000  Uiso   1.00
H116   H     0.66808   0.50928   0.74994   0.00000  Uiso   1.00
H117   H     0.59806   0.57005   0.89500   0.00000  Uiso   1.00
H118   H     0.59811   0.57006   0.60487   0.00000  Uiso   1.00
H119   H     0.75626   0.38189   0.74988   0.00000  Uiso   1.00
H120   H     0.60208   0.64667   0.05582   0.00000  Uiso   1.00
H121   H     0.60219   0.64667   0.44404   0.00000  Uiso   1.00
H122   H     0.93567   0.24986   0.74982   0.00000  Uiso   1.00
H123   H     0.29731   0.58031   0.74996   0.00000  Uiso   1.00
H124   H     0.26182   0.64498   0.89503   0.00000  Uiso   1.00
H125   H     0.26186   0.64499   0.60489   0.00000  Uiso   1.00
H126   H     0.42001   0.45681   0.74991   0.00000  Uiso   1.00
H127   H     0.14081   0.70749   0.05584   0.00000  Uiso   1.00
H128   H     0.14092   0.70748   0.44406   0.00000  Uiso   1.00
H129   H     0.47440   0.31068   0.74985   0.00000  Uiso   1.00
O130   O     0.83673   0.71836   0.15125   0.00000  Uiso   1.00
O131   O     0.83689   0.71834   0.34861   0.00000  Uiso   1.00
O132   O     0.27440   0.19775   0.74980   0.00000  Uiso   1.00
N133   N     0.73375   0.65210   0.03593   0.00000  Uiso   1.00
N134   N     0.73384   0.65210   0.46396   0.00000  Uiso   1.00
N135   N     0.04562   0.28113   0.74981   0.00000  Uiso   1.00
N136   N     0.02363   0.68482   0.03594   0.00000  Uiso   1.00
N137   N     0.02373   0.68483   0.46397   0.00000  Uiso   1.00
N138   N     0.33551   0.31385   0.74983   0.00000  Uiso   1.00
C139   C     0.68777   0.47445   0.24995   0.00000  Uiso   1.00
C140   C     0.63855   0.43158   0.32877   0.00000  Uiso   1.00
C141   C     0.75865   0.41377   0.39504   0.00000  Uiso   1.00
C142   C     0.68695   0.37425   0.46139   0.00000  Uiso   1.00
C143   C     0.63872   0.31085   0.58376   0.00000  Uiso   1.00
C144   C     0.63853   0.43157   0.17114   0.00000  Uiso   1.00
C145   C     0.75861   0.41375   0.10486   0.00000  Uiso   1.00
C146   C     0.68688   0.37424   0.03851   0.00000  Uiso   1.00
C147   C     0.63859   0.31085   0.91612   0.00000  Uiso   1.00
C148   C     0.55261   0.53381   0.24993   0.00000  Uiso   1.00
C149   C     0.60044   0.60196   0.24989   0.00000  Uiso   1.00
C150   C     0.45637   0.64852   0.24986   0.00000  Uiso   1.00
C151   C     0.27467   0.74388   0.24981   0.00000  Uiso   1.00
C152   C     0.34686   0.43597   0.24996   0.00000  Uiso   1.00
C153   C     0.45338   0.41068   0.32877   0.00000  Uiso   1.00
C154   C     0.38148   0.37119   0.39505   0.00000  Uiso   1.00
C155   C     0.50145   0.35331   0.46140   0.00000  Uiso   1.00
C156   C     0.45337   0.41067   0.17114   0.00000  Uiso   1.00
C157   C     0.38144   0.37118   0.10487   0.00000  Uiso   1.00
C158   C     0.50138   0.35329   0.03851   0.00000  Uiso   1.00
C159   C     0.36744   0.51291   0.24994   0.00000  Uiso   1.00
C160   C     0.22327   0.55938   0.24990   0.00000  Uiso   1.00
C161   C     0.27087   0.62758   0.24986   0.00000  Uiso   1.00
H162   H     0.83192   0.49072   0.24994   0.00000  Uiso   1.00
H163   H     0.90194   0.42995   0.39500   0.00000  Uiso   1.00
H164   H     0.90189   0.42994   0.10487   0.00000  Uiso   1.00
H165   H     0.74374   0.61811   0.24988   0.00000  Uiso   1.00
H166   H     0.89792   0.35333   0.55582   0.00000  Uiso   1.00
H167   H     0.89781   0.35333   0.94404   0.00000  Uiso   1.00
H168   H     0.56433   0.75014   0.24982   0.00000  Uiso   1.00
H169   H     0.20269   0.41969   0.24996   0.00000  Uiso   1.00
H170   H     0.23818   0.35502   0.39503   0.00000  Uiso   1.00
H171   H     0.23814   0.35501   0.10489   0.00000  Uiso   1.00
H172   H     0.07999   0.54319   0.24991   0.00000  Uiso   1.00
H173   H     0.35919   0.29251   0.55584   0.00000  Uiso   1.00
H174   H     0.35908   0.29252   0.94406   0.00000  Uiso   1.00
H175   H     0.02560   0.68932   0.24985   0.00000  Uiso   1.00
O176   O     0.66327   0.28164   0.65125   0.00000  Uiso   1.00
O177   O     0.66311   0.28166   0.84861   0.00000  Uiso   1.00
O178   O     0.22560   0.80225   0.24980   0.00000  Uiso   1.00
N179   N     0.76625   0.34790   0.53593   0.00000  Uiso   1.00
N180   N     0.76616   0.34790   0.96396   0.00000  Uiso   1.00
N181   N     0.45438   0.71887   0.24981   0.00000  Uiso   1.00
N182   N     0.47637   0.31518   0.53594   0.00000  Uiso   1.00
N183   N     0.47627   0.31517   0.96397   0.00000  Uiso   1.00
N184   N     0.16449   0.68615   0.24983   0.00000  Uiso   1.00
