data_job_05759
_audit_creation_date              2018-12-19
_audit_creation_method            'Materials Studio'
_symmetry_space_group_name_H-M    'P1'
_symmetry_Int_Tables_number       1
_symmetry_cell_setting            triclinic
loop_
_symmetry_equiv_pos_as_xyz
  x,y,z
_cell_length_a                    40.8660
_cell_length_b                    11.5147
_cell_length_c                    14.2485
_cell_angle_alpha                 90.0000
_cell_angle_beta                  90.0000
_cell_angle_gamma                 90.0000
loop_
_atom_site_label
_atom_site_type_symbol
_atom_site_fract_x
_atom_site_fract_y
_atom_site_fract_z
_atom_site_U_iso_or_equiv
_atom_site_adp_type
_atom_site_occupancy
C1     C     0.65506   0.17760   0.00347   0.00000  Uiso   1.00
C2     C     0.67822   0.07398   0.00914   0.00000  Uiso   1.00
C3     C     0.69337   0.02033   0.93353   0.00000  Uiso   1.00
C4     C     0.71367   0.92681   0.95337   0.00000  Uiso   1.00
C5     C     0.74886   0.77172   0.94815   0.00000  Uiso   1.00
C6     C     0.62343   0.13931   0.05109   0.00000  Uiso   1.00
C7     C     0.59252   0.14061   0.01074   0.00000  Uiso   1.00
C8     C     0.56670   0.10210   0.06590   0.00000  Uiso   1.00
C9     C     0.51684   0.04853   0.12583   0.00000  Uiso   1.00
C10    C     0.66977   0.27105   0.06648   0.00000  Uiso   1.00
C11    C     0.67782   0.38313   0.03908   0.00000  Uiso   1.00
C12    C     0.69100   0.45555   0.10720   0.00000  Uiso   1.00
C13    C     0.71308   0.60652   0.19102   0.00000  Uiso   1.00
C14    C     0.66416   0.10692   0.17318   0.00000  Uiso   1.00
C15    C     0.68316   0.03559   0.10132   0.00000  Uiso   1.00
C16    C     0.70344   0.94213   0.12128   0.00000  Uiso   1.00
C17    C     0.71862   0.88835   0.04571   0.00000  Uiso   1.00
C18    C     0.62838   0.10092   0.14326   0.00000  Uiso   1.00
C19    C     0.60260   0.06241   0.19850   0.00000  Uiso   1.00
C20    C     0.57166   0.06364   0.15825   0.00000  Uiso   1.00
C21    C     0.67472   0.23266   0.15865   0.00000  Uiso   1.00
C22    C     0.68789   0.30492   0.22683   0.00000  Uiso   1.00
C23    C     0.69596   0.41709   0.19954   0.00000  Uiso   1.00
H24    H     0.65121   0.20749   0.93171   0.00000  Uiso   1.00
H25    H     0.68954   0.05006   0.86220   0.00000  Uiso   1.00
H26    H     0.58871   0.17034   0.93941   0.00000  Uiso   1.00
H27    H     0.67399   0.41281   0.96774   0.00000  Uiso   1.00
H28    H     0.73420   0.85857   0.82579   0.00000  Uiso   1.00
H29    H     0.52159   0.11221   0.98860   0.00000  Uiso   1.00
H30    H     0.70142   0.62353   0.04834   0.00000  Uiso   1.00
H31    H     0.66801   0.07702   0.24494   0.00000  Uiso   1.00
H32    H     0.70726   0.91243   0.19262   0.00000  Uiso   1.00
H33    H     0.60643   0.03271   0.26983   0.00000  Uiso   1.00
H34    H     0.69171   0.27518   0.29816   0.00000  Uiso   1.00
H35    H     0.74858   0.74686   0.09397   0.00000  Uiso   1.00
H36    H     0.53597   0.00051   0.25678   0.00000  Uiso   1.00
H37    H     0.71581   0.51182   0.31652   0.00000  Uiso   1.00
O38    O     0.76690   0.69677   0.91981   0.00000  Uiso   1.00
O39    O     0.48796   0.02957   0.13341   0.00000  Uiso   1.00
O40    O     0.72390   0.70039   0.21178   0.00000  Uiso   1.00
N41    N     0.73220   0.85488   0.89609   0.00000  Uiso   1.00
N42    N     0.53343   0.09201   0.04830   0.00000  Uiso   1.00
N43    N     0.70155   0.57005   0.10415   0.00000  Uiso   1.00
N44    N     0.73994   0.79477   0.04039   0.00000  Uiso   1.00
N45    N     0.54117   0.03190   0.19261   0.00000  Uiso   1.00
N46    N     0.70929   0.50994   0.24846   0.00000  Uiso   1.00
C47    C     0.84494   0.82240   0.00347   0.00000  Uiso   1.00
C48    C     0.82178   0.92602   0.00914   0.00000  Uiso   1.00
C49    C     0.80663   0.97967   0.93353   0.00000  Uiso   1.00
C50    C     0.78633   0.07319   0.95337   0.00000  Uiso   1.00
C51    C     0.75114   0.22828   0.94815   0.00000  Uiso   1.00
C52    C     0.87657   0.86069   0.05109   0.00000  Uiso   1.00
C53    C     0.90748   0.85939   0.01074   0.00000  Uiso   1.00
C54    C     0.93330   0.89790   0.06590   0.00000  Uiso   1.00
C55    C     0.98316   0.95147   0.12583   0.00000  Uiso   1.00
C56    C     0.83023   0.72895   0.06648   0.00000  Uiso   1.00
C57    C     0.82218   0.61687   0.03908   0.00000  Uiso   1.00
C58    C     0.80900   0.54445   0.10720   0.00000  Uiso   1.00
C59    C     0.78692   0.39348   0.19102   0.00000  Uiso   1.00
C60    C     0.83584   0.89308   0.17318   0.00000  Uiso   1.00
C61    C     0.81684   0.96441   0.10132   0.00000  Uiso   1.00
C62    C     0.79656   0.05787   0.12128   0.00000  Uiso   1.00
C63    C     0.78138   0.11165   0.04571   0.00000  Uiso   1.00
C64    C     0.87162   0.89908   0.14326   0.00000  Uiso   1.00
C65    C     0.89740   0.93759   0.19850   0.00000  Uiso   1.00
C66    C     0.92834   0.93636   0.15825   0.00000  Uiso   1.00
C67    C     0.82528   0.76734   0.15865   0.00000  Uiso   1.00
C68    C     0.81211   0.69508   0.22683   0.00000  Uiso   1.00
C69    C     0.80404   0.58291   0.19954   0.00000  Uiso   1.00
H70    H     0.84879   0.79251   0.93171   0.00000  Uiso   1.00
H71    H     0.81046   0.94994   0.86220   0.00000  Uiso   1.00
H72    H     0.91129   0.82966   0.93941   0.00000  Uiso   1.00
H73    H     0.82601   0.58719   0.96774   0.00000  Uiso   1.00
H74    H     0.76580   0.14143   0.82579   0.00000  Uiso   1.00
H75    H     0.97841   0.88779   0.98860   0.00000  Uiso   1.00
H76    H     0.79858   0.37647   0.04834   0.00000  Uiso   1.00
H77    H     0.83199   0.92298   0.24494   0.00000  Uiso   1.00
H78    H     0.79274   0.08757   0.19262   0.00000  Uiso   1.00
H79    H     0.89357   0.96729   0.26983   0.00000  Uiso   1.00
H80    H     0.80829   0.72482   0.29816   0.00000  Uiso   1.00
H81    H     0.75142   0.25314   0.09397   0.00000  Uiso   1.00
H82    H     0.96403   0.99949   0.25678   0.00000  Uiso   1.00
H83    H     0.78419   0.48818   0.31652   0.00000  Uiso   1.00
O84    O     0.73310   0.30323   0.91981   0.00000  Uiso   1.00
O85    O     0.01204   0.97043   0.13341   0.00000  Uiso   1.00
O86    O     0.77610   0.29961   0.21178   0.00000  Uiso   1.00
N87    N     0.76780   0.14512   0.89609   0.00000  Uiso   1.00
N88    N     0.96657   0.90799   0.04830   0.00000  Uiso   1.00
N89    N     0.79845   0.42995   0.10415   0.00000  Uiso   1.00
N90    N     0.76006   0.20523   0.04039   0.00000  Uiso   1.00
N91    N     0.95883   0.96810   0.19261   0.00000  Uiso   1.00
N92    N     0.79071   0.49006   0.24846   0.00000  Uiso   1.00
C93    C     0.34494   0.17760   0.49653   0.00000  Uiso   1.00
C94    C     0.32178   0.07398   0.49086   0.00000  Uiso   1.00
C95    C     0.30663   0.02033   0.56647   0.00000  Uiso   1.00
C96    C     0.28633   0.92681   0.54663   0.00000  Uiso   1.00
C97    C     0.25114   0.77172   0.55185   0.00000  Uiso   1.00
C98    C     0.37657   0.13931   0.44891   0.00000  Uiso   1.00
C99    C     0.40748   0.14061   0.48926   0.00000  Uiso   1.00
C100   C     0.43330   0.10210   0.43410   0.00000  Uiso   1.00
C101   C     0.48316   0.04853   0.37417   0.00000  Uiso   1.00
C102   C     0.33023   0.27105   0.43352   0.00000  Uiso   1.00
C103   C     0.32218   0.38313   0.46092   0.00000  Uiso   1.00
C104   C     0.30900   0.45555   0.39280   0.00000  Uiso   1.00
C105   C     0.28692   0.60652   0.30898   0.00000  Uiso   1.00
C106   C     0.33584   0.10692   0.32682   0.00000  Uiso   1.00
C107   C     0.31684   0.03559   0.39868   0.00000  Uiso   1.00
C108   C     0.29656   0.94213   0.37872   0.00000  Uiso   1.00
C109   C     0.28138   0.88835   0.45429   0.00000  Uiso   1.00
C110   C     0.37162   0.10092   0.35674   0.00000  Uiso   1.00
C111   C     0.39740   0.06241   0.30150   0.00000  Uiso   1.00
C112   C     0.42834   0.06364   0.34175   0.00000  Uiso   1.00
C113   C     0.32528   0.23266   0.34135   0.00000  Uiso   1.00
C114   C     0.31211   0.30492   0.27317   0.00000  Uiso   1.00
C115   C     0.30404   0.41709   0.30046   0.00000  Uiso   1.00
H116   H     0.34879   0.20749   0.56829   0.00000  Uiso   1.00
H117   H     0.31046   0.05006   0.63780   0.00000  Uiso   1.00
H118   H     0.41129   0.17034   0.56059   0.00000  Uiso   1.00
H119   H     0.32601   0.41281   0.53226   0.00000  Uiso   1.00
H120   H     0.26580   0.85857   0.67421   0.00000  Uiso   1.00
H121   H     0.47841   0.11221   0.51140   0.00000  Uiso   1.00
H122   H     0.29858   0.62353   0.45166   0.00000  Uiso   1.00
H123   H     0.33199   0.07702   0.25506   0.00000  Uiso   1.00
H124   H     0.29274   0.91243   0.30738   0.00000  Uiso   1.00
H125   H     0.39357   0.03271   0.23017   0.00000  Uiso   1.00
H126   H     0.30829   0.27518   0.20184   0.00000  Uiso   1.00
H127   H     0.25142   0.74686   0.40603   0.00000  Uiso   1.00
H128   H     0.46403   0.00051   0.24322   0.00000  Uiso   1.00
H129   H     0.28419   0.51182   0.18348   0.00000  Uiso   1.00
O130   O     0.23310   0.69677   0.58019   0.00000  Uiso   1.00
O131   O     0.51204   0.02957   0.36659   0.00000  Uiso   1.00
O132   O     0.27610   0.70039   0.28822   0.00000  Uiso   1.00
N133   N     0.26780   0.85488   0.60391   0.00000  Uiso   1.00
N134   N     0.46657   0.09201   0.45170   0.00000  Uiso   1.00
N135   N     0.29845   0.57005   0.39585   0.00000  Uiso   1.00
N136   N     0.26006   0.79477   0.45961   0.00000  Uiso   1.00
N137   N     0.45883   0.03190   0.30739   0.00000  Uiso   1.00
N138   N     0.29071   0.50994   0.25154   0.00000  Uiso   1.00
C139   C     0.15506   0.82240   0.49653   0.00000  Uiso   1.00
C140   C     0.17822   0.92602   0.49086   0.00000  Uiso   1.00
C141   C     0.19337   0.97967   0.56647   0.00000  Uiso   1.00
C142   C     0.21367   0.07319   0.54663   0.00000  Uiso   1.00
C143   C     0.24886   0.22828   0.55185   0.00000  Uiso   1.00
C144   C     0.12343   0.86069   0.44891   0.00000  Uiso   1.00
C145   C     0.09252   0.85939   0.48926   0.00000  Uiso   1.00
C146   C     0.06670   0.89790   0.43410   0.00000  Uiso   1.00
C147   C     0.01684   0.95147   0.37417   0.00000  Uiso   1.00
C148   C     0.16977   0.72895   0.43352   0.00000  Uiso   1.00
C149   C     0.17782   0.61687   0.46092   0.00000  Uiso   1.00
C150   C     0.19100   0.54445   0.39280   0.00000  Uiso   1.00
C151   C     0.21308   0.39348   0.30898   0.00000  Uiso   1.00
C152   C     0.16416   0.89308   0.32682   0.00000  Uiso   1.00
C153   C     0.18316   0.96441   0.39868   0.00000  Uiso   1.00
C154   C     0.20344   0.05787   0.37872   0.00000  Uiso   1.00
C155   C     0.21862   0.11165   0.45429   0.00000  Uiso   1.00
C156   C     0.12838   0.89908   0.35674   0.00000  Uiso   1.00
C157   C     0.10260   0.93759   0.30150   0.00000  Uiso   1.00
C158   C     0.07166   0.93636   0.34175   0.00000  Uiso   1.00
C159   C     0.17472   0.76734   0.34135   0.00000  Uiso   1.00
C160   C     0.18789   0.69508   0.27317   0.00000  Uiso   1.00
C161   C     0.19596   0.58291   0.30046   0.00000  Uiso   1.00
H162   H     0.15121   0.79251   0.56829   0.00000  Uiso   1.00
H163   H     0.18954   0.94994   0.63780   0.00000  Uiso   1.00
H164   H     0.08871   0.82966   0.56059   0.00000  Uiso   1.00
H165   H     0.17399   0.58719   0.53226   0.00000  Uiso   1.00
H166   H     0.23420   0.14143   0.67421   0.00000  Uiso   1.00
H167   H     0.02159   0.88779   0.51140   0.00000  Uiso   1.00
H168   H     0.20142   0.37647   0.45166   0.00000  Uiso   1.00
H169   H     0.16801   0.92298   0.25506   0.00000  Uiso   1.00
H170   H     0.20726   0.08757   0.30738   0.00000  Uiso   1.00
H171   H     0.10643   0.96729   0.23017   0.00000  Uiso   1.00
H172   H     0.19171   0.72482   0.20184   0.00000  Uiso   1.00
H173   H     0.24858   0.25314   0.40603   0.00000  Uiso   1.00
H174   H     0.03597   0.99949   0.24322   0.00000  Uiso   1.00
H175   H     0.21581   0.48818   0.18348   0.00000  Uiso   1.00
O176   O     0.26690   0.30323   0.58019   0.00000  Uiso   1.00
O177   O     0.98796   0.97043   0.36659   0.00000  Uiso   1.00
O178   O     0.22390   0.29961   0.28822   0.00000  Uiso   1.00
N179   N     0.23220   0.14512   0.60391   0.00000  Uiso   1.00
N180   N     0.03343   0.90799   0.45170   0.00000  Uiso   1.00
N181   N     0.20155   0.42995   0.39585   0.00000  Uiso   1.00
N182   N     0.23994   0.20523   0.45961   0.00000  Uiso   1.00
N183   N     0.04117   0.96810   0.30739   0.00000  Uiso   1.00
N184   N     0.20929   0.49006   0.25154   0.00000  Uiso   1.00
C185   C     0.34494   0.82240   0.99653   0.00000  Uiso   1.00
C186   C     0.32178   0.92602   0.99086   0.00000  Uiso   1.00
C187   C     0.30663   0.97967   0.06647   0.00000  Uiso   1.00
C188   C     0.28633   0.07319   0.04663   0.00000  Uiso   1.00
C189   C     0.25114   0.22828   0.05185   0.00000  Uiso   1.00
C190   C     0.37657   0.86069   0.94891   0.00000  Uiso   1.00
C191   C     0.40748   0.85939   0.98926   0.00000  Uiso   1.00
C192   C     0.43330   0.89790   0.93410   0.00000  Uiso   1.00
C193   C     0.48316   0.95147   0.87417   0.00000  Uiso   1.00
C194   C     0.33023   0.72895   0.93352   0.00000  Uiso   1.00
C195   C     0.32218   0.61687   0.96092   0.00000  Uiso   1.00
C196   C     0.30900   0.54445   0.89280   0.00000  Uiso   1.00
C197   C     0.28692   0.39348   0.80898   0.00000  Uiso   1.00
C198   C     0.33584   0.89308   0.82682   0.00000  Uiso   1.00
C199   C     0.31684   0.96441   0.89868   0.00000  Uiso   1.00
C200   C     0.29656   0.05787   0.87872   0.00000  Uiso   1.00
C201   C     0.28138   0.11165   0.95429   0.00000  Uiso   1.00
C202   C     0.37162   0.89908   0.85674   0.00000  Uiso   1.00
C203   C     0.39740   0.93759   0.80150   0.00000  Uiso   1.00
C204   C     0.42834   0.93636   0.84175   0.00000  Uiso   1.00
C205   C     0.32528   0.76734   0.84135   0.00000  Uiso   1.00
C206   C     0.31211   0.69508   0.77317   0.00000  Uiso   1.00
C207   C     0.30404   0.58291   0.80046   0.00000  Uiso   1.00
H208   H     0.34879   0.79251   0.06829   0.00000  Uiso   1.00
H209   H     0.31046   0.94994   0.13780   0.00000  Uiso   1.00
H210   H     0.41129   0.82966   0.06059   0.00000  Uiso   1.00
H211   H     0.32601   0.58719   0.03226   0.00000  Uiso   1.00
H212   H     0.26580   0.14143   0.17421   0.00000  Uiso   1.00
H213   H     0.47841   0.88779   0.01140   0.00000  Uiso   1.00
H214   H     0.29858   0.37647   0.95166   0.00000  Uiso   1.00
H215   H     0.33199   0.92298   0.75506   0.00000  Uiso   1.00
H216   H     0.29274   0.08757   0.80738   0.00000  Uiso   1.00
H217   H     0.39357   0.96729   0.73017   0.00000  Uiso   1.00
H218   H     0.30829   0.72482   0.70184   0.00000  Uiso   1.00
H219   H     0.25142   0.25314   0.90603   0.00000  Uiso   1.00
H220   H     0.46403   0.99949   0.74322   0.00000  Uiso   1.00
H221   H     0.28419   0.48818   0.68348   0.00000  Uiso   1.00
O222   O     0.23310   0.30323   0.08019   0.00000  Uiso   1.00
O223   O     0.51204   0.97043   0.86659   0.00000  Uiso   1.00
O224   O     0.27610   0.29961   0.78822   0.00000  Uiso   1.00
N225   N     0.26780   0.14512   0.10391   0.00000  Uiso   1.00
N226   N     0.46657   0.90799   0.95170   0.00000  Uiso   1.00
N227   N     0.29845   0.42995   0.89585   0.00000  Uiso   1.00
N228   N     0.26006   0.20523   0.95961   0.00000  Uiso   1.00
N229   N     0.45883   0.96810   0.80739   0.00000  Uiso   1.00
N230   N     0.29071   0.49006   0.75154   0.00000  Uiso   1.00
C231   C     0.15506   0.17760   0.99653   0.00000  Uiso   1.00
C232   C     0.17822   0.07398   0.99086   0.00000  Uiso   1.00
C233   C     0.19337   0.02033   0.06647   0.00000  Uiso   1.00
C234   C     0.21367   0.92681   0.04663   0.00000  Uiso   1.00
C235   C     0.24886   0.77172   0.05185   0.00000  Uiso   1.00
C236   C     0.12343   0.13931   0.94891   0.00000  Uiso   1.00
C237   C     0.09252   0.14061   0.98926   0.00000  Uiso   1.00
C238   C     0.06670   0.10210   0.93410   0.00000  Uiso   1.00
C239   C     0.01684   0.04853   0.87417   0.00000  Uiso   1.00
C240   C     0.16977   0.27105   0.93352   0.00000  Uiso   1.00
C241   C     0.17782   0.38313   0.96092   0.00000  Uiso   1.00
C242   C     0.19100   0.45555   0.89280   0.00000  Uiso   1.00
C243   C     0.21308   0.60652   0.80898   0.00000  Uiso   1.00
C244   C     0.16416   0.10692   0.82682   0.00000  Uiso   1.00
C245   C     0.18316   0.03559   0.89868   0.00000  Uiso   1.00
C246   C     0.20344   0.94213   0.87872   0.00000  Uiso   1.00
C247   C     0.21862   0.88835   0.95429   0.00000  Uiso   1.00
C248   C     0.12838   0.10092   0.85674   0.00000  Uiso   1.00
C249   C     0.10260   0.06241   0.80150   0.00000  Uiso   1.00
C250   C     0.07166   0.06364   0.84175   0.00000  Uiso   1.00
C251   C     0.17472   0.23266   0.84135   0.00000  Uiso   1.00
C252   C     0.18789   0.30492   0.77317   0.00000  Uiso   1.00
C253   C     0.19596   0.41709   0.80046   0.00000  Uiso   1.00
H254   H     0.15121   0.20749   0.06829   0.00000  Uiso   1.00
H255   H     0.18954   0.05006   0.13780   0.00000  Uiso   1.00
H256   H     0.08871   0.17034   0.06059   0.00000  Uiso   1.00
H257   H     0.17399   0.41281   0.03226   0.00000  Uiso   1.00
H258   H     0.23420   0.85857   0.17421   0.00000  Uiso   1.00
H259   H     0.02159   0.11221   0.01140   0.00000  Uiso   1.00
H260   H     0.20142   0.62353   0.95166   0.00000  Uiso   1.00
H261   H     0.16801   0.07702   0.75506   0.00000  Uiso   1.00
H262   H     0.20726   0.91243   0.80738   0.00000  Uiso   1.00
H263   H     0.10643   0.03271   0.73017   0.00000  Uiso   1.00
H264   H     0.19171   0.27518   0.70184   0.00000  Uiso   1.00
H265   H     0.24858   0.74686   0.90603   0.00000  Uiso   1.00
H266   H     0.03597   0.00051   0.74322   0.00000  Uiso   1.00
H267   H     0.21581   0.51182   0.68348   0.00000  Uiso   1.00
O268   O     0.26690   0.69677   0.08019   0.00000  Uiso   1.00
O269   O     0.98796   0.02957   0.86659   0.00000  Uiso   1.00
O270   O     0.22390   0.70039   0.78822   0.00000  Uiso   1.00
N271   N     0.23220   0.85488   0.10391   0.00000  Uiso   1.00
N272   N     0.03343   0.09201   0.95170   0.00000  Uiso   1.00
N273   N     0.20155   0.57005   0.89585   0.00000  Uiso   1.00
N274   N     0.23994   0.79477   0.95961   0.00000  Uiso   1.00
N275   N     0.04117   0.03190   0.80739   0.00000  Uiso   1.00
N276   N     0.20929   0.50994   0.75154   0.00000  Uiso   1.00
C277   C     0.65506   0.82240   0.50347   0.00000  Uiso   1.00
C278   C     0.67822   0.92602   0.50914   0.00000  Uiso   1.00
C279   C     0.69337   0.97967   0.43353   0.00000  Uiso   1.00
C280   C     0.71367   0.07319   0.45337   0.00000  Uiso   1.00
C281   C     0.74886   0.22828   0.44815   0.00000  Uiso   1.00
C282   C     0.62343   0.86069   0.55109   0.00000  Uiso   1.00
C283   C     0.59252   0.85939   0.51074   0.00000  Uiso   1.00
C284   C     0.56670   0.89790   0.56590   0.00000  Uiso   1.00
C285   C     0.51684   0.95147   0.62583   0.00000  Uiso   1.00
C286   C     0.66977   0.72895   0.56648   0.00000  Uiso   1.00
C287   C     0.67782   0.61687   0.53908   0.00000  Uiso   1.00
C288   C     0.69100   0.54445   0.60720   0.00000  Uiso   1.00
C289   C     0.71308   0.39348   0.69102   0.00000  Uiso   1.00
C290   C     0.66416   0.89308   0.67318   0.00000  Uiso   1.00
C291   C     0.68316   0.96441   0.60132   0.00000  Uiso   1.00
C292   C     0.70344   0.05787   0.62128   0.00000  Uiso   1.00
C293   C     0.71862   0.11165   0.54571   0.00000  Uiso   1.00
C294   C     0.62838   0.89908   0.64326   0.00000  Uiso   1.00
C295   C     0.60260   0.93759   0.69850   0.00000  Uiso   1.00
C296   C     0.57166   0.93636   0.65825   0.00000  Uiso   1.00
C297   C     0.67472   0.76734   0.65865   0.00000  Uiso   1.00
C298   C     0.68789   0.69508   0.72683   0.00000  Uiso   1.00
C299   C     0.69596   0.58291   0.69954   0.00000  Uiso   1.00
H300   H     0.65121   0.79251   0.43171   0.00000  Uiso   1.00
H301   H     0.68954   0.94994   0.36220   0.00000  Uiso   1.00
H302   H     0.58871   0.82966   0.43941   0.00000  Uiso   1.00
H303   H     0.67399   0.58719   0.46774   0.00000  Uiso   1.00
H304   H     0.73420   0.14143   0.32579   0.00000  Uiso   1.00
H305   H     0.52159   0.88779   0.48860   0.00000  Uiso   1.00
H306   H     0.70142   0.37647   0.54834   0.00000  Uiso   1.00
H307   H     0.66801   0.92298   0.74494   0.00000  Uiso   1.00
H308   H     0.70726   0.08757   0.69262   0.00000  Uiso   1.00
H309   H     0.60643   0.96729   0.76983   0.00000  Uiso   1.00
H310   H     0.69171   0.72482   0.79816   0.00000  Uiso   1.00
H311   H     0.74858   0.25314   0.59397   0.00000  Uiso   1.00
H312   H     0.53597   0.99949   0.75678   0.00000  Uiso   1.00
H313   H     0.71581   0.48818   0.81652   0.00000  Uiso   1.00
O314   O     0.76690   0.30323   0.41981   0.00000  Uiso   1.00
O315   O     0.48796   0.97043   0.63341   0.00000  Uiso   1.00
O316   O     0.72390   0.29961   0.71178   0.00000  Uiso   1.00
N317   N     0.73220   0.14512   0.39609   0.00000  Uiso   1.00
N318   N     0.53343   0.90799   0.54830   0.00000  Uiso   1.00
N319   N     0.70155   0.42995   0.60415   0.00000  Uiso   1.00
N320   N     0.73994   0.20523   0.54039   0.00000  Uiso   1.00
N321   N     0.54117   0.96810   0.69261   0.00000  Uiso   1.00
N322   N     0.70929   0.49006   0.74846   0.00000  Uiso   1.00
C323   C     0.84494   0.17760   0.50347   0.00000  Uiso   1.00
C324   C     0.82178   0.07398   0.50914   0.00000  Uiso   1.00
C325   C     0.80663   0.02033   0.43353   0.00000  Uiso   1.00
C326   C     0.78633   0.92681   0.45337   0.00000  Uiso   1.00
C327   C     0.75114   0.77172   0.44815   0.00000  Uiso   1.00
C328   C     0.87657   0.13931   0.55109   0.00000  Uiso   1.00
C329   C     0.90748   0.14061   0.51074   0.00000  Uiso   1.00
C330   C     0.93330   0.10210   0.56590   0.00000  Uiso   1.00
C331   C     0.98316   0.04853   0.62583   0.00000  Uiso   1.00
C332   C     0.83023   0.27105   0.56648   0.00000  Uiso   1.00
C333   C     0.82218   0.38313   0.53908   0.00000  Uiso   1.00
C334   C     0.80900   0.45555   0.60720   0.00000  Uiso   1.00
C335   C     0.78692   0.60652   0.69102   0.00000  Uiso   1.00
C336   C     0.83584   0.10692   0.67318   0.00000  Uiso   1.00
C337   C     0.81684   0.03559   0.60132   0.00000  Uiso   1.00
C338   C     0.79656   0.94213   0.62128   0.00000  Uiso   1.00
C339   C     0.78138   0.88835   0.54571   0.00000  Uiso   1.00
C340   C     0.87162   0.10092   0.64326   0.00000  Uiso   1.00
C341   C     0.89740   0.06241   0.69850   0.00000  Uiso   1.00
C342   C     0.92834   0.06364   0.65825   0.00000  Uiso   1.00
C343   C     0.82528   0.23266   0.65865   0.00000  Uiso   1.00
C344   C     0.81211   0.30492   0.72683   0.00000  Uiso   1.00
C345   C     0.80404   0.41709   0.69954   0.00000  Uiso   1.00
H346   H     0.84879   0.20749   0.43171   0.00000  Uiso   1.00
H347   H     0.81046   0.05006   0.36220   0.00000  Uiso   1.00
H348   H     0.91129   0.17034   0.43941   0.00000  Uiso   1.00
H349   H     0.82601   0.41281   0.46774   0.00000  Uiso   1.00
H350   H     0.76580   0.85857   0.32579   0.00000  Uiso   1.00
H351   H     0.97841   0.11221   0.48860   0.00000  Uiso   1.00
H352   H     0.79858   0.62353   0.54834   0.00000  Uiso   1.00
H353   H     0.83199   0.07702   0.74494   0.00000  Uiso   1.00
H354   H     0.79274   0.91243   0.69262   0.00000  Uiso   1.00
H355   H     0.89357   0.03271   0.76983   0.00000  Uiso   1.00
H356   H     0.80829   0.27518   0.79816   0.00000  Uiso   1.00
H357   H     0.75142   0.74686   0.59397   0.00000  Uiso   1.00
H358   H     0.96403   0.00051   0.75678   0.00000  Uiso   1.00
H359   H     0.78419   0.51182   0.81652   0.00000  Uiso   1.00
O360   O     0.73310   0.69677   0.41981   0.00000  Uiso   1.00
O361   O     0.01204   0.02957   0.63341   0.00000  Uiso   1.00
O362   O     0.77610   0.70039   0.71178   0.00000  Uiso   1.00
N363   N     0.76780   0.85488   0.39609   0.00000  Uiso   1.00
N364   N     0.96657   0.09201   0.54830   0.00000  Uiso   1.00
N365   N     0.79845   0.57005   0.60415   0.00000  Uiso   1.00
N366   N     0.76006   0.79477   0.54039   0.00000  Uiso   1.00
N367   N     0.95883   0.03190   0.69261   0.00000  Uiso   1.00
N368   N     0.79071   0.50994   0.74846   0.00000  Uiso   1.00
