data_job_01107
_audit_creation_date              2018-12-19
_audit_creation_method            'Materials Studio'
_symmetry_space_group_name_H-M    'P1'
_symmetry_Int_Tables_number       1
_symmetry_cell_setting            triclinic
loop_
_symmetry_equiv_pos_as_xyz
  x,y,z
_cell_length_a                    8.7736
_cell_length_b                    14.9754
_cell_length_c                    17.3513
_cell_angle_alpha                 90.0000
_cell_angle_beta                  90.0000
_cell_angle_gamma                 90.0000
loop_
_atom_site_label
_atom_site_type_symbol
_atom_site_fract_x
_atom_site_fract_y
_atom_site_fract_z
_atom_site_U_iso_or_equiv
_atom_site_adp_type
_atom_site_occupancy
C1     C     0.87810   0.99532   0.50697   0.00000  Uiso   1.00
C2     C     0.94360   0.08372   0.53536   0.00000  Uiso   1.00
C3     C     0.85971   0.15559   0.56275   0.00000  Uiso   1.00
C4     C     0.94090   0.23048   0.58597   0.00000  Uiso   1.00
C5     C     0.01837   0.36734   0.63063   0.00000  Uiso   1.00
C6     C     0.93786   0.98301   0.42513   0.00000  Uiso   1.00
C7     C     0.84914   0.97019   0.35984   0.00000  Uiso   1.00
C8     C     0.92551   0.96028   0.29028   0.00000  Uiso   1.00
C9     C     0.99407   0.94071   0.16382   0.00000  Uiso   1.00
C10    C     0.95388   0.92280   0.55532   0.00000  Uiso   1.00
C11    C     0.87864   0.85933   0.59947   0.00000  Uiso   1.00
C12    C     0.96849   0.79872   0.63950   0.00000  Uiso   1.00
C13    C     0.06192   0.68565   0.71516   0.00000  Uiso   1.00
C14    C     0.17147   0.00051   0.49953   0.00000  Uiso   1.00
C15    C     0.10295   0.08654   0.53132   0.00000  Uiso   1.00
C16    C     0.18429   0.16134   0.55451   0.00000  Uiso   1.00
C17    C     0.10054   0.23331   0.58193   0.00000  Uiso   1.00
C18    C     0.09720   0.98583   0.42109   0.00000  Uiso   1.00
C19    C     0.17372   0.97593   0.35161   0.00000  Uiso   1.00
C20    C     0.08514   0.96311   0.28623   0.00000  Uiso   1.00
C21    C     0.11323   0.92562   0.55127   0.00000  Uiso   1.00
C22    C     0.20322   0.86508   0.59124   0.00000  Uiso   1.00
C23    C     0.12813   0.80154   0.63544   0.00000  Uiso   1.00
H24    H     0.75404   0.99313   0.51012   0.00000  Uiso   1.00
H25    H     0.73640   0.15339   0.56586   0.00000  Uiso   1.00
H26    H     0.72584   0.96800   0.36299   0.00000  Uiso   1.00
H27    H     0.75533   0.85717   0.60258   0.00000  Uiso   1.00
H28    H     0.78710   0.33233   0.62585   0.00000  Uiso   1.00
H29    H     0.76483   0.94140   0.19810   0.00000  Uiso   1.00
H30    H     0.82701   0.70768   0.70332   0.00000  Uiso   1.00
H31    H     0.29553   0.00271   0.49638   0.00000  Uiso   1.00
H32    H     0.30760   0.16350   0.55138   0.00000  Uiso   1.00
H33    H     0.29703   0.97811   0.34850   0.00000  Uiso   1.00
H34    H     0.32652   0.86728   0.58809   0.00000  Uiso   1.00
H35    H     0.25071   0.34054   0.61409   0.00000  Uiso   1.00
H36    H     0.22844   0.94960   0.18633   0.00000  Uiso   1.00
H37    H     0.29062   0.71589   0.69156   0.00000  Uiso   1.00
O38    O     0.01707   0.44205   0.65637   0.00000  Uiso   1.00
O39    O     0.98785   0.92914   0.09518   0.00000  Uiso   1.00
O40    O     0.06943   0.62252   0.75802   0.00000  Uiso   1.00
N41    N     0.89456   0.31219   0.61555   0.00000  Uiso   1.00
N42    N     0.87373   0.94670   0.21562   0.00000  Uiso   1.00
N43    N     0.93187   0.72818   0.68795   0.00000  Uiso   1.00
N44    N     0.14402   0.31660   0.60923   0.00000  Uiso   1.00
N45    N     0.12320   0.95112   0.20929   0.00000  Uiso   1.00
N46    N     0.18133   0.73260   0.68162   0.00000  Uiso   1.00
C47    C     0.62190   0.00468   0.00697   0.00000  Uiso   1.00
C48    C     0.55640   0.91628   0.03536   0.00000  Uiso   1.00
C49    C     0.64029   0.84441   0.06275   0.00000  Uiso   1.00
C50    C     0.55910   0.76952   0.08597   0.00000  Uiso   1.00
C51    C     0.48163   0.63266   0.13063   0.00000  Uiso   1.00
C52    C     0.56214   0.01699   0.92513   0.00000  Uiso   1.00
C53    C     0.65086   0.02981   0.85984   0.00000  Uiso   1.00
C54    C     0.57449   0.03972   0.79028   0.00000  Uiso   1.00
C55    C     0.50593   0.05929   0.66382   0.00000  Uiso   1.00
C56    C     0.54612   0.07720   0.05532   0.00000  Uiso   1.00
C57    C     0.62136   0.14067   0.09947   0.00000  Uiso   1.00
C58    C     0.53151   0.20128   0.13950   0.00000  Uiso   1.00
C59    C     0.43808   0.31435   0.21516   0.00000  Uiso   1.00
C60    C     0.32853   0.99949   0.99953   0.00000  Uiso   1.00
C61    C     0.39705   0.91346   0.03132   0.00000  Uiso   1.00
C62    C     0.31571   0.83866   0.05451   0.00000  Uiso   1.00
C63    C     0.39946   0.76669   0.08193   0.00000  Uiso   1.00
C64    C     0.40280   0.01417   0.92109   0.00000  Uiso   1.00
C65    C     0.32628   0.02407   0.85161   0.00000  Uiso   1.00
C66    C     0.41486   0.03689   0.78623   0.00000  Uiso   1.00
C67    C     0.38677   0.07438   0.05127   0.00000  Uiso   1.00
C68    C     0.29678   0.13492   0.09124   0.00000  Uiso   1.00
C69    C     0.37187   0.19846   0.13544   0.00000  Uiso   1.00
H70    H     0.74596   0.00687   0.01012   0.00000  Uiso   1.00
H71    H     0.76360   0.84661   0.06586   0.00000  Uiso   1.00
H72    H     0.77416   0.03200   0.86299   0.00000  Uiso   1.00
H73    H     0.74467   0.14283   0.10258   0.00000  Uiso   1.00
H74    H     0.71290   0.66767   0.12585   0.00000  Uiso   1.00
H75    H     0.73517   0.05860   0.69810   0.00000  Uiso   1.00
H76    H     0.67299   0.29232   0.20332   0.00000  Uiso   1.00
H77    H     0.20447   0.99729   0.99638   0.00000  Uiso   1.00
H78    H     0.19240   0.83650   0.05138   0.00000  Uiso   1.00
H79    H     0.20297   0.02189   0.84850   0.00000  Uiso   1.00
H80    H     0.17348   0.13272   0.08809   0.00000  Uiso   1.00
H81    H     0.24929   0.65946   0.11409   0.00000  Uiso   1.00
H82    H     0.27156   0.05040   0.68633   0.00000  Uiso   1.00
H83    H     0.20938   0.28411   0.19156   0.00000  Uiso   1.00
O84    O     0.48293   0.55795   0.15637   0.00000  Uiso   1.00
O85    O     0.51215   0.07086   0.59518   0.00000  Uiso   1.00
O86    O     0.43057   0.37748   0.25802   0.00000  Uiso   1.00
N87    N     0.60544   0.68781   0.11555   0.00000  Uiso   1.00
N88    N     0.62627   0.05330   0.71562   0.00000  Uiso   1.00
N89    N     0.56813   0.27182   0.18795   0.00000  Uiso   1.00
N90    N     0.35598   0.68340   0.10923   0.00000  Uiso   1.00
N91    N     0.37680   0.04888   0.70929   0.00000  Uiso   1.00
N92    N     0.31867   0.26740   0.18162   0.00000  Uiso   1.00
C93    C     0.12190   0.49532   0.99303   0.00000  Uiso   1.00
C94    C     0.05640   0.58372   0.96464   0.00000  Uiso   1.00
C95    C     0.14029   0.65559   0.93725   0.00000  Uiso   1.00
C96    C     0.05910   0.73048   0.91403   0.00000  Uiso   1.00
C97    C     0.98163   0.86734   0.86937   0.00000  Uiso   1.00
C98    C     0.06214   0.48301   0.07487   0.00000  Uiso   1.00
C99    C     0.15086   0.47019   0.14016   0.00000  Uiso   1.00
C100   C     0.07449   0.46028   0.20972   0.00000  Uiso   1.00
C101   C     0.00593   0.44071   0.33618   0.00000  Uiso   1.00
C102   C     0.04612   0.42280   0.94468   0.00000  Uiso   1.00
C103   C     0.12136   0.35933   0.90053   0.00000  Uiso   1.00
C104   C     0.03151   0.29872   0.86050   0.00000  Uiso   1.00
C105   C     0.93808   0.18565   0.78484   0.00000  Uiso   1.00
C106   C     0.82853   0.50051   0.00047   0.00000  Uiso   1.00
C107   C     0.89705   0.58654   0.96868   0.00000  Uiso   1.00
C108   C     0.81571   0.66134   0.94549   0.00000  Uiso   1.00
C109   C     0.89946   0.73331   0.91807   0.00000  Uiso   1.00
C110   C     0.90280   0.48583   0.07891   0.00000  Uiso   1.00
C111   C     0.82628   0.47593   0.14839   0.00000  Uiso   1.00
C112   C     0.91486   0.46311   0.21377   0.00000  Uiso   1.00
C113   C     0.88677   0.42562   0.94873   0.00000  Uiso   1.00
C114   C     0.79678   0.36508   0.90876   0.00000  Uiso   1.00
C115   C     0.87187   0.30154   0.86456   0.00000  Uiso   1.00
H116   H     0.24596   0.49313   0.98988   0.00000  Uiso   1.00
H117   H     0.26360   0.65339   0.93414   0.00000  Uiso   1.00
H118   H     0.27416   0.46800   0.13701   0.00000  Uiso   1.00
H119   H     0.24467   0.35717   0.89742   0.00000  Uiso   1.00
H120   H     0.21290   0.83233   0.87415   0.00000  Uiso   1.00
H121   H     0.23517   0.44140   0.30190   0.00000  Uiso   1.00
H122   H     0.17299   0.20768   0.79668   0.00000  Uiso   1.00
H123   H     0.70447   0.50271   0.00362   0.00000  Uiso   1.00
H124   H     0.69240   0.66350   0.94862   0.00000  Uiso   1.00
H125   H     0.70297   0.47811   0.15150   0.00000  Uiso   1.00
H126   H     0.67348   0.36728   0.91191   0.00000  Uiso   1.00
H127   H     0.74929   0.84054   0.88591   0.00000  Uiso   1.00
H128   H     0.77156   0.44960   0.31367   0.00000  Uiso   1.00
H129   H     0.70938   0.21589   0.80844   0.00000  Uiso   1.00
O130   O     0.98293   0.94205   0.84363   0.00000  Uiso   1.00
O131   O     0.01215   0.42914   0.40482   0.00000  Uiso   1.00
O132   O     0.93057   0.12252   0.74198   0.00000  Uiso   1.00
N133   N     0.10544   0.81219   0.88445   0.00000  Uiso   1.00
N134   N     0.12627   0.44670   0.28438   0.00000  Uiso   1.00
N135   N     0.06813   0.22818   0.81205   0.00000  Uiso   1.00
N136   N     0.85598   0.81660   0.89077   0.00000  Uiso   1.00
N137   N     0.87680   0.45112   0.29071   0.00000  Uiso   1.00
N138   N     0.81867   0.23260   0.81838   0.00000  Uiso   1.00
C139   C     0.37810   0.50468   0.49303   0.00000  Uiso   1.00
C140   C     0.44360   0.41628   0.46464   0.00000  Uiso   1.00
C141   C     0.35971   0.34441   0.43725   0.00000  Uiso   1.00
C142   C     0.44090   0.26952   0.41403   0.00000  Uiso   1.00
C143   C     0.51837   0.13266   0.36937   0.00000  Uiso   1.00
C144   C     0.43786   0.51699   0.57487   0.00000  Uiso   1.00
C145   C     0.34914   0.52981   0.64016   0.00000  Uiso   1.00
C146   C     0.42551   0.53972   0.70972   0.00000  Uiso   1.00
C147   C     0.49407   0.55929   0.83618   0.00000  Uiso   1.00
C148   C     0.45388   0.57720   0.44468   0.00000  Uiso   1.00
C149   C     0.37864   0.64067   0.40053   0.00000  Uiso   1.00
C150   C     0.46849   0.70128   0.36050   0.00000  Uiso   1.00
C151   C     0.56192   0.81435   0.28484   0.00000  Uiso   1.00
C152   C     0.67147   0.49949   0.50047   0.00000  Uiso   1.00
C153   C     0.60295   0.41346   0.46868   0.00000  Uiso   1.00
C154   C     0.68429   0.33866   0.44549   0.00000  Uiso   1.00
C155   C     0.60054   0.26669   0.41807   0.00000  Uiso   1.00
C156   C     0.59720   0.51417   0.57891   0.00000  Uiso   1.00
C157   C     0.67372   0.52407   0.64839   0.00000  Uiso   1.00
C158   C     0.58514   0.53689   0.71377   0.00000  Uiso   1.00
C159   C     0.61323   0.57438   0.44873   0.00000  Uiso   1.00
C160   C     0.70322   0.63492   0.40876   0.00000  Uiso   1.00
C161   C     0.62813   0.69846   0.36456   0.00000  Uiso   1.00
H162   H     0.25404   0.50687   0.48988   0.00000  Uiso   1.00
H163   H     0.23640   0.34661   0.43414   0.00000  Uiso   1.00
H164   H     0.22584   0.53200   0.63701   0.00000  Uiso   1.00
H165   H     0.25533   0.64283   0.39742   0.00000  Uiso   1.00
H166   H     0.28710   0.16767   0.37415   0.00000  Uiso   1.00
H167   H     0.26483   0.55860   0.80190   0.00000  Uiso   1.00
H168   H     0.32701   0.79232   0.29668   0.00000  Uiso   1.00
H169   H     0.79553   0.49729   0.50362   0.00000  Uiso   1.00
H170   H     0.80760   0.33650   0.44862   0.00000  Uiso   1.00
H171   H     0.79703   0.52189   0.65150   0.00000  Uiso   1.00
H172   H     0.82652   0.63272   0.41191   0.00000  Uiso   1.00
H173   H     0.75071   0.15946   0.38591   0.00000  Uiso   1.00
H174   H     0.72844   0.55040   0.81367   0.00000  Uiso   1.00
H175   H     0.79062   0.78411   0.30844   0.00000  Uiso   1.00
O176   O     0.51707   0.05795   0.34363   0.00000  Uiso   1.00
O177   O     0.48785   0.57086   0.90482   0.00000  Uiso   1.00
O178   O     0.56943   0.87748   0.24198   0.00000  Uiso   1.00
N179   N     0.39456   0.18781   0.38445   0.00000  Uiso   1.00
N180   N     0.37373   0.55330   0.78438   0.00000  Uiso   1.00
N181   N     0.43187   0.77182   0.31205   0.00000  Uiso   1.00
N182   N     0.64402   0.18340   0.39077   0.00000  Uiso   1.00
N183   N     0.62320   0.54888   0.79071   0.00000  Uiso   1.00
N184   N     0.68133   0.76740   0.31838   0.00000  Uiso   1.00
