data_job_06518
_audit_creation_date              2018-12-19
_audit_creation_method            'Materials Studio'
_symmetry_space_group_name_H-M    'P1'
_symmetry_Int_Tables_number       1
_symmetry_cell_setting            triclinic
loop_
_symmetry_equiv_pos_as_xyz
  x,y,z
_cell_length_a                    16.4870
_cell_length_b                    23.5056
_cell_length_c                    23.5719
_cell_angle_alpha                 118.6374
_cell_angle_beta                  100.5475
_cell_angle_gamma                 93.8991
loop_
_atom_site_label
_atom_site_type_symbol
_atom_site_fract_x
_atom_site_fract_y
_atom_site_fract_z
_atom_site_U_iso_or_equiv
_atom_site_adp_type
_atom_site_occupancy
C1     C     0.50653   0.56238   0.21589   0.00000  Uiso   1.00
C2     C     0.54241   0.63502   0.24515   0.00000  Uiso   1.00
C3     C     0.60259   0.65966   0.22450   0.00000  Uiso   1.00
C4     C     0.62718   0.72764   0.25762   0.00000  Uiso   1.00
C5     C     0.68815   0.83408   0.29517   0.00000  Uiso   1.00
C6     C     0.52203   0.54946   0.27415   0.00000  Uiso   1.00
C7     C     0.56507   0.50215   0.27788   0.00000  Uiso   1.00
C8     C     0.57249   0.49810   0.33541   0.00000  Uiso   1.00
C9     C     0.60177   0.47166   0.41797   0.00000  Uiso   1.00
C10    C     0.41174   0.55538   0.19385   0.00000  Uiso   1.00
C11    C     0.36204   0.51304   0.13007   0.00000  Uiso   1.00
C12    C     0.27660   0.51396   0.12000   0.00000  Uiso   1.00
C13    C     0.13465   0.49672   0.07789   0.00000  Uiso   1.00
C14    C     0.44316   0.63930   0.31143   0.00000  Uiso   1.00
C15    C     0.50799   0.67680   0.29704   0.00000  Uiso   1.00
C16    C     0.53249   0.74477   0.33020   0.00000  Uiso   1.00
C17    C     0.59270   0.76950   0.30960   0.00000  Uiso   1.00
C18    C     0.48761   0.59124   0.32604   0.00000  Uiso   1.00
C19    C     0.49496   0.58725   0.38358   0.00000  Uiso   1.00
C20    C     0.53801   0.53995   0.38740   0.00000  Uiso   1.00
C21    C     0.37732   0.59716   0.24574   0.00000  Uiso   1.00
C22    C     0.29194   0.59815   0.23578   0.00000  Uiso   1.00
C23    C     0.24212   0.55582   0.17199   0.00000  Uiso   1.00
H24    H     0.53333   0.52985   0.17549   0.00000  Uiso   1.00
H25    H     0.62922   0.62731   0.18434   0.00000  Uiso   1.00
H26    H     0.59169   0.46982   0.23771   0.00000  Uiso   1.00
H27    H     0.38870   0.48071   0.08993   0.00000  Uiso   1.00
H28    H     0.72038   0.75378   0.21705   0.00000  Uiso   1.00
H29    H     0.64123   0.42169   0.32957   0.00000  Uiso   1.00
H30    H     0.21318   0.44466   0.01794   0.00000  Uiso   1.00
H31    H     0.41636   0.67183   0.35183   0.00000  Uiso   1.00
H32    H     0.50584   0.77709   0.37036   0.00000  Uiso   1.00
H33    H     0.46832   0.61959   0.42373   0.00000  Uiso   1.00
H34    H     0.26532   0.63048   0.27594   0.00000  Uiso   1.00
H35    H     0.62024   0.87535   0.36803   0.00000  Uiso   1.00
H36    H     0.54109   0.54325   0.48055   0.00000  Uiso   1.00
H37    H     0.11304   0.56622   0.16892   0.00000  Uiso   1.00
O38    O     0.73130   0.88124   0.30156   0.00000  Uiso   1.00
O39    O     0.62744   0.44554   0.44918   0.00000  Uiso   1.00
O40    O     0.06585   0.47567   0.04033   0.00000  Uiso   1.00
N41    N     0.68452   0.76795   0.25003   0.00000  Uiso   1.00
N42    N     0.61053   0.45747   0.35524   0.00000  Uiso   1.00
N43    N     0.21034   0.47893   0.06390   0.00000  Uiso   1.00
N44    N     0.63064   0.83336   0.33127   0.00000  Uiso   1.00
N45    N     0.55665   0.52288   0.43648   0.00000  Uiso   1.00
N46    N     0.15645   0.54434   0.14514   0.00000  Uiso   1.00
C47    C     0.56941   0.57060   0.70884   0.00000  Uiso   1.00
C48    C     0.58388   0.50608   0.65349   0.00000  Uiso   1.00
C49    C     0.65970   0.48383   0.65106   0.00000  Uiso   1.00
C50    C     0.65996   0.42352   0.59619   0.00000  Uiso   1.00
C51    C     0.69354   0.32894   0.51793   0.00000  Uiso   1.00
C52    C     0.53280   0.60762   0.67486   0.00000  Uiso   1.00
C53    C     0.56566   0.67074   0.69040   0.00000  Uiso   1.00
C54    C     0.52290   0.69590   0.65352   0.00000  Uiso   1.00
C55    C     0.47714   0.75897   0.60847   0.00000  Uiso   1.00
C56    C     0.49947   0.55182   0.73435   0.00000  Uiso   1.00
C57    C     0.50430   0.56804   0.79991   0.00000  Uiso   1.00
C58    C     0.43347   0.54625   0.81312   0.00000  Uiso   1.00
C59    C     0.33596   0.52269   0.86044   0.00000  Uiso   1.00
C60    C     0.43503   0.50306   0.61573   0.00000  Uiso   1.00
C61    C     0.51089   0.46940   0.60292   0.00000  Uiso   1.00
C62    C     0.51103   0.40911   0.54804   0.00000  Uiso   1.00
C63    C     0.58683   0.38677   0.54553   0.00000  Uiso   1.00
C64    C     0.45981   0.57094   0.62429   0.00000  Uiso   1.00
C65    C     0.41699   0.59602   0.58738   0.00000  Uiso   1.00
C66    C     0.44978   0.65916   0.60286   0.00000  Uiso   1.00
C67    C     0.42648   0.51514   0.68377   0.00000  Uiso   1.00
C68    C     0.35563   0.49332   0.69689   0.00000  Uiso   1.00
C69    C     0.36035   0.50950   0.76246   0.00000  Uiso   1.00
H70    H     0.62624   0.59916   0.74821   0.00000  Uiso   1.00
H71    H     0.71618   0.51224   0.69021   0.00000  Uiso   1.00
H72    H     0.62214   0.69911   0.72955   0.00000  Uiso   1.00
H73    H     0.56079   0.59643   0.83904   0.00000  Uiso   1.00
H74    H     0.78371   0.39970   0.60358   0.00000  Uiso   1.00
H75    H     0.58542   0.79375   0.68654   0.00000  Uiso   1.00
H76    H     0.45605   0.57723   0.91743   0.00000  Uiso   1.00
H77    H     0.37820   0.47451   0.57635   0.00000  Uiso   1.00
H78    H     0.45453   0.38074   0.50891   0.00000  Uiso   1.00
H79    H     0.36050   0.56762   0.54825   0.00000  Uiso   1.00
H80    H     0.29915   0.46493   0.65774   0.00000  Uiso   1.00
H81    H     0.57135   0.29297   0.45643   0.00000  Uiso   1.00
H82    H     0.37306   0.68702   0.53940   0.00000  Uiso   1.00
H83    H     0.24369   0.47050   0.77028   0.00000  Uiso   1.00
O84    O     0.73223   0.28691   0.48873   0.00000  Uiso   1.00
O85    O     0.47207   0.80389   0.59759   0.00000  Uiso   1.00
O86    O     0.30234   0.51982   0.90050   0.00000  Uiso   1.00
N87    N     0.72325   0.38744   0.57821   0.00000  Uiso   1.00
N88    N     0.53787   0.75585   0.65577   0.00000  Uiso   1.00
N89    N     0.41691   0.55344   0.87163   0.00000  Uiso   1.00
N90    N     0.60898   0.33001   0.49903   0.00000  Uiso   1.00
N91    N     0.42360   0.69842   0.57659   0.00000  Uiso   1.00
N92    N     0.30265   0.49601   0.79245   0.00000  Uiso   1.00
C93    C     0.51408   0.18310   0.76618   0.00000  Uiso   1.00
C94    C     0.52380   0.18647   0.83337   0.00000  Uiso   1.00
C95    C     0.59281   0.22002   0.88749   0.00000  Uiso   1.00
C96    C     0.58959   0.21709   0.94449   0.00000  Uiso   1.00
C97    C     0.61531   0.22765   0.04839   0.00000  Uiso   1.00
C98    C     0.49704   0.11003   0.71396   0.00000  Uiso   1.00
C99    C     0.54355   0.07931   0.66768   0.00000  Uiso   1.00
C100   C     0.51780   0.01203   0.62416   0.00000  Uiso   1.00
C101   C     0.50193   0.90393   0.54265   0.00000  Uiso   1.00
C102   C     0.43340   0.20834   0.75465   0.00000  Uiso   1.00
C103   C     0.42638   0.26028   0.74254   0.00000  Uiso   1.00
C104   C     0.34704   0.27576   0.73326   0.00000  Uiso   1.00
C105   C     0.23236   0.32031   0.71491   0.00000  Uiso   1.00
C106   C     0.38565   0.11823   0.77120   0.00000  Uiso   1.00
C107   C     0.45404   0.15123   0.83609   0.00000  Uiso   1.00
C108   C     0.45071   0.14825   0.89303   0.00000  Uiso   1.00
C109   C     0.51971   0.18179   0.94722   0.00000  Uiso   1.00
C110   C     0.42729   0.07479   0.71669   0.00000  Uiso   1.00
C111   C     0.40145   0.00755   0.67322   0.00000  Uiso   1.00
C112   C     0.44791   0.97673   0.62689   0.00000  Uiso   1.00
C113   C     0.36364   0.17311   0.75737   0.00000  Uiso   1.00
C114   C     0.28429   0.18851   0.74810   0.00000  Uiso   1.00
C115   C     0.27715   0.24047   0.73599   0.00000  Uiso   1.00
H116   H     0.56839   0.21052   0.76406   0.00000  Uiso   1.00
H117   H     0.64679   0.24727   0.88536   0.00000  Uiso   1.00
H118   H     0.59752   0.10659   0.66558   0.00000  Uiso   1.00
H119   H     0.48038   0.28753   0.74044   0.00000  Uiso   1.00
H120   H     0.70295   0.27246   0.02103   0.00000  Uiso   1.00
H121   H     0.59906   0.97582   0.55760   0.00000  Uiso   1.00
H122   H     0.35204   0.35738   0.71546   0.00000  Uiso   1.00
H123   H     0.33134   0.09080   0.77332   0.00000  Uiso   1.00
H124   H     0.39672   0.12098   0.89513   0.00000  Uiso   1.00
H125   H     0.34746   0.98030   0.67534   0.00000  Uiso   1.00
H126   H     0.23032   0.16124   0.75021   0.00000  Uiso   1.00
H127   H     0.49999   0.16995   0.02896   0.00000  Uiso   1.00
H128   H     0.39610   0.87332   0.56552   0.00000  Uiso   1.00
H129   H     0.14908   0.25487   0.72339   0.00000  Uiso   1.00
O130   O     0.64877   0.24320   0.10495   0.00000  Uiso   1.00
O131   O     0.51247   0.85403   0.49694   0.00000  Uiso   1.00
O132   O     0.18838   0.35462   0.70405   0.00000  Uiso   1.00
N133   N     0.64620   0.24420   0.00618   0.00000  Uiso   1.00
N134   N     0.54908   0.96687   0.57291   0.00000  Uiso   1.00
N135   N     0.31813   0.32357   0.72048   0.00000  Uiso   1.00
N136   N     0.53699   0.18905   0.01045   0.00000  Uiso   1.00
N137   N     0.43987   0.91171   0.57718   0.00000  Uiso   1.00
N138   N     0.20892   0.26842   0.72474   0.00000  Uiso   1.00
C139   C     0.06016   0.56010   0.70550   0.00000  Uiso   1.00
C140   C     0.08131   0.58181   0.65765   0.00000  Uiso   1.00
C141   C     0.15925   0.61303   0.66316   0.00000  Uiso   1.00
C142   C     0.16578   0.62886   0.61430   0.00000  Uiso   1.00
C143   C     0.20912   0.66479   0.54796   0.00000  Uiso   1.00
C144   C     0.02483   0.48648   0.66302   0.00000  Uiso   1.00
C145   C     0.05528   0.43755   0.67306   0.00000  Uiso   1.00
C146   C     0.01425   0.37313   0.62871   0.00000  Uiso   1.00
C147   C     0.96987   0.26107   0.57074   0.00000  Uiso   1.00
C148   C     0.98732   0.59323   0.72964   0.00000  Uiso   1.00
C149   C     0.98620   0.63406   0.79570   0.00000  Uiso   1.00
C150   C     0.91359   0.65951   0.80744   0.00000  Uiso   1.00
C151   C     0.81096   0.71320   0.85291   0.00000  Uiso   1.00
C152   C     0.93317   0.53269   0.60892   0.00000  Uiso   1.00
C153   C     0.01233   0.56691   0.60519   0.00000  Uiso   1.00
C154   C     0.01874   0.58270   0.55630   0.00000  Uiso   1.00
C155   C     0.09668   0.61394   0.56174   0.00000  Uiso   1.00
C156   C     0.95585   0.47158   0.61056   0.00000  Uiso   1.00
C157   C     0.91477   0.40722   0.56619   0.00000  Uiso   1.00
C158   C     0.94515   0.35821   0.57615   0.00000  Uiso   1.00
C159   C     0.91834   0.57834   0.67718   0.00000  Uiso   1.00
C160   C     0.84570   0.60373   0.68883   0.00000  Uiso   1.00
C161   C     0.84449   0.64459   0.75488   0.00000  Uiso   1.00
H162   H     0.11386   0.57169   0.74635   0.00000  Uiso   1.00
H163   H     0.21261   0.62454   0.70377   0.00000  Uiso   1.00
H164   H     0.10865   0.44909   0.71366   0.00000  Uiso   1.00
H165   H     0.03959   0.64557   0.83628   0.00000  Uiso   1.00
H166   H     0.29169   0.67654   0.63341   0.00000  Uiso   1.00
H167   H     0.07246   0.30660   0.65429   0.00000  Uiso   1.00
H168   H     0.92684   0.72092   0.91285   0.00000  Uiso   1.00
H169   H     0.87946   0.52109   0.56807   0.00000  Uiso   1.00
H170   H     0.96535   0.57117   0.51571   0.00000  Uiso   1.00
H171   H     0.86139   0.39571   0.52560   0.00000  Uiso   1.00
H172   H     0.79234   0.59219   0.64822   0.00000  Uiso   1.00
H173   H     0.09101   0.63322   0.48077   0.00000  Uiso   1.00
H174   H     0.87178   0.26328   0.50165   0.00000  Uiso   1.00
H175   H     0.72616   0.67759   0.76021   0.00000  Uiso   1.00
O176   O     0.25209   0.68872   0.52585   0.00000  Uiso   1.00
O177   O     0.96446   0.20337   0.55325   0.00000  Uiso   1.00
O178   O     0.77341   0.74694   0.89248   0.00000  Uiso   1.00
N179   N     0.23267   0.65949   0.60468   0.00000  Uiso   1.00
N180   N     0.02771   0.31361   0.62419   0.00000  Uiso   1.00
N181   N     0.89156   0.70095   0.86593   0.00000  Uiso   1.00
N182   N     0.12468   0.63618   0.52255   0.00000  Uiso   1.00
N183   N     0.91972   0.29030   0.54206   0.00000  Uiso   1.00
N184   N     0.78357   0.67764   0.78380   0.00000  Uiso   1.00
C185   C     0.95051   0.06062   0.63717   0.00000  Uiso   1.00
C186   C     0.97006   0.13119   0.69552   0.00000  Uiso   1.00
C187   C     0.04901   0.16552   0.73635   0.00000  Uiso   1.00
C188   C     0.05376   0.22963   0.78701   0.00000  Uiso   1.00
C189   C     0.09504   0.33486   0.87616   0.00000  Uiso   1.00
C190   C     0.90545   0.06377   0.57646   0.00000  Uiso   1.00
C191   C     0.93006   0.04141   0.51718   0.00000  Uiso   1.00
C192   C     0.88041   0.04876   0.46761   0.00000  Uiso   1.00
C193   C     0.82133   0.04928   0.37190   0.00000  Uiso   1.00
C194   C     0.88558   0.02307   0.65143   0.00000  Uiso   1.00
C195   C     0.89348   0.96648   0.65517   0.00000  Uiso   1.00
C196   C     0.82708   0.93955   0.66870   0.00000  Uiso   1.00
C197   C     0.73716   0.87687   0.68938   0.00000  Uiso   1.00
C198   C     0.81854   0.11341   0.65454   0.00000  Uiso   1.00
C199   C     0.89838   0.15987   0.70495   0.00000  Uiso   1.00
C200   C     0.90301   0.22394   0.75556   0.00000  Uiso   1.00
C201   C     0.98196   0.25836   0.79646   0.00000  Uiso   1.00
C202   C     0.83377   0.09245   0.58589   0.00000  Uiso   1.00
C203   C     0.78406   0.09982   0.53640   0.00000  Uiso   1.00
C204   C     0.80860   0.07749   0.47706   0.00000  Uiso   1.00
C205   C     0.81390   0.05175   0.66086   0.00000  Uiso   1.00
C206   C     0.74748   0.02490   0.67439   0.00000  Uiso   1.00
C207   C     0.75527   0.96828   0.67815   0.00000  Uiso   1.00
H208   H     0.00631   0.03829   0.62983   0.00000  Uiso   1.00
H209   H     0.10447   0.14332   0.72903   0.00000  Uiso   1.00
H210   H     0.98553   0.01922   0.50990   0.00000  Uiso   1.00
H211   H     0.94895   0.94430   0.64787   0.00000  Uiso   1.00
H212   H     0.18170   0.27241   0.84316   0.00000  Uiso   1.00
H213   H     0.93089   0.01072   0.38110   0.00000  Uiso   1.00
H214   H     0.85376   0.85274   0.67203   0.00000  Uiso   1.00
H215   H     0.76273   0.13574   0.66188   0.00000  Uiso   1.00
H216   H     0.84753   0.24611   0.76285   0.00000  Uiso   1.00
H217   H     0.72859   0.12202   0.54371   0.00000  Uiso   1.00
H218   H     0.69202   0.04710   0.68168   0.00000  Uiso   1.00
H219   H     0.97316   0.35585   0.87061   0.00000  Uiso   1.00
H220   H     0.72235   0.09415   0.40854   0.00000  Uiso   1.00
H221   H     0.64522   0.93618   0.69948   0.00000  Uiso   1.00
O222   O     0.13761   0.38498   0.92271   0.00000  Uiso   1.00
O223   O     0.80855   0.04165   0.31650   0.00000  Uiso   1.00
O224   O     0.70736   0.83439   0.69820   0.00000  Uiso   1.00
N225   N     0.12098   0.27689   0.83578   0.00000  Uiso   1.00
N226   N     0.88650   0.03224   0.40377   0.00000  Uiso   1.00
N227   N     0.81437   0.88453   0.67575   0.00000  Uiso   1.00
N228   N     0.00876   0.32179   0.85054   0.00000  Uiso   1.00
N229   N     0.77428   0.07714   0.41854   0.00000  Uiso   1.00
N230   N     0.70216   0.92943   0.69052   0.00000  Uiso   1.00
C231   C     0.90651   0.07249   0.10105   0.00000  Uiso   1.00
C232   C     0.95332   0.04492   0.14168   0.00000  Uiso   1.00
C233   C     0.03832   0.04250   0.15194   0.00000  Uiso   1.00
C234   C     0.06917   0.01541   0.19064   0.00000  Uiso   1.00
C235   C     0.14982   0.97624   0.24959   0.00000  Uiso   1.00
C236   C     0.86468   0.12552   0.14790   0.00000  Uiso   1.00
C237   C     0.87515   0.19087   0.16338   0.00000  Uiso   1.00
C238   C     0.83137   0.23162   0.20731   0.00000  Uiso   1.00
C239   C     0.77436   0.31758   0.27588   0.00000  Uiso   1.00
C240   C     0.83550   0.01701   0.04817   0.00000  Uiso   1.00
C241   C     0.82142   0.99114   0.97979   0.00000  Uiso   1.00
C242   C     0.75305   0.94054   0.93975   0.00000  Uiso   1.00
C243   C     0.65073   0.85803   0.85346   0.00000  Uiso   1.00
C244   C     0.81013   0.02867   0.15154   0.00000  Uiso   1.00
C245   C     0.90096   0.02112   0.16911   0.00000  Uiso   1.00
C246   C     0.93169   0.99401   0.20780   0.00000  Uiso   1.00
C247   C     0.01673   0.99156   0.21811   0.00000  Uiso   1.00
C248   C     0.81233   0.10172   0.17533   0.00000  Uiso   1.00
C249   C     0.76851   0.14238   0.21924   0.00000  Uiso   1.00
C250   C     0.77892   0.20778   0.23478   0.00000  Uiso   1.00
C251   C     0.78314   0.99321   0.07559   0.00000  Uiso   1.00
C252   C     0.71478   0.94265   0.03565   0.00000  Uiso   1.00
C253   C     0.70060   0.91670   0.96722   0.00000  Uiso   1.00
H254   H     0.94727   0.09103   0.07970   0.00000  Uiso   1.00
H255   H     0.07882   0.06094   0.13071   0.00000  Uiso   1.00
H256   H     0.91566   0.20928   0.14215   0.00000  Uiso   1.00
H257   H     0.86194   0.00957   0.95858   0.00000  Uiso   1.00
H258   H     0.20159   0.01709   0.19938   0.00000  Uiso   1.00
H259   H     0.85754   0.32987   0.22347   0.00000  Uiso   1.00
H260   H     0.74425   0.90876   0.83639   0.00000  Uiso   1.00
H261   H     0.76937   0.01014   0.17289   0.00000  Uiso   1.00
H262   H     0.89116   0.97560   0.22901   0.00000  Uiso   1.00
H263   H     0.72800   0.12394   0.24045   0.00000  Uiso   1.00
H264   H     0.67428   0.92424   0.05689   0.00000  Uiso   1.00
H265   H     0.04928   0.94783   0.27917   0.00000  Uiso   1.00
H266   H     0.70523   0.26062   0.30326   0.00000  Uiso   1.00
H267   H     0.59194   0.83950   0.91618   0.00000  Uiso   1.00
O268   O     0.20876   0.96122   0.27453   0.00000  Uiso   1.00
O269   O     0.75738   0.37158   0.30613   0.00000  Uiso   1.00
O270   O     0.60876   0.81909   0.79829   0.00000  Uiso   1.00
N271   N     0.14902   0.00552   0.21045   0.00000  Uiso   1.00
N272   N     0.82737   0.29796   0.23298   0.00000  Uiso   1.00
N273   N     0.72145   0.90426   0.87109   0.00000  Uiso   1.00
N274   N     0.06706   0.96825   0.25338   0.00000  Uiso   1.00
N275   N     0.74541   0.26069   0.27591   0.00000  Uiso   1.00
N276   N     0.63949   0.86699   0.91402   0.00000  Uiso   1.00
C277   C     0.39225   0.25595   0.55174   0.00000  Uiso   1.00
C278   C     0.35235   0.19843   0.55652   0.00000  Uiso   1.00
C279   C     0.26976   0.18615   0.55866   0.00000  Uiso   1.00
C280   C     0.24537   0.13095   0.56302   0.00000  Uiso   1.00
C281   C     0.17486   0.04792   0.57008   0.00000  Uiso   1.00
C282   C     0.42728   0.22542   0.49008   0.00000  Uiso   1.00
C283   C     0.40768   0.23584   0.43635   0.00000  Uiso   1.00
C284   C     0.44637   0.20336   0.38478   0.00000  Uiso   1.00
C285   C     0.49222   0.16226   0.28871   0.00000  Uiso   1.00
C286   C     0.46807   0.29180   0.61133   0.00000  Uiso   1.00
C287   C     0.48280   0.35803   0.65955   0.00000  Uiso   1.00
C288   C     0.55585   0.38145   0.71007   0.00000  Uiso   1.00
C289   C     0.66504   0.44341   0.80226   0.00000  Uiso   1.00
C290   C     0.49581   0.17977   0.55569   0.00000  Uiso   1.00
C291   C     0.40860   0.15705   0.55866   0.00000  Uiso   1.00
C292   C     0.38433   0.10186   0.56303   0.00000  Uiso   1.00
C293   C     0.30171   0.08950   0.56517   0.00000  Uiso   1.00
C294   C     0.48352   0.18404   0.49222   0.00000  Uiso   1.00
C295   C     0.52225   0.15155   0.44072   0.00000  Uiso   1.00
C296   C     0.50272   0.16191   0.38693   0.00000  Uiso   1.00
C297   C     0.52432   0.25042   0.61348   0.00000  Uiso   1.00
C298   C     0.59737   0.27374   0.66392   0.00000  Uiso   1.00
C299   C     0.61220   0.33999   0.71221   0.00000  Uiso   1.00
H300   H     0.34846   0.28817   0.55007   0.00000  Uiso   1.00
H301   H     0.22624   0.21818   0.55699   0.00000  Uiso   1.00
H302   H     0.36416   0.26787   0.43471   0.00000  Uiso   1.00
H303   H     0.43926   0.39004   0.65788   0.00000  Uiso   1.00
H304   H     0.11555   0.12233   0.56559   0.00000  Uiso   1.00
H305   H     0.40636   0.22710   0.30776   0.00000  Uiso   1.00
H306   H     0.56473   0.48473   0.77835   0.00000  Uiso   1.00
H307   H     0.53960   0.14756   0.55736   0.00000  Uiso   1.00
H308   H     0.42788   0.06985   0.56468   0.00000  Uiso   1.00
H309   H     0.56578   0.11954   0.44240   0.00000  Uiso   1.00
H310   H     0.64088   0.24171   0.66557   0.00000  Uiso   1.00
H311   H     0.27920   0.00193   0.57183   0.00000  Uiso   1.00
H312   H     0.57001   0.10672   0.31400   0.00000  Uiso   1.00
H313   H     0.72838   0.36434   0.78459   0.00000  Uiso   1.00
O314   O     0.12042   0.01354   0.57337   0.00000  Uiso   1.00
O315   O     0.50197   0.15102   0.23512   0.00000  Uiso   1.00
O316   O     0.70973   0.48901   0.85252   0.00000  Uiso   1.00
N317   N     0.16940   0.10466   0.56606   0.00000  Uiso   1.00
N318   N     0.44128   0.20262   0.32500   0.00000  Uiso   1.00
N319   N     0.58935   0.44348   0.76496   0.00000  Uiso   1.00
N320   N     0.25746   0.03988   0.56942   0.00000  Uiso   1.00
N321   N     0.52934   0.13784   0.32836   0.00000  Uiso   1.00
N322   N     0.67741   0.37870   0.76832   0.00000  Uiso   1.00
C323   C     0.27570   0.26796   0.03101   0.00000  Uiso   1.00
C324   C     0.26018   0.32509   0.09345   0.00000  Uiso   1.00
C325   C     0.18523   0.34835   0.09907   0.00000  Uiso   1.00
C326   C     0.18377   0.40109   0.16044   0.00000  Uiso   1.00
C327   C     0.14887   0.48547   0.24923   0.00000  Uiso   1.00
C328   C     0.30627   0.21908   0.05142   0.00000  Uiso   1.00
C329   C     0.27007   0.15320   0.02169   0.00000  Uiso   1.00
C330   C     0.30742   0.11669   0.04767   0.00000  Uiso   1.00
C331   C     0.34410   0.03646   0.07117   0.00000  Uiso   1.00
C332   C     0.35020   0.29553   0.01599   0.00000  Uiso   1.00
C333   C     0.35095   0.29393   0.95646   0.00000  Uiso   1.00
C334   C     0.42528   0.32178   0.95260   0.00000  Uiso   1.00
C335   C     0.53018   0.36027   0.92109   0.00000  Uiso   1.00
C336   C     0.40639   0.32025   0.12999   0.00000  Uiso   1.00
C337   C     0.33117   0.35350   0.14722   0.00000  Uiso   1.00
C338   C     0.32982   0.40622   0.20859   0.00000  Uiso   1.00
C339   C     0.25488   0.42955   0.21430   0.00000  Uiso   1.00
C340   C     0.37725   0.24748   0.10518   0.00000  Uiso   1.00
C341   C     0.41466   0.21106   0.13120   0.00000  Uiso   1.00
C342   C     0.37853   0.14515   0.10153   0.00000  Uiso   1.00
C343   C     0.42118   0.32394   0.06975   0.00000  Uiso   1.00
C344   C     0.49554   0.35180   0.06598   0.00000  Uiso   1.00
C345   C     0.49640   0.35024   0.00646   0.00000  Uiso   1.00
H346   H     0.22043   0.24584   0.98915   0.00000  Uiso   1.00
H347   H     0.13031   0.32635   0.05746   0.00000  Uiso   1.00
H348   H     0.21514   0.13123   0.98008   0.00000  Uiso   1.00
H349   H     0.29600   0.27194   0.91487   0.00000  Uiso   1.00
H350   H     0.06168   0.42813   0.15690   0.00000  Uiso   1.00
H351   H     0.24058   0.01669   0.99374   0.00000  Uiso   1.00
H352   H     0.41109   0.31341   0.85622   0.00000  Uiso   1.00
H353   H     0.46165   0.34237   0.17185   0.00000  Uiso   1.00
H354   H     0.38476   0.42819   0.25018   0.00000  Uiso   1.00
H355   H     0.46960   0.23306   0.17281   0.00000  Uiso   1.00
H356   H     0.55046   0.37377   0.10759   0.00000  Uiso   1.00
H357   H     0.26820   0.51078   0.31333   0.00000  Uiso   1.00
H358   H     0.44710   0.09934   0.15016   0.00000  Uiso   1.00
H359   H     0.61761   0.39607   0.01265   0.00000  Uiso   1.00
O360   O     0.11000   0.52415   0.28335   0.00000  Uiso   1.00
O361   O     0.34472   0.98436   0.06928   0.00000  Uiso   1.00
O362   O     0.56842   0.37366   0.88886   0.00000  Uiso   1.00
N363   N     0.12084   0.43581   0.18296   0.00000  Uiso   1.00
N364   N     0.28809   0.05115   0.03042   0.00000  Uiso   1.00
N365   N     0.44751   0.32854   0.90185   0.00000  Uiso   1.00
N366   N     0.23197   0.48029   0.26713   0.00000  Uiso   1.00
N367   N     0.39922   0.09562   0.11459   0.00000  Uiso   1.00
N368   N     0.55864   0.37302   0.98602   0.00000  Uiso   1.00
C369   C     0.48208   0.71852   0.04653   0.00000  Uiso   1.00
C370   C     0.47647   0.72033   0.98214   0.00000  Uiso   1.00
C371   C     0.40341   0.70504   0.93377   0.00000  Uiso   1.00
C372   C     0.41149   0.70973   0.87848   0.00000  Uiso   1.00
C373   C     0.39086   0.70964   0.77951   0.00000  Uiso   1.00
C374   C     0.52565   0.78716   0.10303   0.00000  Uiso   1.00
C375   C     0.49394   0.82806   0.15630   0.00000  Uiso   1.00
C376   C     0.54344   0.88901   0.20278   0.00000  Uiso   1.00
C377   C     0.59919   0.99266   0.29152   0.00000  Uiso   1.00
C378   C     0.54300   0.67240   0.04609   0.00000  Uiso   1.00
C379   C     0.52588   0.61681   0.05152   0.00000  Uiso   1.00
C380   C     0.58999   0.58114   0.05008   0.00000  Uiso   1.00
C381   C     0.67267   0.50660   0.05043   0.00000  Uiso   1.00
C382   C     0.62637   0.75401   0.03436   0.00000  Uiso   1.00
C383   C     0.55485   0.73961   0.97553   0.00000  Uiso   1.00
C384   C     0.56305   0.74432   0.92030   0.00000  Uiso   1.00
C385   C     0.49001   0.72904   0.87185   0.00000  Uiso   1.00
C386   C     0.60402   0.80644   0.09642   0.00000  Uiso   1.00
C387   C     0.65359   0.86734   0.14283   0.00000  Uiso   1.00
C388   C     0.62196   0.90832   0.19616   0.00000  Uiso   1.00
C389   C     0.62137   0.69168   0.03948   0.00000  Uiso   1.00
C390   C     0.68553   0.65609   0.03804   0.00000  Uiso   1.00
C391   C     0.66851   0.60046   0.04346   0.00000  Uiso   1.00
H392   H     0.42106   0.70351   0.05169   0.00000  Uiso   1.00
H393   H     0.34276   0.69013   0.93891   0.00000  Uiso   1.00
H394   H     0.43329   0.81313   0.16141   0.00000  Uiso   1.00
H395   H     0.46523   0.60191   0.05663   0.00000  Uiso   1.00
H396   H     0.29051   0.68382   0.81096   0.00000  Uiso   1.00
H397   H     0.48141   0.94316   0.28013   0.00000  Uiso   1.00
H398   H     0.54875   0.49777   0.05920   0.00000  Uiso   1.00
H399   H     0.68740   0.76903   0.02921   0.00000  Uiso   1.00
H400   H     0.62371   0.75924   0.91519   0.00000  Uiso   1.00
H401   H     0.71424   0.88224   0.13770   0.00000  Uiso   1.00
H402   H     0.74617   0.67102   0.03293   0.00000  Uiso   1.00
H403   H     0.51854   0.73992   0.79172   0.00000  Uiso   1.00
H404   H     0.70944   0.99926   0.26089   0.00000  Uiso   1.00
H405   H     0.77677   0.55386   0.03996   0.00000  Uiso   1.00
O406   O     0.35782   0.70427   0.72676   0.00000  Uiso   1.00
O407   O     0.60828   0.04451   0.34229   0.00000  Uiso   1.00
O408   O     0.69662   0.46016   0.05243   0.00000  Uiso   1.00
N409   N     0.35292   0.69835   0.82208   0.00000  Uiso   1.00
N410   N     0.53139   0.94083   0.26072   0.00000  Uiso   1.00
N411   N     0.59435   0.52443   0.05418   0.00000  Uiso   1.00
N412   N     0.47562   0.72854   0.81172   0.00000  Uiso   1.00
N413   N     0.65409   0.97101   0.25036   0.00000  Uiso   1.00
N414   N     0.71705   0.55461   0.04383   0.00000  Uiso   1.00
C415   C     0.81531   0.15270   0.86725   0.00000  Uiso   1.00
C416   C     0.74274   0.11419   0.87370   0.00000  Uiso   1.00
C417   C     0.66550   0.08464   0.82796   0.00000  Uiso   1.00
C418   C     0.60744   0.05170   0.84299   0.00000  Uiso   1.00
C419   C     0.49191   0.99242   0.84410   0.00000  Uiso   1.00
C420   C     0.83633   0.22052   0.92997   0.00000  Uiso   1.00
C421   C     0.83777   0.28037   0.93154   0.00000  Uiso   1.00
C422   C     0.85850   0.33694   0.99394   0.00000  Uiso   1.00
C423   C     0.88832   0.44274   0.08241   0.00000  Uiso   1.00
C424   C     0.89034   0.11932   0.87210   0.00000  Uiso   1.00
C425   C     0.93723   0.09409   0.82503   0.00000  Uiso   1.00
C426   C     0.00345   0.06547   0.83872   0.00000  Uiso   1.00
C427   C     0.11714   0.01414   0.83734   0.00000  Uiso   1.00
C428   C     0.84957   0.14675   0.97527   0.00000  Uiso   1.00
C429   C     0.76135   0.11096   0.93237   0.00000  Uiso   1.00
C430   C     0.70339   0.07805   0.94747   0.00000  Uiso   1.00
C431   C     0.62608   0.04845   0.90177   0.00000  Uiso   1.00
C432   C     0.85493   0.21729   0.98864   0.00000  Uiso   1.00
C433   C     0.87567   0.27378   0.05105   0.00000  Uiso   1.00
C434   C     0.87714   0.33370   0.05272   0.00000  Uiso   1.00
C435   C     0.90895   0.11608   0.93077   0.00000  Uiso   1.00
C436   C     0.97512   0.08750   0.94454   0.00000  Uiso   1.00
C437   C     0.02209   0.06223   0.89749   0.00000  Uiso   1.00
H438   H     0.80083   0.15522   0.82157   0.00000  Uiso   1.00
H439   H     0.65112   0.08716   0.78256   0.00000  Uiso   1.00
H440   H     0.82338   0.28286   0.88613   0.00000  Uiso   1.00
H441   H     0.92281   0.09660   0.77963   0.00000  Uiso   1.00
H442   H     0.49334   0.01029   0.76521   0.00000  Uiso   1.00
H443   H     0.85658   0.42293   0.98357   0.00000  Uiso   1.00
H444   H     0.06626   0.03018   0.75900   0.00000  Uiso   1.00
H445   H     0.86405   0.14423   0.02095   0.00000  Uiso   1.00
H446   H     0.71781   0.07556   0.99288   0.00000  Uiso   1.00
H447   H     0.89007   0.27126   0.09644   0.00000  Uiso   1.00
H448   H     0.98950   0.08501   0.98995   0.00000  Uiso   1.00
H449   H     0.54746   0.00087   0.93591   0.00000  Uiso   1.00
H450   H     0.91071   0.41352   0.15427   0.00000  Uiso   1.00
H451   H     0.12038   0.02077   0.92971   0.00000  Uiso   1.00
O452   O     0.42304   0.96062   0.82851   0.00000  Uiso   1.00
O453   O     0.89962   0.50200   0.11499   0.00000  Uiso   1.00
O454   O     0.17471   0.98672   0.82036   0.00000  Uiso   1.00
N455   N     0.52615   0.01748   0.80923   0.00000  Uiso   1.00
N456   N     0.86575   0.40328   0.01339   0.00000  Uiso   1.00
N457   N     0.06179   0.03611   0.80344   0.00000  Uiso   1.00
N458   N     0.55527   0.01242   0.90108   0.00000  Uiso   1.00
N459   N     0.89487   0.39822   0.10524   0.00000  Uiso   1.00
N460   N     0.09092   0.03105   0.89529   0.00000  Uiso   1.00
C461   C     0.91872   0.76586   0.05910   0.00000  Uiso   1.00
C462   C     0.93630   0.69570   0.02684   0.00000  Uiso   1.00
C463   C     0.87882   0.63951   0.97895   0.00000  Uiso   1.00
C464   C     0.90717   0.57993   0.95568   0.00000  Uiso   1.00
C465   C     0.92186   0.47148   0.90198   0.00000  Uiso   1.00
C466   C     0.94173   0.79216   0.13409   0.00000  Uiso   1.00
C467   C     0.88881   0.81708   0.17637   0.00000  Uiso   1.00
C468   C     0.92173   0.83870   0.24340   0.00000  Uiso   1.00
C469   C     0.94486   0.88005   0.35621   0.00000  Uiso   1.00
C470   C     0.98267   0.80566   0.04644   0.00000  Uiso   1.00
C471   C     0.96418   0.84195   0.01504   0.00000  Uiso   1.00
C472   C     0.03158   0.87495   0.00828   0.00000  Uiso   1.00
C473   C     0.11827   0.93727   0.98501   0.00000  Uiso   1.00
C474   C     0.07129   0.75996   0.10295   0.00000  Uiso   1.00
C475   C     0.01917   0.69250   0.05065   0.00000  Uiso   1.00
C476   C     0.04762   0.63298   0.02745   0.00000  Uiso   1.00
C477   C     0.99019   0.57671   0.97953   0.00000  Uiso   1.00
C478   C     0.02459   0.78896   0.15790   0.00000  Uiso   1.00
C479   C     0.05761   0.81055   0.22488   0.00000  Uiso   1.00
C480   C     0.00475   0.83549   0.26725   0.00000  Uiso   1.00
C481   C     0.06554   0.80246   0.07025   0.00000  Uiso   1.00
C482   C     0.13298   0.83542   0.06354   0.00000  Uiso   1.00
C483   C     0.11459   0.87174   0.03214   0.00000  Uiso   1.00
H484   H     0.85420   0.76836   0.04057   0.00000  Uiso   1.00
H485   H     0.81469   0.64202   0.96054   0.00000  Uiso   1.00
H486   H     0.82469   0.81956   0.15793   0.00000  Uiso   1.00
H487   H     0.90005   0.84442   0.99662   0.00000  Uiso   1.00
H488   H     0.80743   0.50052   0.88232   0.00000  Uiso   1.00
H489   H     0.82850   0.87491   0.29855   0.00000  Uiso   1.00
H490   H     0.98741   0.92734   0.95839   0.00000  Uiso   1.00
H491   H     0.13580   0.75746   0.12149   0.00000  Uiso   1.00
H492   H     0.11175   0.63051   0.04589   0.00000  Uiso   1.00
H493   H     0.12174   0.80806   0.24329   0.00000  Uiso   1.00
H494   H     0.19710   0.83292   0.08198   0.00000  Uiso   1.00
H495   H     0.04853   0.49119   0.95160   0.00000  Uiso   1.00
H496   H     0.06960   0.86558   0.36783   0.00000  Uiso   1.00
H497   H     0.22851   0.91801   0.02767   0.00000  Uiso   1.00
O498   O     0.90706   0.41254   0.86579   0.00000  Uiso   1.00
O499   O     0.93472   0.90374   0.41186   0.00000  Uiso   1.00
O500   O     0.14320   0.97252   0.96558   0.00000  Uiso   1.00
N501   N     0.86748   0.51575   0.90899   0.00000  Uiso   1.00
N502   N     0.88718   0.86577   0.29814   0.00000  Uiso   1.00
N503   N     0.03574   0.91480   0.98014   0.00000  Uiso   1.00
N504   N     0.99721   0.51073   0.94627   0.00000  Uiso   1.00
N505   N     0.01691   0.86075   0.33541   0.00000  Uiso   1.00
N506   N     0.16548   0.90978   0.01741   0.00000  Uiso   1.00
C507   C     0.83964   0.69338   0.52728   0.00000  Uiso   1.00
C508   C     0.82108   0.74988   0.51517   0.00000  Uiso   1.00
C509   C     0.74511   0.77181   0.51325   0.00000  Uiso   1.00
C510   C     0.74079   0.82416   0.50149   0.00000  Uiso   1.00
C511   C     0.70143   0.90741   0.48410   0.00000  Uiso   1.00
C512   C     0.87001   0.64502   0.46757   0.00000  Uiso   1.00
C513   C     0.83519   0.57879   0.42563   0.00000  Uiso   1.00
C514   C     0.87207   0.54287   0.37382   0.00000  Uiso   1.00
C515   C     0.90871   0.46332   0.28256   0.00000  Uiso   1.00
C516   C     0.91516   0.72222   0.58712   0.00000  Uiso   1.00
C517   C     0.91830   0.72088   0.64570   0.00000  Uiso   1.00
C518   C     0.99321   0.74995   0.69454   0.00000  Uiso   1.00
C519   C     0.09995   0.79027   0.78890   0.00000  Uiso   1.00
C520   C     0.96707   0.74736   0.50982   0.00000  Uiso   1.00
C521   C     0.89029   0.77920   0.50569   0.00000  Uiso   1.00
C522   C     0.88609   0.83153   0.49394   0.00000  Uiso   1.00
C523   C     0.81013   0.85354   0.49200   0.00000  Uiso   1.00
C524   C     0.93922   0.67434   0.45809   0.00000  Uiso   1.00
C525   C     0.97617   0.63852   0.40633   0.00000  Uiso   1.00
C526   C     0.94141   0.57225   0.36432   0.00000  Uiso   1.00
C527   C     0.98437   0.75155   0.57764   0.00000  Uiso   1.00
C528   C     0.05929   0.78062   0.62639   0.00000  Uiso   1.00
C529   C     0.06255   0.77933   0.68504   0.00000  Uiso   1.00
H530   H     0.78576   0.67055   0.53465   0.00000  Uiso   1.00
H531   H     0.69156   0.74910   0.52058   0.00000  Uiso   1.00
H532   H     0.78163   0.55611   0.43299   0.00000  Uiso   1.00
H533   H     0.86473   0.69819   0.65302   0.00000  Uiso   1.00
H534   H     0.61763   0.84910   0.50077   0.00000  Uiso   1.00
H535   H     0.80757   0.44217   0.31609   0.00000  Uiso   1.00
H536   H     0.98281   0.74177   0.78007   0.00000  Uiso   1.00
H537   H     0.02096   0.77019   0.50244   0.00000  Uiso   1.00
H538   H     0.93967   0.85421   0.48660   0.00000  Uiso   1.00
H539   H     0.02974   0.66122   0.39901   0.00000  Uiso   1.00
H540   H     0.11284   0.80330   0.61904   0.00000  Uiso   1.00
H541   H     0.81901   0.93441   0.47319   0.00000  Uiso   1.00
H542   H     0.00895   0.52748   0.28851   0.00000  Uiso   1.00
H543   H     0.18419   0.82709   0.75249   0.00000  Uiso   1.00
O544   O     0.66059   0.94522   0.47712   0.00000  Uiso   1.00
O545   O     0.90979   0.41134   0.23483   0.00000  Uiso   1.00
O546   O     0.13970   0.80441   0.84357   0.00000  Uiso   1.00
N547   N     0.67619   0.85766   0.49647   0.00000  Uiso   1.00
N548   N     0.85376   0.47721   0.32379   0.00000  Uiso   1.00
N549   N     0.01760   0.75729   0.75757   0.00000  Uiso   1.00
N550   N     0.78455   0.90356   0.48163   0.00000  Uiso   1.00
N551   N     0.96212   0.52311   0.30895   0.00000  Uiso   1.00
N552   N     0.12596   0.80320   0.74273   0.00000  Uiso   1.00
