data_job_00569
_audit_creation_date              2018-12-19
_audit_creation_method            'Materials Studio'
_symmetry_space_group_name_H-M    'P1'
_symmetry_Int_Tables_number       1
_symmetry_cell_setting            triclinic
loop_
_symmetry_equiv_pos_as_xyz
  x,y,z
_cell_length_a                    19.1427
_cell_length_b                    19.1427
_cell_length_c                    12.0253
_cell_angle_alpha                 90.0000
_cell_angle_beta                  90.0000
_cell_angle_gamma                 120.0000
loop_
_atom_site_label
_atom_site_type_symbol
_atom_site_fract_x
_atom_site_fract_y
_atom_site_fract_z
_atom_site_U_iso_or_equiv
_atom_site_adp_type
_atom_site_occupancy
C1     C     0.11558   0.64031   0.29323   0.00000  Uiso   1.00
C2     C     0.09981   0.68077   0.19481   0.00000  Uiso   1.00
C3     C     0.02646   0.65258   0.14088   0.00000  Uiso   1.00
C4     C     0.02445   0.69829   0.05261   0.00000  Uiso   1.00
C5     C     0.98949   0.75024   0.90478   0.00000  Uiso   1.00
C6     C     0.18438   0.62676   0.25772   0.00000  Uiso   1.00
C7     C     0.18213   0.55316   0.25670   0.00000  Uiso   1.00
C8     C     0.25131   0.55342   0.22140   0.00000  Uiso   1.00
C9     C     0.34766   0.52153   0.17133   0.00000  Uiso   1.00
C10    C     0.14951   0.70339   0.38544   0.00000  Uiso   1.00
C11    C     0.11796   0.69422   0.49182   0.00000  Uiso   1.00
C12    C     0.15780   0.75898   0.56407   0.00000  Uiso   1.00
C13    C     0.20001   0.84606   0.71230   0.00000  Uiso   1.00
C14    C     0.24246   0.77163   0.23238   0.00000  Uiso   1.00
C15    C     0.16873   0.75209   0.16176   0.00000  Uiso   1.00
C16    C     0.16683   0.79786   0.07355   0.00000  Uiso   1.00
C17    C     0.09348   0.76975   0.01950   0.00000  Uiso   1.00
C18    C     0.25329   0.69808   0.22467   0.00000  Uiso   1.00
C19    C     0.32250   0.69845   0.18938   0.00000  Uiso   1.00
C20    C     0.32035   0.62487   0.18829   0.00000  Uiso   1.00
C21    C     0.21842   0.77472   0.35239   0.00000  Uiso   1.00
C22    C     0.25833   0.83950   0.42449   0.00000  Uiso   1.00
C23    C     0.22684   0.83043   0.53096   0.00000  Uiso   1.00
H24    H     0.06194   0.58478   0.31896   0.00000  Uiso   1.00
H25    H     0.97314   0.59738   0.16647   0.00000  Uiso   1.00
H26    H     0.12879   0.49798   0.28229   0.00000  Uiso   1.00
H27    H     0.06463   0.63901   0.51737   0.00000  Uiso   1.00
H28    H     0.90510   0.64278   0.98281   0.00000  Uiso   1.00
H29    H     0.23330   0.43320   0.22706   0.00000  Uiso   1.00
H30    H     0.09800   0.73059   0.72277   0.00000  Uiso   1.00
H31    H     0.29611   0.82716   0.20665   0.00000  Uiso   1.00
H32    H     0.22017   0.85306   0.04799   0.00000  Uiso   1.00
H33    H     0.37582   0.75365   0.16381   0.00000  Uiso   1.00
H34    H     0.31165   0.89469   0.39889   0.00000  Uiso   1.00
H35    H     0.10559   0.85030   0.88664   0.00000  Uiso   1.00
H36    H     0.43380   0.64071   0.13090   0.00000  Uiso   1.00
H37    H     0.29850   0.93811   0.62660   0.00000  Uiso   1.00
O38    O     0.95117   0.75919   0.83236   0.00000  Uiso   1.00
O39    O     0.38176   0.48423   0.15283   0.00000  Uiso   1.00
O40    O     0.20425   0.87440   0.80318   0.00000  Uiso   1.00
N41    N     0.96270   0.68807   0.98197   0.00000  Uiso   1.00
N42    N     0.26955   0.49213   0.21030   0.00000  Uiso   1.00
N43    N     0.14307   0.77015   0.67376   0.00000  Uiso   1.00
N44    N     0.07059   0.79974   0.93022   0.00000  Uiso   1.00
N45    N     0.37743   0.60379   0.15856   0.00000  Uiso   1.00
N46    N     0.25095   0.88182   0.62202   0.00000  Uiso   1.00
C47    C     0.85797   0.37816   0.21002   0.00000  Uiso   1.00
C48    C     0.87773   0.36980   0.08962   0.00000  Uiso   1.00
C49    C     0.92390   0.43302   0.01762   0.00000  Uiso   1.00
C50    C     0.93498   0.41282   0.91078   0.00000  Uiso   1.00
C51    C     0.97079   0.41209   0.72891   0.00000  Uiso   1.00
C52    C     0.76619   0.33181   0.21846   0.00000  Uiso   1.00
C53    C     0.71858   0.36309   0.25480   0.00000  Uiso   1.00
C54    C     0.63577   0.31090   0.25642   0.00000  Uiso   1.00
C55    C     0.49841   0.25118   0.27465   0.00000  Uiso   1.00
C56    C     0.88721   0.33122   0.27968   0.00000  Uiso   1.00
C57    C     0.94134   0.36200   0.36752   0.00000  Uiso   1.00
C58    C     0.96040   0.30931   0.42070   0.00000  Uiso   1.00
C59    C     0.01095   0.24867   0.53399   0.00000  Uiso   1.00
C60    C     0.79556   0.22983   0.14830   0.00000  Uiso   1.00
C61    C     0.84383   0.28923   0.05610   0.00000  Uiso   1.00
C62    C     0.85485   0.26892   0.94933   0.00000  Uiso   1.00
C63    C     0.90102   0.33211   0.87719   0.00000  Uiso   1.00
C64    C     0.73229   0.25125   0.18493   0.00000  Uiso   1.00
C65    C     0.64953   0.19899   0.18651   0.00000  Uiso   1.00
C66    C     0.60180   0.23019   0.22283   0.00000  Uiso   1.00
C67    C     0.85331   0.25066   0.24615   0.00000  Uiso   1.00
C68    C     0.87229   0.19790   0.29922   0.00000  Uiso   1.00
C69    C     0.92644   0.22860   0.38712   0.00000  Uiso   1.00
H70    H     0.88436   0.44088   0.23612   0.00000  Uiso   1.00
H71    H     0.95012   0.49536   0.04360   0.00000  Uiso   1.00
H72    H     0.74483   0.42544   0.28075   0.00000  Uiso   1.00
H73    H     0.96756   0.42435   0.39344   0.00000  Uiso   1.00
H74    H     0.00805   0.52025   0.81535   0.00000  Uiso   1.00
H75    H     0.57519   0.37280   0.31543   0.00000  Uiso   1.00
H76    H     0.04486   0.37050   0.55307   0.00000  Uiso   1.00
H77    H     0.76916   0.16711   0.12219   0.00000  Uiso   1.00
H78    H     0.82861   0.20657   0.92341   0.00000  Uiso   1.00
H79    H     0.62332   0.13665   0.16056   0.00000  Uiso   1.00
H80    H     0.84604   0.13556   0.27325   0.00000  Uiso   1.00
H81    H     0.90942   0.28585   0.71780   0.00000  Uiso   1.00
H82    H     0.47657   0.13841   0.21788   0.00000  Uiso   1.00
H83    H     0.94623   0.13611   0.45552   0.00000  Uiso   1.00
O84    O     0.99989   0.43395   0.63785   0.00000  Uiso   1.00
O85    O     0.43201   0.24051   0.29396   0.00000  Uiso   1.00
O86    O     0.04820   0.23749   0.60573   0.00000  Uiso   1.00
N87    N     0.97669   0.45966   0.81968   0.00000  Uiso   1.00
N88    N     0.57200   0.32182   0.28720   0.00000  Uiso   1.00
N89    N     0.01108   0.31966   0.50940   0.00000  Uiso   1.00
N90    N     0.92362   0.33354   0.76719   0.00000  Uiso   1.00
N91    N     0.51893   0.19569   0.23471   0.00000  Uiso   1.00
N92    N     0.95801   0.19354   0.45691   0.00000  Uiso   1.00
C93    C     0.35969   0.47527   0.62656   0.00000  Uiso   1.00
C94    C     0.31923   0.41904   0.52814   0.00000  Uiso   1.00
C95    C     0.34742   0.37388   0.47421   0.00000  Uiso   1.00
C96    C     0.30171   0.32615   0.38594   0.00000  Uiso   1.00
C97    C     0.24976   0.23924   0.23811   0.00000  Uiso   1.00
C98    C     0.37324   0.55762   0.59106   0.00000  Uiso   1.00
C99    C     0.44684   0.62896   0.59003   0.00000  Uiso   1.00
C100   C     0.44658   0.69789   0.55474   0.00000  Uiso   1.00
C101   C     0.47847   0.82613   0.50466   0.00000  Uiso   1.00
C102   C     0.29661   0.44612   0.71878   0.00000  Uiso   1.00
C103   C     0.30578   0.42374   0.82516   0.00000  Uiso   1.00
C104   C     0.24102   0.39882   0.89740   0.00000  Uiso   1.00
C105   C     0.15394   0.35394   0.04563   0.00000  Uiso   1.00
C106   C     0.22837   0.47083   0.56571   0.00000  Uiso   1.00
C107   C     0.24791   0.41664   0.49509   0.00000  Uiso   1.00
C108   C     0.20214   0.36896   0.40689   0.00000  Uiso   1.00
C109   C     0.23025   0.32374   0.35283   0.00000  Uiso   1.00
C110   C     0.30192   0.55521   0.55801   0.00000  Uiso   1.00
C111   C     0.30155   0.62405   0.52271   0.00000  Uiso   1.00
C112   C     0.37513   0.69548   0.52163   0.00000  Uiso   1.00
C113   C     0.22528   0.44371   0.68573   0.00000  Uiso   1.00
C114   C     0.16050   0.41883   0.75783   0.00000  Uiso   1.00
C115   C     0.16957   0.39641   0.86429   0.00000  Uiso   1.00
H116   H     0.41522   0.47715   0.65229   0.00000  Uiso   1.00
H117   H     0.40262   0.37576   0.49981   0.00000  Uiso   1.00
H118   H     0.50202   0.63081   0.61562   0.00000  Uiso   1.00
H119   H     0.36099   0.42561   0.85070   0.00000  Uiso   1.00
H120   H     0.35722   0.26232   0.31614   0.00000  Uiso   1.00
H121   H     0.56680   0.80010   0.56039   0.00000  Uiso   1.00
H122   H     0.26941   0.36741   0.05610   0.00000  Uiso   1.00
H123   H     0.17284   0.46896   0.53998   0.00000  Uiso   1.00
H124   H     0.14694   0.36711   0.38133   0.00000  Uiso   1.00
H125   H     0.24635   0.62216   0.49714   0.00000  Uiso   1.00
H126   H     0.10531   0.41697   0.73222   0.00000  Uiso   1.00
H127   H     0.14970   0.25530   0.21998   0.00000  Uiso   1.00
H128   H     0.35929   0.79308   0.46423   0.00000  Uiso   1.00
H129   H     0.06189   0.36039   0.95994   0.00000  Uiso   1.00
O130   O     0.24081   0.19198   0.16570   0.00000  Uiso   1.00
O131   O     0.51577   0.89753   0.48616   0.00000  Uiso   1.00
O132   O     0.12560   0.32985   0.13652   0.00000  Uiso   1.00
N133   N     0.31193   0.27463   0.31530   0.00000  Uiso   1.00
N134   N     0.50787   0.77742   0.54364   0.00000  Uiso   1.00
N135   N     0.22985   0.37291   0.00710   0.00000  Uiso   1.00
N136   N     0.20026   0.27085   0.26355   0.00000  Uiso   1.00
N137   N     0.39621   0.77364   0.49189   0.00000  Uiso   1.00
N138   N     0.11818   0.36913   0.95535   0.00000  Uiso   1.00
C139   C     0.62184   0.47981   0.54335   0.00000  Uiso   1.00
C140   C     0.63020   0.50793   0.42295   0.00000  Uiso   1.00
C141   C     0.56698   0.49087   0.35096   0.00000  Uiso   1.00
C142   C     0.58718   0.52216   0.24411   0.00000  Uiso   1.00
C143   C     0.58791   0.55869   0.06224   0.00000  Uiso   1.00
C144   C     0.66819   0.43438   0.55179   0.00000  Uiso   1.00
C145   C     0.63691   0.35548   0.58813   0.00000  Uiso   1.00
C146   C     0.68910   0.32486   0.58975   0.00000  Uiso   1.00
C147   C     0.74882   0.24722   0.60798   0.00000  Uiso   1.00
C148   C     0.66878   0.55599   0.61301   0.00000  Uiso   1.00
C149   C     0.63800   0.57934   0.70085   0.00000  Uiso   1.00
C150   C     0.69069   0.65110   0.75403   0.00000  Uiso   1.00
C151   C     0.75133   0.76227   0.86732   0.00000  Uiso   1.00
C152   C     0.77017   0.56572   0.48163   0.00000  Uiso   1.00
C153   C     0.71077   0.55459   0.38943   0.00000  Uiso   1.00
C154   C     0.73108   0.58592   0.28267   0.00000  Uiso   1.00
C155   C     0.66789   0.56891   0.21052   0.00000  Uiso   1.00
C156   C     0.74875   0.48104   0.51827   0.00000  Uiso   1.00
C157   C     0.80101   0.45053   0.51984   0.00000  Uiso   1.00
C158   C     0.76981   0.37161   0.55617   0.00000  Uiso   1.00
C159   C     0.74934   0.60266   0.57949   0.00000  Uiso   1.00
C160   C     0.80210   0.67439   0.63255   0.00000  Uiso   1.00
C161   C     0.77140   0.69784   0.72045   0.00000  Uiso   1.00
H162   H     0.55912   0.44348   0.56946   0.00000  Uiso   1.00
H163   H     0.50464   0.45475   0.37693   0.00000  Uiso   1.00
H164   H     0.57456   0.31939   0.61408   0.00000  Uiso   1.00
H165   H     0.57565   0.54321   0.72677   0.00000  Uiso   1.00
H166   H     0.47975   0.48780   0.14868   0.00000  Uiso   1.00
H167   H     0.62720   0.20239   0.64876   0.00000  Uiso   1.00
H168   H     0.62950   0.67436   0.88640   0.00000  Uiso   1.00
H169   H     0.83289   0.60205   0.45553   0.00000  Uiso   1.00
H170   H     0.79343   0.62203   0.25674   0.00000  Uiso   1.00
H171   H     0.86335   0.48666   0.49389   0.00000  Uiso   1.00
H172   H     0.86444   0.71048   0.60659   0.00000  Uiso   1.00
H173   H     0.71415   0.62357   0.05113   0.00000  Uiso   1.00
H174   H     0.86159   0.33816   0.55122   0.00000  Uiso   1.00
H175   H     0.86389   0.81012   0.78885   0.00000  Uiso   1.00
O176   O     0.56605   0.56594   0.97119   0.00000  Uiso   1.00
O177   O     0.75949   0.19150   0.62729   0.00000  Uiso   1.00
O178   O     0.76251   0.81071   0.93906   0.00000  Uiso   1.00
N179   N     0.54034   0.51703   0.15301   0.00000  Uiso   1.00
N180   N     0.67818   0.25018   0.62054   0.00000  Uiso   1.00
N181   N     0.68034   0.69142   0.84273   0.00000  Uiso   1.00
N182   N     0.66646   0.59008   0.10052   0.00000  Uiso   1.00
N183   N     0.80431   0.32324   0.56805   0.00000  Uiso   1.00
N184   N     0.80646   0.76447   0.79024   0.00000  Uiso   1.00
C185   C     0.52473   0.88442   0.95990   0.00000  Uiso   1.00
C186   C     0.58096   0.90019   0.86148   0.00000  Uiso   1.00
C187   C     0.62612   0.97354   0.80754   0.00000  Uiso   1.00
C188   C     0.67385   0.97555   0.71927   0.00000  Uiso   1.00
C189   C     0.76076   0.01051   0.57145   0.00000  Uiso   1.00
C190   C     0.44238   0.81562   0.92439   0.00000  Uiso   1.00
C191   C     0.37104   0.81787   0.92337   0.00000  Uiso   1.00
C192   C     0.30211   0.74869   0.88807   0.00000  Uiso   1.00
C193   C     0.17387   0.65234   0.83800   0.00000  Uiso   1.00
C194   C     0.55388   0.85049   0.05211   0.00000  Uiso   1.00
C195   C     0.57626   0.88204   0.15849   0.00000  Uiso   1.00
C196   C     0.60118   0.84220   0.23073   0.00000  Uiso   1.00
C197   C     0.64606   0.79999   0.37897   0.00000  Uiso   1.00
C198   C     0.52917   0.75754   0.89905   0.00000  Uiso   1.00
C199   C     0.58336   0.83127   0.82843   0.00000  Uiso   1.00
C200   C     0.63104   0.83317   0.74022   0.00000  Uiso   1.00
C201   C     0.67626   0.90652   0.68616   0.00000  Uiso   1.00
C202   C     0.44479   0.74671   0.89134   0.00000  Uiso   1.00
C203   C     0.37595   0.67750   0.85604   0.00000  Uiso   1.00
C204   C     0.30452   0.67965   0.85496   0.00000  Uiso   1.00
C205   C     0.55629   0.78158   0.01906   0.00000  Uiso   1.00
C206   C     0.58117   0.74167   0.09116   0.00000  Uiso   1.00
C207   C     0.60359   0.77316   0.19762   0.00000  Uiso   1.00
H208   H     0.52285   0.93806   0.98563   0.00000  Uiso   1.00
H209   H     0.62424   0.02686   0.83314   0.00000  Uiso   1.00
H210   H     0.36919   0.87121   0.94896   0.00000  Uiso   1.00
H211   H     0.57439   0.93537   0.18404   0.00000  Uiso   1.00
H212   H     0.73768   0.09490   0.64948   0.00000  Uiso   1.00
H213   H     0.19990   0.76670   0.89372   0.00000  Uiso   1.00
H214   H     0.63259   0.90200   0.38944   0.00000  Uiso   1.00
H215   H     0.53104   0.70389   0.87331   0.00000  Uiso   1.00
H216   H     0.63289   0.77983   0.71466   0.00000  Uiso   1.00
H217   H     0.37784   0.62418   0.83048   0.00000  Uiso   1.00
H218   H     0.58303   0.68835   0.06556   0.00000  Uiso   1.00
H219   H     0.74470   0.89441   0.55331   0.00000  Uiso   1.00
H220   H     0.20692   0.56620   0.79756   0.00000  Uiso   1.00
H221   H     0.63961   0.70150   0.29327   0.00000  Uiso   1.00
O222   O     0.80802   0.04883   0.49903   0.00000  Uiso   1.00
O223   O     0.10247   0.61824   0.81949   0.00000  Uiso   1.00
O224   O     0.67015   0.79575   0.46985   0.00000  Uiso   1.00
N225   N     0.72537   0.03730   0.64863   0.00000  Uiso   1.00
N226   N     0.22258   0.73045   0.87697   0.00000  Uiso   1.00
N227   N     0.62709   0.85693   0.34043   0.00000  Uiso   1.00
N228   N     0.72915   0.92941   0.59689   0.00000  Uiso   1.00
N229   N     0.22636   0.62257   0.82522   0.00000  Uiso   1.00
N230   N     0.63087   0.74905   0.28869   0.00000  Uiso   1.00
C231   C     0.52019   0.14203   0.87669   0.00000  Uiso   1.00
C232   C     0.49207   0.12227   0.75629   0.00000  Uiso   1.00
C233   C     0.50913   0.07610   0.68429   0.00000  Uiso   1.00
C234   C     0.47784   0.06502   0.57744   0.00000  Uiso   1.00
C235   C     0.44131   0.02921   0.39558   0.00000  Uiso   1.00
C236   C     0.56562   0.23381   0.88512   0.00000  Uiso   1.00
C237   C     0.64452   0.28142   0.92146   0.00000  Uiso   1.00
C238   C     0.67514   0.36423   0.92308   0.00000  Uiso   1.00
C239   C     0.75278   0.50159   0.94132   0.00000  Uiso   1.00
C240   C     0.44401   0.11279   0.94634   0.00000  Uiso   1.00
C241   C     0.42066   0.05866   0.03419   0.00000  Uiso   1.00
C242   C     0.34890   0.03960   0.08737   0.00000  Uiso   1.00
C243   C     0.23773   0.98905   0.20066   0.00000  Uiso   1.00
C244   C     0.43428   0.20444   0.81496   0.00000  Uiso   1.00
C245   C     0.44541   0.15617   0.72276   0.00000  Uiso   1.00
C246   C     0.41408   0.14515   0.61600   0.00000  Uiso   1.00
C247   C     0.43109   0.09898   0.54386   0.00000  Uiso   1.00
C248   C     0.51896   0.26771   0.85160   0.00000  Uiso   1.00
C249   C     0.54947   0.35047   0.85317   0.00000  Uiso   1.00
C250   C     0.62839   0.39820   0.88950   0.00000  Uiso   1.00
C251   C     0.39734   0.14669   0.91282   0.00000  Uiso   1.00
C252   C     0.32561   0.12771   0.96589   0.00000  Uiso   1.00
C253   C     0.30216   0.07356   0.05378   0.00000  Uiso   1.00
H254   H     0.55652   0.11564   0.90279   0.00000  Uiso   1.00
H255   H     0.54525   0.04988   0.71026   0.00000  Uiso   1.00
H256   H     0.68061   0.25517   0.94741   0.00000  Uiso   1.00
H257   H     0.45679   0.03244   0.06010   0.00000  Uiso   1.00
H258   H     0.51220   0.99195   0.48202   0.00000  Uiso   1.00
H259   H     0.79761   0.42481   0.98209   0.00000  Uiso   1.00
H260   H     0.32564   0.95514   0.21973   0.00000  Uiso   1.00
H261   H     0.39795   0.23084   0.78886   0.00000  Uiso   1.00
H262   H     0.37797   0.17139   0.59008   0.00000  Uiso   1.00
H263   H     0.51334   0.37668   0.82723   0.00000  Uiso   1.00
H264   H     0.28952   0.15396   0.93992   0.00000  Uiso   1.00
H265   H     0.37643   0.09058   0.38447   0.00000  Uiso   1.00
H266   H     0.66184   0.52343   0.88455   0.00000  Uiso   1.00
H267   H     0.18988   0.05377   0.12218   0.00000  Uiso   1.00
O268   O     0.43406   0.00011   0.30452   0.00000  Uiso   1.00
O269   O     0.80850   0.56799   0.96062   0.00000  Uiso   1.00
O270   O     0.18929   0.95180   0.27239   0.00000  Uiso   1.00
N271   N     0.48297   0.02331   0.48635   0.00000  Uiso   1.00
N272   N     0.74982   0.42800   0.95387   0.00000  Uiso   1.00
N273   N     0.30858   0.98892   0.17606   0.00000  Uiso   1.00
N274   N     0.40992   0.07638   0.43386   0.00000  Uiso   1.00
N275   N     0.67676   0.48107   0.90138   0.00000  Uiso   1.00
N276   N     0.23553   0.04199   0.12357   0.00000  Uiso   1.00
