data_job_02064
_audit_creation_date              2018-12-19
_audit_creation_method            'Materials Studio'
_symmetry_space_group_name_H-M    'P1'
_symmetry_Int_Tables_number       1
_symmetry_cell_setting            triclinic
loop_
_symmetry_equiv_pos_as_xyz
  x,y,z
_cell_length_a                    22.8930
_cell_length_b                    22.8930
_cell_length_c                    12.4246
_cell_angle_alpha                 90.0000
_cell_angle_beta                  90.0000
_cell_angle_gamma                 120.0000
loop_
_atom_site_label
_atom_site_type_symbol
_atom_site_fract_x
_atom_site_fract_y
_atom_site_fract_z
_atom_site_U_iso_or_equiv
_atom_site_adp_type
_atom_site_occupancy
C1     C     0.67283   0.04677   0.09212   0.00000  Uiso   1.00
C2     C     0.70866   0.05940   0.98395   0.00000  Uiso   1.00
C3     C     0.72930   0.11595   0.91966   0.00000  Uiso   1.00
C4     C     0.76123   0.11796   0.82359   0.00000  Uiso   1.00
C5     C     0.81519   0.14556   0.66027   0.00000  Uiso   1.00
C6     C     0.60743   0.97952   0.08116   0.00000  Uiso   1.00
C7     C     0.54296   0.96892   0.09861   0.00000  Uiso   1.00
C8     C     0.48968   0.90368   0.08439   0.00000  Uiso   1.00
C9     C     0.38647   0.80726   0.07206   0.00000  Uiso   1.00
C10    C     0.71610   0.03493   0.17266   0.00000  Uiso   1.00
C11    C     0.74299   0.07090   0.26707   0.00000  Uiso   1.00
C12    C     0.78119   0.05230   0.32990   0.00000  Uiso   1.00
C13    C     0.84671   0.04190   0.45964   0.00000  Uiso   1.00
C14    C     0.69284   0.94977   0.03584   0.00000  Uiso   1.00
C15    C     0.71953   0.00671   0.95338   0.00000  Uiso   1.00
C16    C     0.75144   0.00863   0.85739   0.00000  Uiso   1.00
C17    C     0.77212   0.06518   0.79297   0.00000  Uiso   1.00
C18    C     0.61830   0.92683   0.05059   0.00000  Uiso   1.00
C19    C     0.56510   0.86160   0.03635   0.00000  Uiso   1.00
C20    C     0.50056   0.85090   0.05377   0.00000  Uiso   1.00
C21    C     0.72697   0.98224   0.14209   0.00000  Uiso   1.00
C22    C     0.76513   0.96358   0.20480   0.00000  Uiso   1.00
C23    C     0.79208   0.99951   0.29928   0.00000  Uiso   1.00
H24    H     0.66436   0.08779   0.11592   0.00000  Uiso   1.00
H25    H     0.72087   0.15671   0.94334   0.00000  Uiso   1.00
H26    H     0.53456   0.00970   0.12228   0.00000  Uiso   1.00
H27    H     0.73457   0.11166   0.29070   0.00000  Uiso   1.00
H28    H     0.78830   0.20988   0.73851   0.00000  Uiso   1.00
H29    H     0.39545   0.89989   0.11584   0.00000  Uiso   1.00
H30    H     0.81720   0.11490   0.47100   0.00000  Uiso   1.00
H31    H     0.70130   0.90875   0.01204   0.00000  Uiso   1.00
H32    H     0.75984   0.96785   0.83376   0.00000  Uiso   1.00
H33    H     0.57353   0.82084   0.01269   0.00000  Uiso   1.00
H34    H     0.77353   0.92280   0.18112   0.00000  Uiso   1.00
H35    H     0.81992   0.05659   0.64956   0.00000  Uiso   1.00
H36    H     0.42708   0.74660   0.02691   0.00000  Uiso   1.00
H37    H     0.84883   0.96161   0.38206   0.00000  Uiso   1.00
O38    O     0.84193   0.17533   0.57862   0.00000  Uiso   1.00
O39    O     0.32654   0.76864   0.07369   0.00000  Uiso   1.00
O40    O     0.87986   0.05073   0.53964   0.00000  Uiso   1.00
N41    N     0.78772   0.16570   0.74205   0.00000  Uiso   1.00
N42    N     0.42043   0.87588   0.09482   0.00000  Uiso   1.00
N43    N     0.81471   0.07689   0.42688   0.00000  Uiso   1.00
N44    N     0.80474   0.08322   0.69419   0.00000  Uiso   1.00
N45    N     0.43745   0.79340   0.04696   0.00000  Uiso   1.00
N46    N     0.83173   0.99440   0.37902   0.00000  Uiso   1.00
C47    C     0.95323   0.62605   0.09212   0.00000  Uiso   1.00
C48    C     0.94060   0.64926   0.98395   0.00000  Uiso   1.00
C49    C     0.88405   0.61335   0.91966   0.00000  Uiso   1.00
C50    C     0.88204   0.64327   0.82359   0.00000  Uiso   1.00
C51    C     0.85444   0.66963   0.66027   0.00000  Uiso   1.00
C52    C     0.02048   0.62791   0.08116   0.00000  Uiso   1.00
C53    C     0.03108   0.57404   0.09861   0.00000  Uiso   1.00
C54    C     0.09632   0.58599   0.08439   0.00000  Uiso   1.00
C55    C     0.19274   0.57921   0.07206   0.00000  Uiso   1.00
C56    C     0.96507   0.68117   0.17266   0.00000  Uiso   1.00
C57    C     0.92910   0.67209   0.26707   0.00000  Uiso   1.00
C58    C     0.94770   0.72889   0.32990   0.00000  Uiso   1.00
C59    C     0.95810   0.80481   0.45964   0.00000  Uiso   1.00
C60    C     0.05023   0.74307   0.03584   0.00000  Uiso   1.00
C61    C     0.99329   0.71282   0.95338   0.00000  Uiso   1.00
C62    C     0.99137   0.74281   0.85739   0.00000  Uiso   1.00
C63    C     0.93482   0.70694   0.79297   0.00000  Uiso   1.00
C64    C     0.07317   0.69146   0.05059   0.00000  Uiso   1.00
C65    C     0.13840   0.70350   0.03635   0.00000  Uiso   1.00
C66    C     0.14910   0.64966   0.05377   0.00000  Uiso   1.00
C67    C     0.01776   0.74473   0.14209   0.00000  Uiso   1.00
C68    C     0.03642   0.80156   0.20480   0.00000  Uiso   1.00
C69    C     0.00049   0.79256   0.29928   0.00000  Uiso   1.00
H70    H     0.91221   0.57657   0.11592   0.00000  Uiso   1.00
H71    H     0.84329   0.56416   0.94334   0.00000  Uiso   1.00
H72    H     0.99030   0.52486   0.12228   0.00000  Uiso   1.00
H73    H     0.88834   0.62290   0.29070   0.00000  Uiso   1.00
H74    H     0.79012   0.57842   0.73851   0.00000  Uiso   1.00
H75    H     0.10011   0.49556   0.11584   0.00000  Uiso   1.00
H76    H     0.88510   0.70230   0.47100   0.00000  Uiso   1.00
H77    H     0.09125   0.79255   0.01204   0.00000  Uiso   1.00
H78    H     0.03215   0.79199   0.83376   0.00000  Uiso   1.00
H79    H     0.17916   0.75269   0.01269   0.00000  Uiso   1.00
H80    H     0.07720   0.85073   0.18112   0.00000  Uiso   1.00
H81    H     0.94341   0.76333   0.64956   0.00000  Uiso   1.00
H82    H     0.25340   0.68048   0.02691   0.00000  Uiso   1.00
H83    H     0.03839   0.88721   0.38206   0.00000  Uiso   1.00
O84    O     0.82467   0.66660   0.57862   0.00000  Uiso   1.00
O85    O     0.23136   0.55790   0.07369   0.00000  Uiso   1.00
O86    O     0.94927   0.82913   0.53964   0.00000  Uiso   1.00
N87    N     0.83430   0.62202   0.74205   0.00000  Uiso   1.00
N88    N     0.12412   0.54455   0.09482   0.00000  Uiso   1.00
N89    N     0.92311   0.73783   0.42688   0.00000  Uiso   1.00
N90    N     0.91678   0.72152   0.69419   0.00000  Uiso   1.00
N91    N     0.20660   0.64405   0.04696   0.00000  Uiso   1.00
N92    N     0.00560   0.83733   0.37902   0.00000  Uiso   1.00
C93    C     0.37395   0.32717   0.09212   0.00000  Uiso   1.00
C94    C     0.35074   0.29134   0.98395   0.00000  Uiso   1.00
C95    C     0.38665   0.27070   0.91966   0.00000  Uiso   1.00
C96    C     0.35673   0.23877   0.82359   0.00000  Uiso   1.00
C97    C     0.33037   0.18481   0.66027   0.00000  Uiso   1.00
C98    C     0.37209   0.39257   0.08116   0.00000  Uiso   1.00
C99    C     0.42596   0.45704   0.09861   0.00000  Uiso   1.00
C100   C     0.41401   0.51032   0.08439   0.00000  Uiso   1.00
C101   C     0.42079   0.61353   0.07206   0.00000  Uiso   1.00
C102   C     0.31883   0.28390   0.17266   0.00000  Uiso   1.00
C103   C     0.32791   0.25701   0.26707   0.00000  Uiso   1.00
C104   C     0.27111   0.21881   0.32990   0.00000  Uiso   1.00
C105   C     0.19519   0.15329   0.45964   0.00000  Uiso   1.00
C106   C     0.25693   0.30716   0.03584   0.00000  Uiso   1.00
C107   C     0.28718   0.28047   0.95338   0.00000  Uiso   1.00
C108   C     0.25719   0.24856   0.85739   0.00000  Uiso   1.00
C109   C     0.29306   0.22788   0.79297   0.00000  Uiso   1.00
C110   C     0.30854   0.38170   0.05059   0.00000  Uiso   1.00
C111   C     0.29650   0.43490   0.03635   0.00000  Uiso   1.00
C112   C     0.35034   0.49944   0.05377   0.00000  Uiso   1.00
C113   C     0.25527   0.27303   0.14209   0.00000  Uiso   1.00
C114   C     0.19844   0.23487   0.20480   0.00000  Uiso   1.00
C115   C     0.20744   0.20792   0.29928   0.00000  Uiso   1.00
H116   H     0.42343   0.33564   0.11592   0.00000  Uiso   1.00
H117   H     0.43584   0.27913   0.94334   0.00000  Uiso   1.00
H118   H     0.47514   0.46544   0.12228   0.00000  Uiso   1.00
H119   H     0.37710   0.26543   0.29070   0.00000  Uiso   1.00
H120   H     0.42158   0.21170   0.73851   0.00000  Uiso   1.00
H121   H     0.50444   0.60455   0.11584   0.00000  Uiso   1.00
H122   H     0.29770   0.18280   0.47100   0.00000  Uiso   1.00
H123   H     0.20745   0.29870   0.01204   0.00000  Uiso   1.00
H124   H     0.20801   0.24016   0.83376   0.00000  Uiso   1.00
H125   H     0.24731   0.42647   0.01269   0.00000  Uiso   1.00
H126   H     0.14927   0.22647   0.18112   0.00000  Uiso   1.00
H127   H     0.23667   0.18008   0.64956   0.00000  Uiso   1.00
H128   H     0.31952   0.57292   0.02691   0.00000  Uiso   1.00
H129   H     0.11279   0.15117   0.38206   0.00000  Uiso   1.00
O130   O     0.33340   0.15807   0.57862   0.00000  Uiso   1.00
O131   O     0.44210   0.67346   0.07369   0.00000  Uiso   1.00
O132   O     0.17087   0.12014   0.53964   0.00000  Uiso   1.00
N133   N     0.37798   0.21228   0.74205   0.00000  Uiso   1.00
N134   N     0.45545   0.57957   0.09482   0.00000  Uiso   1.00
N135   N     0.26217   0.18529   0.42688   0.00000  Uiso   1.00
N136   N     0.27848   0.19526   0.69419   0.00000  Uiso   1.00
N137   N     0.35595   0.56255   0.04696   0.00000  Uiso   1.00
N138   N     0.16267   0.16827   0.37902   0.00000  Uiso   1.00
C139   C     0.32717   0.95323   0.90788   0.00000  Uiso   1.00
C140   C     0.29134   0.94060   0.01605   0.00000  Uiso   1.00
C141   C     0.27070   0.88405   0.08034   0.00000  Uiso   1.00
C142   C     0.23877   0.88204   0.17641   0.00000  Uiso   1.00
C143   C     0.18481   0.85444   0.33973   0.00000  Uiso   1.00
C144   C     0.39257   0.02048   0.91884   0.00000  Uiso   1.00
C145   C     0.45704   0.03108   0.90139   0.00000  Uiso   1.00
C146   C     0.51032   0.09632   0.91561   0.00000  Uiso   1.00
C147   C     0.61353   0.19274   0.92794   0.00000  Uiso   1.00
C148   C     0.28390   0.96507   0.82734   0.00000  Uiso   1.00
C149   C     0.25701   0.92910   0.73293   0.00000  Uiso   1.00
C150   C     0.21881   0.94770   0.67010   0.00000  Uiso   1.00
C151   C     0.15329   0.95810   0.54036   0.00000  Uiso   1.00
C152   C     0.30716   0.05023   0.96416   0.00000  Uiso   1.00
C153   C     0.28047   0.99329   0.04662   0.00000  Uiso   1.00
C154   C     0.24856   0.99137   0.14261   0.00000  Uiso   1.00
C155   C     0.22788   0.93482   0.20703   0.00000  Uiso   1.00
C156   C     0.38170   0.07317   0.94941   0.00000  Uiso   1.00
C157   C     0.43490   0.13840   0.96365   0.00000  Uiso   1.00
C158   C     0.49944   0.14910   0.94623   0.00000  Uiso   1.00
C159   C     0.27303   0.01776   0.85791   0.00000  Uiso   1.00
C160   C     0.23487   0.03642   0.79520   0.00000  Uiso   1.00
C161   C     0.20792   0.00049   0.70072   0.00000  Uiso   1.00
H162   H     0.33564   0.91221   0.88408   0.00000  Uiso   1.00
H163   H     0.27913   0.84329   0.05666   0.00000  Uiso   1.00
H164   H     0.46544   0.99030   0.87772   0.00000  Uiso   1.00
H165   H     0.26543   0.88834   0.70930   0.00000  Uiso   1.00
H166   H     0.21170   0.79012   0.26149   0.00000  Uiso   1.00
H167   H     0.60455   0.10011   0.88416   0.00000  Uiso   1.00
H168   H     0.18280   0.88510   0.52900   0.00000  Uiso   1.00
H169   H     0.29870   0.09125   0.98796   0.00000  Uiso   1.00
H170   H     0.24016   0.03215   0.16624   0.00000  Uiso   1.00
H171   H     0.42647   0.17916   0.98731   0.00000  Uiso   1.00
H172   H     0.22647   0.07720   0.81888   0.00000  Uiso   1.00
H173   H     0.18008   0.94341   0.35044   0.00000  Uiso   1.00
H174   H     0.57292   0.25340   0.97309   0.00000  Uiso   1.00
H175   H     0.15117   0.03839   0.61794   0.00000  Uiso   1.00
O176   O     0.15807   0.82467   0.42138   0.00000  Uiso   1.00
O177   O     0.67346   0.23136   0.92631   0.00000  Uiso   1.00
O178   O     0.12014   0.94927   0.46036   0.00000  Uiso   1.00
N179   N     0.21228   0.83430   0.25795   0.00000  Uiso   1.00
N180   N     0.57957   0.12412   0.90518   0.00000  Uiso   1.00
N181   N     0.18529   0.92311   0.57312   0.00000  Uiso   1.00
N182   N     0.19526   0.91678   0.30581   0.00000  Uiso   1.00
N183   N     0.56255   0.20660   0.95304   0.00000  Uiso   1.00
N184   N     0.16827   0.00560   0.62098   0.00000  Uiso   1.00
C185   C     0.04677   0.37395   0.90788   0.00000  Uiso   1.00
C186   C     0.05940   0.35074   0.01605   0.00000  Uiso   1.00
C187   C     0.11595   0.38665   0.08034   0.00000  Uiso   1.00
C188   C     0.11796   0.35673   0.17641   0.00000  Uiso   1.00
C189   C     0.14556   0.33037   0.33973   0.00000  Uiso   1.00
C190   C     0.97952   0.37209   0.91884   0.00000  Uiso   1.00
C191   C     0.96892   0.42596   0.90139   0.00000  Uiso   1.00
C192   C     0.90368   0.41401   0.91561   0.00000  Uiso   1.00
C193   C     0.80726   0.42079   0.92794   0.00000  Uiso   1.00
C194   C     0.03493   0.31883   0.82734   0.00000  Uiso   1.00
C195   C     0.07090   0.32791   0.73293   0.00000  Uiso   1.00
C196   C     0.05230   0.27111   0.67010   0.00000  Uiso   1.00
C197   C     0.04190   0.19519   0.54036   0.00000  Uiso   1.00
C198   C     0.94977   0.25693   0.96416   0.00000  Uiso   1.00
C199   C     0.00671   0.28718   0.04662   0.00000  Uiso   1.00
C200   C     0.00863   0.25719   0.14261   0.00000  Uiso   1.00
C201   C     0.06518   0.29306   0.20703   0.00000  Uiso   1.00
C202   C     0.92683   0.30854   0.94941   0.00000  Uiso   1.00
C203   C     0.86160   0.29650   0.96365   0.00000  Uiso   1.00
C204   C     0.85090   0.35034   0.94623   0.00000  Uiso   1.00
C205   C     0.98224   0.25527   0.85791   0.00000  Uiso   1.00
C206   C     0.96358   0.19844   0.79520   0.00000  Uiso   1.00
C207   C     0.99951   0.20744   0.70072   0.00000  Uiso   1.00
H208   H     0.08779   0.42343   0.88408   0.00000  Uiso   1.00
H209   H     0.15671   0.43584   0.05666   0.00000  Uiso   1.00
H210   H     0.00970   0.47514   0.87772   0.00000  Uiso   1.00
H211   H     0.11166   0.37710   0.70930   0.00000  Uiso   1.00
H212   H     0.20988   0.42158   0.26149   0.00000  Uiso   1.00
H213   H     0.89989   0.50444   0.88416   0.00000  Uiso   1.00
H214   H     0.11490   0.29770   0.52900   0.00000  Uiso   1.00
H215   H     0.90875   0.20745   0.98796   0.00000  Uiso   1.00
H216   H     0.96785   0.20801   0.16624   0.00000  Uiso   1.00
H217   H     0.82084   0.24731   0.98731   0.00000  Uiso   1.00
H218   H     0.92280   0.14927   0.81888   0.00000  Uiso   1.00
H219   H     0.05659   0.23667   0.35044   0.00000  Uiso   1.00
H220   H     0.74660   0.31952   0.97309   0.00000  Uiso   1.00
H221   H     0.96161   0.11279   0.61794   0.00000  Uiso   1.00
O222   O     0.17533   0.33340   0.42138   0.00000  Uiso   1.00
O223   O     0.76864   0.44210   0.92631   0.00000  Uiso   1.00
O224   O     0.05073   0.17087   0.46036   0.00000  Uiso   1.00
N225   N     0.16570   0.37798   0.25795   0.00000  Uiso   1.00
N226   N     0.87588   0.45545   0.90518   0.00000  Uiso   1.00
N227   N     0.07689   0.26217   0.57312   0.00000  Uiso   1.00
N228   N     0.08322   0.27848   0.30581   0.00000  Uiso   1.00
N229   N     0.79340   0.35595   0.95304   0.00000  Uiso   1.00
N230   N     0.99440   0.16267   0.62098   0.00000  Uiso   1.00
C231   C     0.62605   0.67283   0.90788   0.00000  Uiso   1.00
C232   C     0.64926   0.70866   0.01605   0.00000  Uiso   1.00
C233   C     0.61335   0.72930   0.08034   0.00000  Uiso   1.00
C234   C     0.64327   0.76123   0.17641   0.00000  Uiso   1.00
C235   C     0.66963   0.81519   0.33973   0.00000  Uiso   1.00
C236   C     0.62791   0.60743   0.91884   0.00000  Uiso   1.00
C237   C     0.57404   0.54296   0.90139   0.00000  Uiso   1.00
C238   C     0.58599   0.48968   0.91561   0.00000  Uiso   1.00
C239   C     0.57921   0.38647   0.92794   0.00000  Uiso   1.00
C240   C     0.68117   0.71610   0.82734   0.00000  Uiso   1.00
C241   C     0.67209   0.74299   0.73293   0.00000  Uiso   1.00
C242   C     0.72889   0.78119   0.67010   0.00000  Uiso   1.00
C243   C     0.80481   0.84671   0.54036   0.00000  Uiso   1.00
C244   C     0.74307   0.69284   0.96416   0.00000  Uiso   1.00
C245   C     0.71282   0.71953   0.04662   0.00000  Uiso   1.00
C246   C     0.74281   0.75144   0.14261   0.00000  Uiso   1.00
C247   C     0.70694   0.77212   0.20703   0.00000  Uiso   1.00
C248   C     0.69146   0.61830   0.94941   0.00000  Uiso   1.00
C249   C     0.70350   0.56510   0.96365   0.00000  Uiso   1.00
C250   C     0.64966   0.50056   0.94623   0.00000  Uiso   1.00
C251   C     0.74473   0.72697   0.85791   0.00000  Uiso   1.00
C252   C     0.80156   0.76513   0.79520   0.00000  Uiso   1.00
C253   C     0.79256   0.79208   0.70072   0.00000  Uiso   1.00
H254   H     0.57657   0.66436   0.88408   0.00000  Uiso   1.00
H255   H     0.56416   0.72087   0.05666   0.00000  Uiso   1.00
H256   H     0.52486   0.53456   0.87772   0.00000  Uiso   1.00
H257   H     0.62290   0.73457   0.70930   0.00000  Uiso   1.00
H258   H     0.57842   0.78830   0.26149   0.00000  Uiso   1.00
H259   H     0.49556   0.39545   0.88416   0.00000  Uiso   1.00
H260   H     0.70230   0.81720   0.52900   0.00000  Uiso   1.00
H261   H     0.79255   0.70130   0.98796   0.00000  Uiso   1.00
H262   H     0.79199   0.75984   0.16624   0.00000  Uiso   1.00
H263   H     0.75269   0.57353   0.98731   0.00000  Uiso   1.00
H264   H     0.85073   0.77353   0.81888   0.00000  Uiso   1.00
H265   H     0.76333   0.81992   0.35044   0.00000  Uiso   1.00
H266   H     0.68048   0.42708   0.97309   0.00000  Uiso   1.00
H267   H     0.88721   0.84883   0.61794   0.00000  Uiso   1.00
O268   O     0.66660   0.84193   0.42138   0.00000  Uiso   1.00
O269   O     0.55790   0.32654   0.92631   0.00000  Uiso   1.00
O270   O     0.82913   0.87986   0.46036   0.00000  Uiso   1.00
N271   N     0.62202   0.78772   0.25795   0.00000  Uiso   1.00
N272   N     0.54455   0.42043   0.90518   0.00000  Uiso   1.00
N273   N     0.73783   0.81471   0.57312   0.00000  Uiso   1.00
N274   N     0.72152   0.80474   0.30581   0.00000  Uiso   1.00
N275   N     0.64405   0.43745   0.95304   0.00000  Uiso   1.00
N276   N     0.83733   0.83173   0.62098   0.00000  Uiso   1.00
