data_job_00273
_audit_creation_date              2018-12-19
_audit_creation_method            'Materials Studio'
_symmetry_space_group_name_H-M    'P1'
_symmetry_Int_Tables_number       1
_symmetry_cell_setting            triclinic
loop_
_symmetry_equiv_pos_as_xyz
  x,y,z
_cell_length_a                    28.1363
_cell_length_b                    8.0103
_cell_length_c                    37.8076
_cell_angle_alpha                 90.0000
_cell_angle_beta                  149.3267
_cell_angle_gamma                 90.0000
loop_
_atom_site_label
_atom_site_type_symbol
_atom_site_fract_x
_atom_site_fract_y
_atom_site_fract_z
_atom_site_U_iso_or_equiv
_atom_site_adp_type
_atom_site_occupancy
C1     C     0.66452   0.88529   0.30257   0.00000  Uiso   1.00
C2     C     0.75618   0.90717   0.34138   0.00000  Uiso   1.00
C3     C     0.82804   0.79147   0.38592   0.00000  Uiso   1.00
C4     C     0.90619   0.83504   0.41637   0.00000  Uiso   1.00
C5     C     0.04763   0.84566   0.47874   0.00000  Uiso   1.00
C6     C     0.65733   0.03349   0.32313   0.00000  Uiso   1.00
C7     C     0.64605   0.02397   0.35232   0.00000  Uiso   1.00
C8     C     0.64098   0.17388   0.36741   0.00000  Uiso   1.00
C9     C     0.62887   0.38059   0.40140   0.00000  Uiso   1.00
C10    C     0.58760   0.90926   0.22598   0.00000  Uiso   1.00
C11    C     0.51768   0.79532   0.17347   0.00000  Uiso   1.00
C12    C     0.45388   0.84066   0.10676   0.00000  Uiso   1.00
C13    C     0.33352   0.85449   0.98991   0.00000  Uiso   1.00
C14    C     0.67553   0.16843   0.27745   0.00000  Uiso   1.00
C15    C     0.76216   0.06097   0.32773   0.00000  Uiso   1.00
C16    C     0.84022   0.10473   0.35813   0.00000  Uiso   1.00
C17    C     0.91218   0.98910   0.40270   0.00000  Uiso   1.00
C18    C     0.66331   0.18727   0.30949   0.00000  Uiso   1.00
C19    C     0.65824   0.33723   0.32453   0.00000  Uiso   1.00
C20    C     0.64697   0.32795   0.35374   0.00000  Uiso   1.00
C21    C     0.59358   0.06305   0.21233   0.00000  Uiso   1.00
C22    C     0.52987   0.10858   0.14569   0.00000  Uiso   1.00
C23    C     0.45987   0.99473   0.09309   0.00000  Uiso   1.00
H24    H     0.65986   0.76557   0.31319   0.00000  Uiso   1.00
H25    H     0.82339   0.67248   0.39647   0.00000  Uiso   1.00
H26    H     0.64142   0.90495   0.36287   0.00000  Uiso   1.00
H27    H     0.51308   0.67633   0.18405   0.00000  Uiso   1.00
H28    H     0.00734   0.63711   0.48280   0.00000  Uiso   1.00
H29    H     0.62362   0.12728   0.41193   0.00000  Uiso   1.00
H30    H     0.35297   0.64519   0.03486   0.00000  Uiso   1.00
H31    H     0.68018   0.28817   0.26682   0.00000  Uiso   1.00
H32    H     0.84483   0.22375   0.34756   0.00000  Uiso   1.00
H33    H     0.66286   0.45621   0.31396   0.00000  Uiso   1.00
H34    H     0.53452   0.22759   0.13515   0.00000  Uiso   1.00
H35    H     0.02475   0.08454   0.44311   0.00000  Uiso   1.00
H36    H     0.64102   0.57471   0.37224   0.00000  Uiso   1.00
H37    H     0.37038   0.09263   0.99517   0.00000  Uiso   1.00
O38    O     0.12400   0.80904   0.51692   0.00000  Uiso   1.00
O39    O     0.62055   0.45212   0.42393   0.00000  Uiso   1.00
O40    O     0.26548   0.81963   0.92922   0.00000  Uiso   1.00
N41    N     0.98884   0.75124   0.46237   0.00000  Uiso   1.00
N42    N     0.63009   0.20952   0.39612   0.00000  Uiso   1.00
N43    N     0.37705   0.75883   0.04359   0.00000  Uiso   1.00
N44    N     0.99820   0.99200   0.44101   0.00000  Uiso   1.00
N45    N     0.63946   0.45028   0.37476   0.00000  Uiso   1.00
N46    N     0.38641   0.99959   0.02223   0.00000  Uiso   1.00
C47    C     0.16452   0.38529   0.30257   0.00000  Uiso   1.00
C48    C     0.25618   0.40717   0.34138   0.00000  Uiso   1.00
C49    C     0.32804   0.29147   0.38592   0.00000  Uiso   1.00
C50    C     0.40619   0.33504   0.41637   0.00000  Uiso   1.00
C51    C     0.54763   0.34566   0.47874   0.00000  Uiso   1.00
C52    C     0.15733   0.53349   0.32313   0.00000  Uiso   1.00
C53    C     0.14605   0.52397   0.35232   0.00000  Uiso   1.00
C54    C     0.14098   0.67388   0.36741   0.00000  Uiso   1.00
C55    C     0.12887   0.88059   0.40140   0.00000  Uiso   1.00
C56    C     0.08760   0.40926   0.22598   0.00000  Uiso   1.00
C57    C     0.01768   0.29532   0.17347   0.00000  Uiso   1.00
C58    C     0.95388   0.34066   0.10676   0.00000  Uiso   1.00
C59    C     0.83352   0.35449   0.98991   0.00000  Uiso   1.00
C60    C     0.17553   0.66843   0.27745   0.00000  Uiso   1.00
C61    C     0.26216   0.56097   0.32773   0.00000  Uiso   1.00
C62    C     0.34022   0.60473   0.35813   0.00000  Uiso   1.00
C63    C     0.41218   0.48910   0.40270   0.00000  Uiso   1.00
C64    C     0.16331   0.68727   0.30949   0.00000  Uiso   1.00
C65    C     0.15824   0.83723   0.32453   0.00000  Uiso   1.00
C66    C     0.14697   0.82795   0.35374   0.00000  Uiso   1.00
C67    C     0.09358   0.56305   0.21233   0.00000  Uiso   1.00
C68    C     0.02987   0.60858   0.14569   0.00000  Uiso   1.00
C69    C     0.95987   0.49473   0.09309   0.00000  Uiso   1.00
H70    H     0.15986   0.26557   0.31319   0.00000  Uiso   1.00
H71    H     0.32339   0.17248   0.39647   0.00000  Uiso   1.00
H72    H     0.14142   0.40495   0.36287   0.00000  Uiso   1.00
H73    H     0.01308   0.17633   0.18405   0.00000  Uiso   1.00
H74    H     0.50734   0.13711   0.48280   0.00000  Uiso   1.00
H75    H     0.12362   0.62728   0.41193   0.00000  Uiso   1.00
H76    H     0.85297   0.14519   0.03486   0.00000  Uiso   1.00
H77    H     0.18018   0.78817   0.26682   0.00000  Uiso   1.00
H78    H     0.34483   0.72375   0.34756   0.00000  Uiso   1.00
H79    H     0.16286   0.95621   0.31396   0.00000  Uiso   1.00
H80    H     0.03452   0.72759   0.13515   0.00000  Uiso   1.00
H81    H     0.52475   0.58454   0.44311   0.00000  Uiso   1.00
H82    H     0.14102   0.07471   0.37224   0.00000  Uiso   1.00
H83    H     0.87038   0.59263   0.99517   0.00000  Uiso   1.00
O84    O     0.62400   0.30904   0.51692   0.00000  Uiso   1.00
O85    O     0.12055   0.95212   0.42393   0.00000  Uiso   1.00
O86    O     0.76548   0.31963   0.92922   0.00000  Uiso   1.00
N87    N     0.48884   0.25124   0.46237   0.00000  Uiso   1.00
N88    N     0.13009   0.70952   0.39612   0.00000  Uiso   1.00
N89    N     0.87705   0.25883   0.04359   0.00000  Uiso   1.00
N90    N     0.49820   0.49200   0.44101   0.00000  Uiso   1.00
N91    N     0.13946   0.95028   0.37476   0.00000  Uiso   1.00
N92    N     0.88641   0.49959   0.02223   0.00000  Uiso   1.00
C93    C     0.33548   0.88529   0.19743   0.00000  Uiso   1.00
C94    C     0.24382   0.90717   0.15862   0.00000  Uiso   1.00
C95    C     0.17196   0.79147   0.11408   0.00000  Uiso   1.00
C96    C     0.09381   0.83504   0.08363   0.00000  Uiso   1.00
C97    C     0.95237   0.84566   0.02126   0.00000  Uiso   1.00
C98    C     0.34267   0.03349   0.17687   0.00000  Uiso   1.00
C99    C     0.35395   0.02397   0.14768   0.00000  Uiso   1.00
C100   C     0.35902   0.17388   0.13259   0.00000  Uiso   1.00
C101   C     0.37113   0.38059   0.09860   0.00000  Uiso   1.00
C102   C     0.41240   0.90926   0.27402   0.00000  Uiso   1.00
C103   C     0.48232   0.79532   0.32653   0.00000  Uiso   1.00
C104   C     0.54612   0.84066   0.39324   0.00000  Uiso   1.00
C105   C     0.66648   0.85449   0.51009   0.00000  Uiso   1.00
C106   C     0.32447   0.16843   0.22255   0.00000  Uiso   1.00
C107   C     0.23784   0.06097   0.17227   0.00000  Uiso   1.00
C108   C     0.15978   0.10473   0.14187   0.00000  Uiso   1.00
C109   C     0.08782   0.98910   0.09730   0.00000  Uiso   1.00
C110   C     0.33669   0.18727   0.19051   0.00000  Uiso   1.00
C111   C     0.34176   0.33723   0.17547   0.00000  Uiso   1.00
C112   C     0.35303   0.32795   0.14626   0.00000  Uiso   1.00
C113   C     0.40642   0.06305   0.28767   0.00000  Uiso   1.00
C114   C     0.47013   0.10858   0.35431   0.00000  Uiso   1.00
C115   C     0.54013   0.99473   0.40691   0.00000  Uiso   1.00
H116   H     0.34014   0.76557   0.18681   0.00000  Uiso   1.00
H117   H     0.17661   0.67248   0.10353   0.00000  Uiso   1.00
H118   H     0.35858   0.90495   0.13713   0.00000  Uiso   1.00
H119   H     0.48692   0.67633   0.31595   0.00000  Uiso   1.00
H120   H     0.99266   0.63711   0.01720   0.00000  Uiso   1.00
H121   H     0.37638   0.12728   0.08807   0.00000  Uiso   1.00
H122   H     0.64703   0.64519   0.46514   0.00000  Uiso   1.00
H123   H     0.31982   0.28817   0.23318   0.00000  Uiso   1.00
H124   H     0.15517   0.22375   0.15244   0.00000  Uiso   1.00
H125   H     0.33714   0.45621   0.18604   0.00000  Uiso   1.00
H126   H     0.46548   0.22759   0.36485   0.00000  Uiso   1.00
H127   H     0.97525   0.08454   0.05689   0.00000  Uiso   1.00
H128   H     0.35898   0.57471   0.12776   0.00000  Uiso   1.00
H129   H     0.62962   0.09263   0.50483   0.00000  Uiso   1.00
O130   O     0.87600   0.80904   0.98308   0.00000  Uiso   1.00
O131   O     0.37945   0.45212   0.07607   0.00000  Uiso   1.00
O132   O     0.73452   0.81963   0.57078   0.00000  Uiso   1.00
N133   N     0.01116   0.75124   0.03763   0.00000  Uiso   1.00
N134   N     0.36991   0.20952   0.10388   0.00000  Uiso   1.00
N135   N     0.62295   0.75883   0.45641   0.00000  Uiso   1.00
N136   N     0.00180   0.99200   0.05899   0.00000  Uiso   1.00
N137   N     0.36054   0.45028   0.12524   0.00000  Uiso   1.00
N138   N     0.61359   0.99959   0.47777   0.00000  Uiso   1.00
C139   C     0.83548   0.38529   0.19743   0.00000  Uiso   1.00
C140   C     0.74382   0.40717   0.15862   0.00000  Uiso   1.00
C141   C     0.67196   0.29147   0.11408   0.00000  Uiso   1.00
C142   C     0.59381   0.33504   0.08363   0.00000  Uiso   1.00
C143   C     0.45237   0.34566   0.02126   0.00000  Uiso   1.00
C144   C     0.84267   0.53349   0.17687   0.00000  Uiso   1.00
C145   C     0.85395   0.52397   0.14768   0.00000  Uiso   1.00
C146   C     0.85902   0.67388   0.13259   0.00000  Uiso   1.00
C147   C     0.87113   0.88059   0.09860   0.00000  Uiso   1.00
C148   C     0.91240   0.40926   0.27402   0.00000  Uiso   1.00
C149   C     0.98232   0.29532   0.32653   0.00000  Uiso   1.00
C150   C     0.04612   0.34066   0.39324   0.00000  Uiso   1.00
C151   C     0.16648   0.35449   0.51009   0.00000  Uiso   1.00
C152   C     0.82447   0.66843   0.22255   0.00000  Uiso   1.00
C153   C     0.73784   0.56097   0.17227   0.00000  Uiso   1.00
C154   C     0.65978   0.60473   0.14187   0.00000  Uiso   1.00
C155   C     0.58782   0.48910   0.09730   0.00000  Uiso   1.00
C156   C     0.83669   0.68727   0.19051   0.00000  Uiso   1.00
C157   C     0.84176   0.83723   0.17547   0.00000  Uiso   1.00
C158   C     0.85303   0.82795   0.14626   0.00000  Uiso   1.00
C159   C     0.90642   0.56305   0.28767   0.00000  Uiso   1.00
C160   C     0.97013   0.60858   0.35431   0.00000  Uiso   1.00
C161   C     0.04013   0.49473   0.40691   0.00000  Uiso   1.00
H162   H     0.84014   0.26557   0.18681   0.00000  Uiso   1.00
H163   H     0.67661   0.17248   0.10353   0.00000  Uiso   1.00
H164   H     0.85858   0.40495   0.13713   0.00000  Uiso   1.00
H165   H     0.98692   0.17633   0.31595   0.00000  Uiso   1.00
H166   H     0.49266   0.13711   0.01720   0.00000  Uiso   1.00
H167   H     0.87638   0.62728   0.08807   0.00000  Uiso   1.00
H168   H     0.14703   0.14519   0.46514   0.00000  Uiso   1.00
H169   H     0.81982   0.78817   0.23318   0.00000  Uiso   1.00
H170   H     0.65517   0.72375   0.15244   0.00000  Uiso   1.00
H171   H     0.83714   0.95621   0.18604   0.00000  Uiso   1.00
H172   H     0.96548   0.72759   0.36485   0.00000  Uiso   1.00
H173   H     0.47525   0.58454   0.05689   0.00000  Uiso   1.00
H174   H     0.85898   0.07471   0.12776   0.00000  Uiso   1.00
H175   H     0.12962   0.59263   0.50483   0.00000  Uiso   1.00
O176   O     0.37600   0.30904   0.98308   0.00000  Uiso   1.00
O177   O     0.87945   0.95212   0.07607   0.00000  Uiso   1.00
O178   O     0.23452   0.31963   0.57078   0.00000  Uiso   1.00
N179   N     0.51116   0.25124   0.03763   0.00000  Uiso   1.00
N180   N     0.86991   0.70952   0.10388   0.00000  Uiso   1.00
N181   N     0.12295   0.25883   0.45641   0.00000  Uiso   1.00
N182   N     0.50180   0.49200   0.05899   0.00000  Uiso   1.00
N183   N     0.86054   0.95028   0.12524   0.00000  Uiso   1.00
N184   N     0.11359   0.49959   0.47777   0.00000  Uiso   1.00
C185   C     0.33548   0.11471   0.69743   0.00000  Uiso   1.00
C186   C     0.24382   0.09283   0.65862   0.00000  Uiso   1.00
C187   C     0.17196   0.20853   0.61408   0.00000  Uiso   1.00
C188   C     0.09381   0.16496   0.58363   0.00000  Uiso   1.00
C189   C     0.95237   0.15434   0.52126   0.00000  Uiso   1.00
C190   C     0.34267   0.96651   0.67687   0.00000  Uiso   1.00
C191   C     0.35395   0.97603   0.64768   0.00000  Uiso   1.00
C192   C     0.35902   0.82612   0.63259   0.00000  Uiso   1.00
C193   C     0.37113   0.61941   0.59860   0.00000  Uiso   1.00
C194   C     0.41240   0.09074   0.77402   0.00000  Uiso   1.00
C195   C     0.48232   0.20468   0.82653   0.00000  Uiso   1.00
C196   C     0.54612   0.15934   0.89324   0.00000  Uiso   1.00
C197   C     0.66648   0.14551   0.01009   0.00000  Uiso   1.00
C198   C     0.32447   0.83157   0.72255   0.00000  Uiso   1.00
C199   C     0.23784   0.93903   0.67227   0.00000  Uiso   1.00
C200   C     0.15978   0.89527   0.64187   0.00000  Uiso   1.00
C201   C     0.08782   0.01090   0.59730   0.00000  Uiso   1.00
C202   C     0.33669   0.81273   0.69051   0.00000  Uiso   1.00
C203   C     0.34176   0.66277   0.67547   0.00000  Uiso   1.00
C204   C     0.35303   0.67205   0.64626   0.00000  Uiso   1.00
C205   C     0.40642   0.93695   0.78767   0.00000  Uiso   1.00
C206   C     0.47013   0.89142   0.85431   0.00000  Uiso   1.00
C207   C     0.54013   0.00527   0.90691   0.00000  Uiso   1.00
H208   H     0.34014   0.23443   0.68681   0.00000  Uiso   1.00
H209   H     0.17661   0.32752   0.60353   0.00000  Uiso   1.00
H210   H     0.35858   0.09505   0.63713   0.00000  Uiso   1.00
H211   H     0.48692   0.32367   0.81595   0.00000  Uiso   1.00
H212   H     0.99266   0.36289   0.51720   0.00000  Uiso   1.00
H213   H     0.37638   0.87272   0.58807   0.00000  Uiso   1.00
H214   H     0.64703   0.35481   0.96514   0.00000  Uiso   1.00
H215   H     0.31982   0.71183   0.73318   0.00000  Uiso   1.00
H216   H     0.15517   0.77625   0.65244   0.00000  Uiso   1.00
H217   H     0.33714   0.54379   0.68604   0.00000  Uiso   1.00
H218   H     0.46548   0.77241   0.86485   0.00000  Uiso   1.00
H219   H     0.97525   0.91546   0.55689   0.00000  Uiso   1.00
H220   H     0.35898   0.42529   0.62776   0.00000  Uiso   1.00
H221   H     0.62962   0.90737   0.00483   0.00000  Uiso   1.00
O222   O     0.87600   0.19096   0.48308   0.00000  Uiso   1.00
O223   O     0.37945   0.54788   0.57607   0.00000  Uiso   1.00
O224   O     0.73452   0.18037   0.07078   0.00000  Uiso   1.00
N225   N     0.01116   0.24876   0.53763   0.00000  Uiso   1.00
N226   N     0.36991   0.79048   0.60388   0.00000  Uiso   1.00
N227   N     0.62295   0.24117   0.95641   0.00000  Uiso   1.00
N228   N     0.00180   0.00800   0.55899   0.00000  Uiso   1.00
N229   N     0.36054   0.54972   0.62524   0.00000  Uiso   1.00
N230   N     0.61359   0.00041   0.97777   0.00000  Uiso   1.00
C231   C     0.83548   0.61471   0.69743   0.00000  Uiso   1.00
C232   C     0.74382   0.59283   0.65862   0.00000  Uiso   1.00
C233   C     0.67196   0.70853   0.61408   0.00000  Uiso   1.00
C234   C     0.59381   0.66496   0.58363   0.00000  Uiso   1.00
C235   C     0.45237   0.65434   0.52126   0.00000  Uiso   1.00
C236   C     0.84267   0.46651   0.67687   0.00000  Uiso   1.00
C237   C     0.85395   0.47603   0.64768   0.00000  Uiso   1.00
C238   C     0.85902   0.32612   0.63259   0.00000  Uiso   1.00
C239   C     0.87113   0.11941   0.59860   0.00000  Uiso   1.00
C240   C     0.91240   0.59074   0.77402   0.00000  Uiso   1.00
C241   C     0.98232   0.70468   0.82653   0.00000  Uiso   1.00
C242   C     0.04612   0.65934   0.89324   0.00000  Uiso   1.00
C243   C     0.16648   0.64551   0.01009   0.00000  Uiso   1.00
C244   C     0.82447   0.33157   0.72255   0.00000  Uiso   1.00
C245   C     0.73784   0.43903   0.67227   0.00000  Uiso   1.00
C246   C     0.65978   0.39527   0.64187   0.00000  Uiso   1.00
C247   C     0.58782   0.51090   0.59730   0.00000  Uiso   1.00
C248   C     0.83669   0.31273   0.69051   0.00000  Uiso   1.00
C249   C     0.84176   0.16277   0.67547   0.00000  Uiso   1.00
C250   C     0.85303   0.17205   0.64626   0.00000  Uiso   1.00
C251   C     0.90642   0.43695   0.78767   0.00000  Uiso   1.00
C252   C     0.97013   0.39142   0.85431   0.00000  Uiso   1.00
C253   C     0.04013   0.50527   0.90691   0.00000  Uiso   1.00
H254   H     0.84014   0.73443   0.68681   0.00000  Uiso   1.00
H255   H     0.67661   0.82752   0.60353   0.00000  Uiso   1.00
H256   H     0.85858   0.59505   0.63713   0.00000  Uiso   1.00
H257   H     0.98692   0.82367   0.81595   0.00000  Uiso   1.00
H258   H     0.49266   0.86289   0.51720   0.00000  Uiso   1.00
H259   H     0.87638   0.37272   0.58807   0.00000  Uiso   1.00
H260   H     0.14703   0.85481   0.96514   0.00000  Uiso   1.00
H261   H     0.81982   0.21183   0.73318   0.00000  Uiso   1.00
H262   H     0.65517   0.27625   0.65244   0.00000  Uiso   1.00
H263   H     0.83714   0.04379   0.68604   0.00000  Uiso   1.00
H264   H     0.96548   0.27241   0.86485   0.00000  Uiso   1.00
H265   H     0.47525   0.41546   0.55689   0.00000  Uiso   1.00
H266   H     0.85898   0.92529   0.62776   0.00000  Uiso   1.00
H267   H     0.12962   0.40737   0.00483   0.00000  Uiso   1.00
O268   O     0.37600   0.69096   0.48308   0.00000  Uiso   1.00
O269   O     0.87945   0.04788   0.57607   0.00000  Uiso   1.00
O270   O     0.23452   0.68037   0.07078   0.00000  Uiso   1.00
N271   N     0.51116   0.74876   0.53763   0.00000  Uiso   1.00
N272   N     0.86991   0.29048   0.60388   0.00000  Uiso   1.00
N273   N     0.12295   0.74117   0.95641   0.00000  Uiso   1.00
N274   N     0.50180   0.50800   0.55899   0.00000  Uiso   1.00
N275   N     0.86054   0.04972   0.62524   0.00000  Uiso   1.00
N276   N     0.11359   0.50041   0.97777   0.00000  Uiso   1.00
C277   C     0.66452   0.11471   0.80257   0.00000  Uiso   1.00
C278   C     0.75618   0.09283   0.84138   0.00000  Uiso   1.00
C279   C     0.82804   0.20853   0.88592   0.00000  Uiso   1.00
C280   C     0.90619   0.16496   0.91637   0.00000  Uiso   1.00
C281   C     0.04763   0.15434   0.97874   0.00000  Uiso   1.00
C282   C     0.65733   0.96651   0.82313   0.00000  Uiso   1.00
C283   C     0.64605   0.97603   0.85232   0.00000  Uiso   1.00
C284   C     0.64098   0.82612   0.86741   0.00000  Uiso   1.00
C285   C     0.62887   0.61941   0.90140   0.00000  Uiso   1.00
C286   C     0.58760   0.09074   0.72598   0.00000  Uiso   1.00
C287   C     0.51768   0.20468   0.67347   0.00000  Uiso   1.00
C288   C     0.45388   0.15934   0.60676   0.00000  Uiso   1.00
C289   C     0.33352   0.14551   0.48991   0.00000  Uiso   1.00
C290   C     0.67553   0.83157   0.77745   0.00000  Uiso   1.00
C291   C     0.76216   0.93903   0.82773   0.00000  Uiso   1.00
C292   C     0.84022   0.89527   0.85813   0.00000  Uiso   1.00
C293   C     0.91218   0.01090   0.90270   0.00000  Uiso   1.00
C294   C     0.66331   0.81273   0.80949   0.00000  Uiso   1.00
C295   C     0.65824   0.66277   0.82453   0.00000  Uiso   1.00
C296   C     0.64697   0.67205   0.85374   0.00000  Uiso   1.00
C297   C     0.59358   0.93695   0.71233   0.00000  Uiso   1.00
C298   C     0.52987   0.89142   0.64569   0.00000  Uiso   1.00
C299   C     0.45987   0.00527   0.59309   0.00000  Uiso   1.00
H300   H     0.65986   0.23443   0.81319   0.00000  Uiso   1.00
H301   H     0.82339   0.32752   0.89647   0.00000  Uiso   1.00
H302   H     0.64142   0.09505   0.86287   0.00000  Uiso   1.00
H303   H     0.51308   0.32367   0.68405   0.00000  Uiso   1.00
H304   H     0.00734   0.36289   0.98280   0.00000  Uiso   1.00
H305   H     0.62362   0.87272   0.91193   0.00000  Uiso   1.00
H306   H     0.35297   0.35481   0.53486   0.00000  Uiso   1.00
H307   H     0.68018   0.71183   0.76682   0.00000  Uiso   1.00
H308   H     0.84483   0.77625   0.84756   0.00000  Uiso   1.00
H309   H     0.66286   0.54379   0.81396   0.00000  Uiso   1.00
H310   H     0.53452   0.77241   0.63515   0.00000  Uiso   1.00
H311   H     0.02475   0.91546   0.94311   0.00000  Uiso   1.00
H312   H     0.64102   0.42529   0.87224   0.00000  Uiso   1.00
H313   H     0.37038   0.90737   0.49517   0.00000  Uiso   1.00
O314   O     0.12400   0.19096   0.01692   0.00000  Uiso   1.00
O315   O     0.62055   0.54788   0.92393   0.00000  Uiso   1.00
O316   O     0.26548   0.18037   0.42922   0.00000  Uiso   1.00
N317   N     0.98884   0.24876   0.96237   0.00000  Uiso   1.00
N318   N     0.63009   0.79048   0.89612   0.00000  Uiso   1.00
N319   N     0.37705   0.24117   0.54359   0.00000  Uiso   1.00
N320   N     0.99820   0.00800   0.94101   0.00000  Uiso   1.00
N321   N     0.63946   0.54972   0.87476   0.00000  Uiso   1.00
N322   N     0.38641   0.00041   0.52223   0.00000  Uiso   1.00
C323   C     0.16452   0.61471   0.80257   0.00000  Uiso   1.00
C324   C     0.25618   0.59283   0.84138   0.00000  Uiso   1.00
C325   C     0.32804   0.70853   0.88592   0.00000  Uiso   1.00
C326   C     0.40619   0.66496   0.91637   0.00000  Uiso   1.00
C327   C     0.54763   0.65434   0.97874   0.00000  Uiso   1.00
C328   C     0.15733   0.46651   0.82313   0.00000  Uiso   1.00
C329   C     0.14605   0.47603   0.85232   0.00000  Uiso   1.00
C330   C     0.14098   0.32612   0.86741   0.00000  Uiso   1.00
C331   C     0.12887   0.11941   0.90140   0.00000  Uiso   1.00
C332   C     0.08760   0.59074   0.72598   0.00000  Uiso   1.00
C333   C     0.01768   0.70468   0.67347   0.00000  Uiso   1.00
C334   C     0.95388   0.65934   0.60676   0.00000  Uiso   1.00
C335   C     0.83352   0.64551   0.48991   0.00000  Uiso   1.00
C336   C     0.17553   0.33157   0.77745   0.00000  Uiso   1.00
C337   C     0.26216   0.43903   0.82773   0.00000  Uiso   1.00
C338   C     0.34022   0.39527   0.85813   0.00000  Uiso   1.00
C339   C     0.41218   0.51090   0.90270   0.00000  Uiso   1.00
C340   C     0.16331   0.31273   0.80949   0.00000  Uiso   1.00
C341   C     0.15824   0.16277   0.82453   0.00000  Uiso   1.00
C342   C     0.14697   0.17205   0.85374   0.00000  Uiso   1.00
C343   C     0.09358   0.43695   0.71233   0.00000  Uiso   1.00
C344   C     0.02987   0.39142   0.64569   0.00000  Uiso   1.00
C345   C     0.95987   0.50527   0.59309   0.00000  Uiso   1.00
H346   H     0.15986   0.73443   0.81319   0.00000  Uiso   1.00
H347   H     0.32339   0.82752   0.89647   0.00000  Uiso   1.00
H348   H     0.14142   0.59505   0.86287   0.00000  Uiso   1.00
H349   H     0.01308   0.82367   0.68405   0.00000  Uiso   1.00
H350   H     0.50734   0.86289   0.98280   0.00000  Uiso   1.00
H351   H     0.12362   0.37272   0.91193   0.00000  Uiso   1.00
H352   H     0.85297   0.85481   0.53486   0.00000  Uiso   1.00
H353   H     0.18018   0.21183   0.76682   0.00000  Uiso   1.00
H354   H     0.34483   0.27625   0.84756   0.00000  Uiso   1.00
H355   H     0.16286   0.04379   0.81396   0.00000  Uiso   1.00
H356   H     0.03452   0.27241   0.63515   0.00000  Uiso   1.00
H357   H     0.52475   0.41546   0.94311   0.00000  Uiso   1.00
H358   H     0.14102   0.92529   0.87224   0.00000  Uiso   1.00
H359   H     0.87038   0.40737   0.49517   0.00000  Uiso   1.00
O360   O     0.62400   0.69096   0.01692   0.00000  Uiso   1.00
O361   O     0.12055   0.04788   0.92393   0.00000  Uiso   1.00
O362   O     0.76548   0.68037   0.42922   0.00000  Uiso   1.00
N363   N     0.48884   0.74876   0.96237   0.00000  Uiso   1.00
N364   N     0.13009   0.29048   0.89612   0.00000  Uiso   1.00
N365   N     0.87705   0.74117   0.54359   0.00000  Uiso   1.00
N366   N     0.49820   0.50800   0.94101   0.00000  Uiso   1.00
N367   N     0.13946   0.04972   0.87476   0.00000  Uiso   1.00
N368   N     0.88641   0.50041   0.52223   0.00000  Uiso   1.00
