data_job_03778
_audit_creation_date              2018-12-19
_audit_creation_method            'Materials Studio'
_symmetry_space_group_name_H-M    'P1'
_symmetry_Int_Tables_number       1
_symmetry_cell_setting            triclinic
loop_
_symmetry_equiv_pos_as_xyz
  x,y,z
_cell_length_a                    11.5919
_cell_length_b                    12.7405
_cell_length_c                    14.3041
_cell_angle_alpha                 112.5490
_cell_angle_beta                  83.6513
_cell_angle_gamma                 68.8192
loop_
_atom_site_label
_atom_site_type_symbol
_atom_site_fract_x
_atom_site_fract_y
_atom_site_fract_z
_atom_site_U_iso_or_equiv
_atom_site_adp_type
_atom_site_occupancy
C1     C     0.65878   0.56716   0.14152   0.00000  Uiso   1.00
C2     C     0.72499   0.48792   0.19414   0.00000  Uiso   1.00
C3     C     0.78466   0.35671   0.14809   0.00000  Uiso   1.00
C4     C     0.83962   0.30211   0.20933   0.00000  Uiso   1.00
C5     C     0.94307   0.16780   0.27531   0.00000  Uiso   1.00
C6     C     0.52097   0.65417   0.21377   0.00000  Uiso   1.00
C7     C     0.40912   0.66275   0.18421   0.00000  Uiso   1.00
C8     C     0.29234   0.74812   0.26197   0.00000  Uiso   1.00
C9     C     0.07905   0.87199   0.35839   0.00000  Uiso   1.00
C10    C     0.72455   0.65283   0.14730   0.00000  Uiso   1.00
C11    C     0.78383   0.66031   0.06186   0.00000  Uiso   1.00
C12    C     0.83843   0.74457   0.08366   0.00000  Uiso   1.00
C13    C     0.94122   0.86635   0.07688   0.00000  Uiso   1.00
C14    C     0.65028   0.70351   0.33217   0.00000  Uiso   1.00
C15    C     0.72036   0.56198   0.29770   0.00000  Uiso   1.00
C16    C     0.77525   0.50757   0.35902   0.00000  Uiso   1.00
C17    C     0.83500   0.37630   0.31306   0.00000  Uiso   1.00
C18    C     0.51635   0.72823   0.31732   0.00000  Uiso   1.00
C19    C     0.39971   0.81361   0.39513   0.00000  Uiso   1.00
C20    C     0.28771   0.82231   0.36570   0.00000  Uiso   1.00
C21    C     0.71993   0.72689   0.25085   0.00000  Uiso   1.00
C22    C     0.77443   0.81116   0.27279   0.00000  Uiso   1.00
C23    C     0.83380   0.81876   0.18740   0.00000  Uiso   1.00
H24    H     0.66237   0.50951   0.06091   0.00000  Uiso   1.00
H25    H     0.78820   0.29943   0.06796   0.00000  Uiso   1.00
H26    H     0.41272   0.60544   0.10407   0.00000  Uiso   1.00
H27    H     0.78739   0.60299   0.98174   0.00000  Uiso   1.00
H28    H     0.92564   0.09919   0.12145   0.00000  Uiso   1.00
H29    H     0.13391   0.74445   0.19759   0.00000  Uiso   1.00
H30    H     0.92396   0.73928   0.93963   0.00000  Uiso   1.00
H31    H     0.64668   0.76117   0.41279   0.00000  Uiso   1.00
H32    H     0.77166   0.56490   0.43915   0.00000  Uiso   1.00
H33    H     0.39617   0.87091   0.47526   0.00000  Uiso   1.00
H34    H     0.77084   0.86845   0.35293   0.00000  Uiso   1.00
H35    H     0.91221   0.31465   0.42273   0.00000  Uiso   1.00
H36    H     0.12048   0.95992   0.49886   0.00000  Uiso   1.00
H37    H     0.91053   0.95475   0.24091   0.00000  Uiso   1.00
O38    O     0.00138   0.07327   0.28310   0.00000  Uiso   1.00
O39    O     0.96267   0.91984   0.38297   0.00000  Uiso   1.00
O40    O     0.99921   0.91305   0.04454   0.00000  Uiso   1.00
N41    N     0.90535   0.17683   0.18874   0.00000  Uiso   1.00
N42    N     0.16513   0.78010   0.25992   0.00000  Uiso   1.00
N43    N     0.90373   0.77529   0.01875   0.00000  Uiso   1.00
N44    N     0.89812   0.29277   0.35085   0.00000  Uiso   1.00
N45    N     0.15790   0.89603   0.42203   0.00000  Uiso   1.00
N46    N     0.89651   0.89123   0.18087   0.00000  Uiso   1.00
C47    C     0.34122   0.43284   0.85848   0.00000  Uiso   1.00
C48    C     0.27501   0.51208   0.80586   0.00000  Uiso   1.00
C49    C     0.21534   0.64329   0.85191   0.00000  Uiso   1.00
C50    C     0.16038   0.69789   0.79067   0.00000  Uiso   1.00
C51    C     0.05693   0.83220   0.72469   0.00000  Uiso   1.00
C52    C     0.47903   0.34583   0.78623   0.00000  Uiso   1.00
C53    C     0.59088   0.33725   0.81579   0.00000  Uiso   1.00
C54    C     0.70766   0.25188   0.73803   0.00000  Uiso   1.00
C55    C     0.92095   0.12801   0.64161   0.00000  Uiso   1.00
C56    C     0.27545   0.34717   0.85270   0.00000  Uiso   1.00
C57    C     0.21617   0.33969   0.93814   0.00000  Uiso   1.00
C58    C     0.16157   0.25543   0.91634   0.00000  Uiso   1.00
C59    C     0.05878   0.13365   0.92312   0.00000  Uiso   1.00
C60    C     0.34972   0.29649   0.66783   0.00000  Uiso   1.00
C61    C     0.27964   0.43802   0.70230   0.00000  Uiso   1.00
C62    C     0.22475   0.49243   0.64098   0.00000  Uiso   1.00
C63    C     0.16500   0.62370   0.68694   0.00000  Uiso   1.00
C64    C     0.48365   0.27177   0.68268   0.00000  Uiso   1.00
C65    C     0.60029   0.18639   0.60487   0.00000  Uiso   1.00
C66    C     0.71229   0.17769   0.63430   0.00000  Uiso   1.00
C67    C     0.28007   0.27311   0.74915   0.00000  Uiso   1.00
C68    C     0.22557   0.18884   0.72721   0.00000  Uiso   1.00
C69    C     0.16620   0.18124   0.81260   0.00000  Uiso   1.00
H70    H     0.33763   0.49049   0.93909   0.00000  Uiso   1.00
H71    H     0.21180   0.70057   0.93204   0.00000  Uiso   1.00
H72    H     0.58728   0.39456   0.89593   0.00000  Uiso   1.00
H73    H     0.21261   0.39701   0.01826   0.00000  Uiso   1.00
H74    H     0.07436   0.90081   0.87855   0.00000  Uiso   1.00
H75    H     0.86609   0.25555   0.80241   0.00000  Uiso   1.00
H76    H     0.07604   0.26072   0.06037   0.00000  Uiso   1.00
H77    H     0.35332   0.23883   0.58721   0.00000  Uiso   1.00
H78    H     0.22834   0.43510   0.56085   0.00000  Uiso   1.00
H79    H     0.60383   0.12909   0.52474   0.00000  Uiso   1.00
H80    H     0.22916   0.13155   0.64707   0.00000  Uiso   1.00
H81    H     0.08779   0.68535   0.57727   0.00000  Uiso   1.00
H82    H     0.87952   0.04008   0.50114   0.00000  Uiso   1.00
H83    H     0.08947   0.04525   0.75909   0.00000  Uiso   1.00
O84    O     0.99862   0.92673   0.71690   0.00000  Uiso   1.00
O85    O     0.03733   0.08016   0.61703   0.00000  Uiso   1.00
O86    O     0.00079   0.08695   0.95546   0.00000  Uiso   1.00
N87    N     0.09465   0.82317   0.81126   0.00000  Uiso   1.00
N88    N     0.83487   0.21990   0.74008   0.00000  Uiso   1.00
N89    N     0.09627   0.22471   0.98125   0.00000  Uiso   1.00
N90    N     0.10188   0.70723   0.64915   0.00000  Uiso   1.00
N91    N     0.84210   0.10397   0.57797   0.00000  Uiso   1.00
N92    N     0.10349   0.10877   0.81913   0.00000  Uiso   1.00
