data_job_05913
_audit_creation_date              2018-12-19
_audit_creation_method            'Materials Studio'
_symmetry_space_group_name_H-M    'P1'
_symmetry_Int_Tables_number       1
_symmetry_cell_setting            triclinic
loop_
_symmetry_equiv_pos_as_xyz
  x,y,z
_cell_length_a                    15.5645
_cell_length_b                    15.2093
_cell_length_c                    14.2726
_cell_angle_alpha                 96.2716
_cell_angle_beta                  96.3467
_cell_angle_gamma                 94.5881
loop_
_atom_site_label
_atom_site_type_symbol
_atom_site_fract_x
_atom_site_fract_y
_atom_site_fract_z
_atom_site_U_iso_or_equiv
_atom_site_adp_type
_atom_site_occupancy
C1     C     0.20043   0.52592   0.86424   0.00000  Uiso   1.00
C2     C     0.27236   0.57104   0.81694   0.00000  Uiso   1.00
C3     C     0.28270   0.55724   0.72127   0.00000  Uiso   1.00
C4     C     0.35266   0.60491   0.69192   0.00000  Uiso   1.00
C5     C     0.45562   0.66591   0.60873   0.00000  Uiso   1.00
C6     C     0.24597   0.48094   0.94369   0.00000  Uiso   1.00
C7     C     0.23411   0.39138   0.95460   0.00000  Uiso   1.00
C8     C     0.28185   0.36322   0.03197   0.00000  Uiso   1.00
C9     C     0.34378   0.28435   0.14560   0.00000  Uiso   1.00
C10    C     0.15552   0.60062   0.91298   0.00000  Uiso   1.00
C11    C     0.06760   0.61168   0.89808   0.00000  Uiso   1.00
C12    C     0.03918   0.68426   0.94961   0.00000  Uiso   1.00
C13    C     0.96068   0.79121   0.01555   0.00000  Uiso   1.00
C14    C     0.30627   0.63514   0.98226   0.00000  Uiso   1.00
C15    C     0.32985   0.63036   0.88104   0.00000  Uiso   1.00
C16    C     0.39980   0.67808   0.85183   0.00000  Uiso   1.00
C17    C     0.41025   0.66434   0.75613   0.00000  Uiso   1.00
C18    C     0.30345   0.54026   0.00779   0.00000  Uiso   1.00
C19    C     0.35121   0.51222   0.08517   0.00000  Uiso   1.00
C20    C     0.33944   0.42265   0.09618   0.00000  Uiso   1.00
C21    C     0.21300   0.65995   0.97708   0.00000  Uiso   1.00
C22    C     0.18471   0.73252   0.02864   0.00000  Uiso   1.00
C23    C     0.09677   0.74369   0.01382   0.00000  Uiso   1.00
H24    H     0.15568   0.47973   0.81434   0.00000  Uiso   1.00
H25    H     0.23820   0.51131   0.67168   0.00000  Uiso   1.00
H26    H     0.18961   0.34549   0.90499   0.00000  Uiso   1.00
H27    H     0.02314   0.56576   0.84847   0.00000  Uiso   1.00
H28    H     0.35507   0.57247   0.54180   0.00000  Uiso   1.00
H29    H     0.25259   0.22283   0.03375   0.00000  Uiso   1.00
H30    H     0.90154   0.68729   0.91457   0.00000  Uiso   1.00
H31    H     0.35103   0.68133   0.03216   0.00000  Uiso   1.00
H32    H     0.44428   0.72398   0.90145   0.00000  Uiso   1.00
H33    H     0.39569   0.55815   0.13476   0.00000  Uiso   1.00
H34    H     0.22921   0.77841   0.07824   0.00000  Uiso   1.00
H35    H     0.52233   0.74507   0.72828   0.00000  Uiso   1.00
H36    H     0.41985   0.39543   0.22024   0.00000  Uiso   1.00
H37    H     0.06880   0.85989   0.10106   0.00000  Uiso   1.00
O38    O     0.49654   0.68316   0.54513   0.00000  Uiso   1.00
O39    O     0.36207   0.22446   0.19056   0.00000  Uiso   1.00
O40    O     0.90150   0.83382   0.03420   0.00000  Uiso   1.00
N41    N     0.38163   0.60725   0.60362   0.00000  Uiso   1.00
N42    N     0.28583   0.28035   0.06356   0.00000  Uiso   1.00
N43    N     0.95762   0.71458   0.95216   0.00000  Uiso   1.00
N44    N     0.47163   0.70013   0.70397   0.00000  Uiso   1.00
N45    N     0.37583   0.37323   0.16391   0.00000  Uiso   1.00
N46    N     0.04762   0.80745   0.05251   0.00000  Uiso   1.00
C47    C     0.85572   0.19668   0.52451   0.00000  Uiso   1.00
C48    C     0.81052   0.27108   0.57338   0.00000  Uiso   1.00
C49    C     0.72266   0.28223   0.55792   0.00000  Uiso   1.00
C50    C     0.69395   0.35452   0.60965   0.00000  Uiso   1.00
C51    C     0.61508   0.46111   0.67563   0.00000  Uiso   1.00
C52    C     0.92804   0.24220   0.47811   0.00000  Uiso   1.00
C53    C     0.93899   0.22905   0.38256   0.00000  Uiso   1.00
C54    C     0.00922   0.27702   0.35409   0.00000  Uiso   1.00
C55    C     0.11284   0.33872   0.27218   0.00000  Uiso   1.00
C56    C     0.90073   0.15115   0.60383   0.00000  Uiso   1.00
C57    C     0.88875   0.06143   0.61397   0.00000  Uiso   1.00
C58    C     0.93601   0.03274   0.69134   0.00000  Uiso   1.00
C59    C     0.99722   0.95307   0.80461   0.00000  Uiso   1.00
C60    C     0.96097   0.30525   0.64385   0.00000  Uiso   1.00
C61    C     0.86769   0.33005   0.63820   0.00000  Uiso   1.00
C62    C     0.83911   0.40235   0.68996   0.00000  Uiso   1.00
C63    C     0.75123   0.41359   0.67459   0.00000  Uiso   1.00
C64    C     0.98521   0.30117   0.54293   0.00000  Uiso   1.00
C65    C     0.05544   0.34917   0.51460   0.00000  Uiso   1.00
C66    C     0.06650   0.33610   0.41903   0.00000  Uiso   1.00
C67    C     0.95790   0.21012   0.66865   0.00000  Uiso   1.00
C68    C     0.00520   0.18156   0.74601   0.00000  Uiso   1.00
C69    C     0.99328   0.09182   0.75627   0.00000  Uiso   1.00
H70    H     0.81121   0.15077   0.47404   0.00000  Uiso   1.00
H71    H     0.67843   0.23658   0.50775   0.00000  Uiso   1.00
H72    H     0.89474   0.18340   0.33242   0.00000  Uiso   1.00
H73    H     0.84450   0.01582   0.56379   0.00000  Uiso   1.00
H74    H     0.55645   0.35774   0.57368   0.00000  Uiso   1.00
H75    H     0.01256   0.24560   0.20399   0.00000  Uiso   1.00
H76    H     0.90661   0.89221   0.69189   0.00000  Uiso   1.00
H77    H     0.00549   0.35116   0.69432   0.00000  Uiso   1.00
H78    H     0.88337   0.44797   0.74012   0.00000  Uiso   1.00
H79    H     0.09968   0.39479   0.56478   0.00000  Uiso   1.00
H80    H     0.04943   0.22721   0.79616   0.00000  Uiso   1.00
H81    H     0.72278   0.52932   0.76227   0.00000  Uiso   1.00
H82    H     0.17890   0.41717   0.39258   0.00000  Uiso   1.00
H83    H     0.07295   0.06379   0.88048   0.00000  Uiso   1.00
O84    O     0.55578   0.50362   0.69410   0.00000  Uiso   1.00
O85    O     0.15419   0.35647   0.20909   0.00000  Uiso   1.00
O86    O     0.01519   0.89284   0.84920   0.00000  Uiso   1.00
N87    N     0.61235   0.38483   0.61179   0.00000  Uiso   1.00
N88    N     0.03878   0.27999   0.26615   0.00000  Uiso   1.00
N89    N     0.93975   0.94960   0.72228   0.00000  Uiso   1.00
N90    N     0.70185   0.47715   0.71327   0.00000  Uiso   1.00
N91    N     0.12828   0.37231   0.36763   0.00000  Uiso   1.00
N92    N     0.02925   0.04192   0.82376   0.00000  Uiso   1.00
C93    C     0.52458   0.85782   0.19054   0.00000  Uiso   1.00
C94    C     0.56972   0.81200   0.26954   0.00000  Uiso   1.00
C95    C     0.55723   0.72235   0.27977   0.00000  Uiso   1.00
C96    C     0.60468   0.69336   0.35682   0.00000  Uiso   1.00
C97    C     0.66594   0.61331   0.46971   0.00000  Uiso   1.00
C98    C     0.48020   0.93263   0.23985   0.00000  Uiso   1.00
C99    C     0.39244   0.94440   0.22510   0.00000  Uiso   1.00
C100   C     0.36453   0.01697   0.27716   0.00000  Uiso   1.00
C101   C     0.28682   0.12423   0.34390   0.00000  Uiso   1.00
C102   C     0.59679   0.90281   0.14354   0.00000  Uiso   1.00
C103   C     0.60705   0.88953   0.04782   0.00000  Uiso   1.00
C104   C     0.67730   0.93701   0.01878   0.00000  Uiso   1.00
C105   C     0.78061   0.99797   0.93600   0.00000  Uiso   1.00
C106   C     0.63108   0.96578   0.30919   0.00000  Uiso   1.00
C107   C     0.62756   0.87064   0.33398   0.00000  Uiso   1.00
C108   C     0.67505   0.84179   0.41104   0.00000  Uiso   1.00
C109   C     0.66263   0.75210   0.42138   0.00000  Uiso   1.00
C110   C     0.53804   0.99127   0.30429   0.00000  Uiso   1.00
C111   C     0.51026   0.06384   0.35638   0.00000  Uiso   1.00
C112   C     0.42247   0.07572   0.34172   0.00000  Uiso   1.00
C113   C     0.65464   0.96145   0.20799   0.00000  Uiso   1.00
C114   C     0.72488   0.00896   0.17909   0.00000  Uiso   1.00
C115   C     0.73524   0.99575   0.08334   0.00000  Uiso   1.00
H116   H     0.47955   0.81217   0.14036   0.00000  Uiso   1.00
H117   H     0.51245   0.67699   0.22988   0.00000  Uiso   1.00
H118   H     0.34769   0.89902   0.17522   0.00000  Uiso   1.00
H119   H     0.56228   0.84415   0.99797   0.00000  Uiso   1.00
H120   H     0.57442   0.55298   0.35757   0.00000  Uiso   1.00
H121   H     0.22702   0.02115   0.24229   0.00000  Uiso   1.00
H122   H     0.67951   0.90545   0.86851   0.00000  Uiso   1.00
H123   H     0.67611   0.01143   0.35936   0.00000  Uiso   1.00
H124   H     0.71981   0.88718   0.46090   0.00000  Uiso   1.00
H125   H     0.55504   0.10921   0.40624   0.00000  Uiso   1.00
H126   H     0.76962   0.05434   0.22898   0.00000  Uiso   1.00
H127   H     0.74271   0.72358   0.54508   0.00000  Uiso   1.00
H128   H     0.39531   0.19176   0.42979   0.00000  Uiso   1.00
H129   H     0.84780   0.07605   0.05601   0.00000  Uiso   1.00
O130   O     0.68374   0.55296   0.51418   0.00000  Uiso   1.00
O131   O     0.22797   0.16719   0.36292   0.00000  Uiso   1.00
O132   O     0.82162   0.01538   0.87254   0.00000  Uiso   1.00
N133   N     0.60804   0.61018   0.38775   0.00000  Uiso   1.00
N134   N     0.28324   0.04789   0.27998   0.00000  Uiso   1.00
N135   N     0.70627   0.93973   0.93053   0.00000  Uiso   1.00
N136   N     0.69860   0.70198   0.48865   0.00000  Uiso   1.00
N137   N     0.37380   0.13968   0.38088   0.00000  Uiso   1.00
N138   N     0.79682   0.03153   0.03142   0.00000  Uiso   1.00
C139   C     0.79957   0.47408   0.13576   0.00000  Uiso   1.00
C140   C     0.72764   0.42896   0.18306   0.00000  Uiso   1.00
C141   C     0.71730   0.44276   0.27873   0.00000  Uiso   1.00
C142   C     0.64734   0.39509   0.30808   0.00000  Uiso   1.00
C143   C     0.54438   0.33409   0.39127   0.00000  Uiso   1.00
C144   C     0.75403   0.51906   0.05631   0.00000  Uiso   1.00
C145   C     0.76589   0.60862   0.04540   0.00000  Uiso   1.00
C146   C     0.71815   0.63678   0.96803   0.00000  Uiso   1.00
C147   C     0.65622   0.71565   0.85440   0.00000  Uiso   1.00
C148   C     0.84448   0.39938   0.08702   0.00000  Uiso   1.00
C149   C     0.93240   0.38832   0.10192   0.00000  Uiso   1.00
C150   C     0.96082   0.31574   0.05039   0.00000  Uiso   1.00
C151   C     0.03932   0.20879   0.98445   0.00000  Uiso   1.00
C152   C     0.69373   0.36486   0.01774   0.00000  Uiso   1.00
C153   C     0.67015   0.36964   0.11896   0.00000  Uiso   1.00
C154   C     0.60020   0.32192   0.14817   0.00000  Uiso   1.00
C155   C     0.58975   0.33566   0.24387   0.00000  Uiso   1.00
C156   C     0.69655   0.45974   0.99221   0.00000  Uiso   1.00
C157   C     0.64879   0.48778   0.91483   0.00000  Uiso   1.00
C158   C     0.66056   0.57735   0.90382   0.00000  Uiso   1.00
C159   C     0.78700   0.34005   0.02292   0.00000  Uiso   1.00
C160   C     0.81529   0.26748   0.97136   0.00000  Uiso   1.00
C161   C     0.90323   0.25631   0.98618   0.00000  Uiso   1.00
H162   H     0.84432   0.52027   0.18566   0.00000  Uiso   1.00
H163   H     0.76180   0.48869   0.32832   0.00000  Uiso   1.00
H164   H     0.81039   0.65451   0.09501   0.00000  Uiso   1.00
H165   H     0.97686   0.43424   0.15153   0.00000  Uiso   1.00
H166   H     0.64493   0.42753   0.45820   0.00000  Uiso   1.00
H167   H     0.74741   0.77717   0.96625   0.00000  Uiso   1.00
H168   H     0.09846   0.31271   0.08543   0.00000  Uiso   1.00
H169   H     0.64897   0.31867   0.96784   0.00000  Uiso   1.00
H170   H     0.55572   0.27602   0.09855   0.00000  Uiso   1.00
H171   H     0.60431   0.44185   0.86524   0.00000  Uiso   1.00
H172   H     0.77079   0.22159   0.92176   0.00000  Uiso   1.00
H173   H     0.47767   0.25493   0.27172   0.00000  Uiso   1.00
H174   H     0.58015   0.60457   0.77976   0.00000  Uiso   1.00
H175   H     0.93120   0.14011   0.89894   0.00000  Uiso   1.00
O176   O     0.50346   0.31684   0.45487   0.00000  Uiso   1.00
O177   O     0.63793   0.77555   0.80944   0.00000  Uiso   1.00
O178   O     0.09850   0.16618   0.96580   0.00000  Uiso   1.00
N179   N     0.61837   0.39275   0.39638   0.00000  Uiso   1.00
N180   N     0.71417   0.71965   0.93644   0.00000  Uiso   1.00
N181   N     0.04238   0.28542   0.04784   0.00000  Uiso   1.00
N182   N     0.52837   0.29987   0.29603   0.00000  Uiso   1.00
N183   N     0.62417   0.62677   0.83610   0.00000  Uiso   1.00
N184   N     0.95238   0.19255   0.94749   0.00000  Uiso   1.00
C185   C     0.14428   0.80332   0.47549   0.00000  Uiso   1.00
C186   C     0.18948   0.72892   0.42662   0.00000  Uiso   1.00
C187   C     0.27734   0.71778   0.44208   0.00000  Uiso   1.00
C188   C     0.30605   0.64548   0.39035   0.00000  Uiso   1.00
C189   C     0.38492   0.53889   0.32437   0.00000  Uiso   1.00
C190   C     0.07196   0.75780   0.52189   0.00000  Uiso   1.00
C191   C     0.06101   0.77095   0.61744   0.00000  Uiso   1.00
C192   C     0.99078   0.72298   0.64591   0.00000  Uiso   1.00
C193   C     0.88716   0.66128   0.72782   0.00000  Uiso   1.00
C194   C     0.09927   0.84885   0.39617   0.00000  Uiso   1.00
C195   C     0.11125   0.93857   0.38603   0.00000  Uiso   1.00
C196   C     0.06399   0.96726   0.30866   0.00000  Uiso   1.00
C197   C     0.00278   0.04693   0.19539   0.00000  Uiso   1.00
C198   C     0.03903   0.69476   0.35615   0.00000  Uiso   1.00
C199   C     0.13231   0.66995   0.36180   0.00000  Uiso   1.00
C200   C     0.16089   0.59765   0.31004   0.00000  Uiso   1.00
C201   C     0.24877   0.58641   0.32541   0.00000  Uiso   1.00
C202   C     0.01479   0.69883   0.45707   0.00000  Uiso   1.00
C203   C     0.94456   0.65083   0.48540   0.00000  Uiso   1.00
C204   C     0.93350   0.66390   0.58097   0.00000  Uiso   1.00
C205   C     0.04210   0.78988   0.33135   0.00000  Uiso   1.00
C206   C     0.99480   0.81844   0.25399   0.00000  Uiso   1.00
C207   C     0.00672   0.90818   0.24373   0.00000  Uiso   1.00
H208   H     0.18879   0.84923   0.52596   0.00000  Uiso   1.00
H209   H     0.32157   0.76342   0.49225   0.00000  Uiso   1.00
H210   H     0.10526   0.81660   0.66758   0.00000  Uiso   1.00
H211   H     0.15550   0.98418   0.43621   0.00000  Uiso   1.00
H212   H     0.44355   0.64226   0.42633   0.00000  Uiso   1.00
H213   H     0.98744   0.75441   0.79601   0.00000  Uiso   1.00
H214   H     0.09339   0.10779   0.30811   0.00000  Uiso   1.00
H215   H     0.99451   0.64884   0.30568   0.00000  Uiso   1.00
H216   H     0.11663   0.55203   0.25988   0.00000  Uiso   1.00
H217   H     0.90032   0.60521   0.43522   0.00000  Uiso   1.00
H218   H     0.95057   0.77279   0.20384   0.00000  Uiso   1.00
H219   H     0.27722   0.47068   0.23773   0.00000  Uiso   1.00
H220   H     0.82110   0.58283   0.60742   0.00000  Uiso   1.00
H221   H     0.92705   0.93621   0.11952   0.00000  Uiso   1.00
O222   O     0.44422   0.49638   0.30590   0.00000  Uiso   1.00
O223   O     0.84581   0.64353   0.79092   0.00000  Uiso   1.00
O224   O     0.98481   0.10716   0.15080   0.00000  Uiso   1.00
N225   N     0.38765   0.61517   0.38821   0.00000  Uiso   1.00
N226   N     0.96122   0.72001   0.73385   0.00000  Uiso   1.00
N227   N     0.06025   0.05040   0.27772   0.00000  Uiso   1.00
N228   N     0.29815   0.52285   0.28673   0.00000  Uiso   1.00
N229   N     0.87172   0.62769   0.63237   0.00000  Uiso   1.00
N230   N     0.97075   0.95808   0.17624   0.00000  Uiso   1.00
C231   C     0.47542   0.14218   0.80946   0.00000  Uiso   1.00
C232   C     0.43028   0.18800   0.73046   0.00000  Uiso   1.00
C233   C     0.44277   0.27765   0.72023   0.00000  Uiso   1.00
C234   C     0.39532   0.30664   0.64318   0.00000  Uiso   1.00
C235   C     0.33406   0.38669   0.53029   0.00000  Uiso   1.00
C236   C     0.51980   0.06737   0.76015   0.00000  Uiso   1.00
C237   C     0.60756   0.05560   0.77490   0.00000  Uiso   1.00
C238   C     0.63547   0.98303   0.72284   0.00000  Uiso   1.00
C239   C     0.71319   0.87577   0.65610   0.00000  Uiso   1.00
C240   C     0.40321   0.09719   0.85646   0.00000  Uiso   1.00
C241   C     0.39295   0.11047   0.95218   0.00000  Uiso   1.00
C242   C     0.32270   0.06299   0.98122   0.00000  Uiso   1.00
C243   C     0.21939   0.00203   0.06400   0.00000  Uiso   1.00
C244   C     0.36892   0.03422   0.69081   0.00000  Uiso   1.00
C245   C     0.37244   0.12936   0.66602   0.00000  Uiso   1.00
C246   C     0.32495   0.15821   0.58896   0.00000  Uiso   1.00
C247   C     0.33737   0.24790   0.57862   0.00000  Uiso   1.00
C248   C     0.46196   0.00873   0.69571   0.00000  Uiso   1.00
C249   C     0.48974   0.93616   0.64362   0.00000  Uiso   1.00
C250   C     0.57753   0.92428   0.65828   0.00000  Uiso   1.00
C251   C     0.34536   0.03855   0.79201   0.00000  Uiso   1.00
C252   C     0.27512   0.99104   0.82091   0.00000  Uiso   1.00
C253   C     0.26476   0.00425   0.91666   0.00000  Uiso   1.00
H254   H     0.52045   0.18783   0.85964   0.00000  Uiso   1.00
H255   H     0.48755   0.32301   0.77012   0.00000  Uiso   1.00
H256   H     0.65231   0.10098   0.82478   0.00000  Uiso   1.00
H257   H     0.43772   0.15585   0.00203   0.00000  Uiso   1.00
H258   H     0.42558   0.44702   0.64243   0.00000  Uiso   1.00
H259   H     0.77298   0.97885   0.75771   0.00000  Uiso   1.00
H260   H     0.32049   0.09455   0.13149   0.00000  Uiso   1.00
H261   H     0.32389   0.98857   0.64064   0.00000  Uiso   1.00
H262   H     0.28019   0.11282   0.53910   0.00000  Uiso   1.00
H263   H     0.44496   0.89079   0.59376   0.00000  Uiso   1.00
H264   H     0.23038   0.94566   0.77102   0.00000  Uiso   1.00
H265   H     0.25729   0.27642   0.45492   0.00000  Uiso   1.00
H266   H     0.60469   0.80824   0.57021   0.00000  Uiso   1.00
H267   H     0.15220   0.92395   0.94399   0.00000  Uiso   1.00
O268   O     0.31626   0.44704   0.48582   0.00000  Uiso   1.00
O269   O     0.77204   0.83281   0.63708   0.00000  Uiso   1.00
O270   O     0.17838   0.98462   0.12746   0.00000  Uiso   1.00
N271   N     0.39196   0.38982   0.61225   0.00000  Uiso   1.00
N272   N     0.71676   0.95211   0.72002   0.00000  Uiso   1.00
N273   N     0.29373   0.06027   0.06947   0.00000  Uiso   1.00
N274   N     0.30140   0.29802   0.51135   0.00000  Uiso   1.00
N275   N     0.62620   0.86032   0.61912   0.00000  Uiso   1.00
N276   N     0.20318   0.96847   0.96858   0.00000  Uiso   1.00
