data_job_06394
_audit_creation_date              2018-12-19
_audit_creation_method            'Materials Studio'
_symmetry_space_group_name_H-M    'P1'
_symmetry_Int_Tables_number       1
_symmetry_cell_setting            triclinic
loop_
_symmetry_equiv_pos_as_xyz
  x,y,z
_cell_length_a                    17.4937
_cell_length_b                    16.8244
_cell_length_c                    16.5915
_cell_angle_alpha                 101.6630
_cell_angle_beta                  101.0940
_cell_angle_gamma                 101.6160
loop_
_atom_site_label
_atom_site_type_symbol
_atom_site_fract_x
_atom_site_fract_y
_atom_site_fract_z
_atom_site_U_iso_or_equiv
_atom_site_adp_type
_atom_site_occupancy
C1     C     0.92036   0.41264   0.59327   0.00000  Uiso   1.00
C2     C     0.90463   0.45006   0.67836   0.00000  Uiso   1.00
C3     C     0.93950   0.53106   0.72803   0.00000  Uiso   1.00
C4     C     0.91725   0.55328   0.80378   0.00000  Uiso   1.00
C5     C     0.90124   0.62003   0.93211   0.00000  Uiso   1.00
C6     C     0.94846   0.33422   0.60302   0.00000  Uiso   1.00
C7     C     0.02019   0.31781   0.58932   0.00000  Uiso   1.00
C8     C     0.03484   0.24250   0.60163   0.00000  Uiso   1.00
C9     C     0.08686   0.12937   0.61293   0.00000  Uiso   1.00
C10    C     0.83841   0.38196   0.53009   0.00000  Uiso   1.00
C11    C     0.81761   0.40568   0.45506   0.00000  Uiso   1.00
C12    C     0.73960   0.37056   0.40596   0.00000  Uiso   1.00
C13    C     0.62075   0.33155   0.30403   0.00000  Uiso   1.00
C14    C     0.81883   0.30807   0.63946   0.00000  Uiso   1.00
C15    C     0.84948   0.39327   0.70345   0.00000  Uiso   1.00
C16    C     0.82717   0.41537   0.77914   0.00000  Uiso   1.00
C17    C     0.86200   0.49639   0.82892   0.00000  Uiso   1.00
C18    C     0.89332   0.27743   0.62811   0.00000  Uiso   1.00
C19    C     0.90786   0.20212   0.64043   0.00000  Uiso   1.00
C20    C     0.97959   0.18561   0.62677   0.00000  Uiso   1.00
C21    C     0.78326   0.32517   0.55518   0.00000  Uiso   1.00
C22    C     0.70528   0.29000   0.50618   0.00000  Uiso   1.00
C23    C     0.68436   0.31366   0.43110   0.00000  Uiso   1.00
H24    H     0.96329   0.45685   0.57373   0.00000  Uiso   1.00
H25    H     0.98218   0.57499   0.70859   0.00000  Uiso   1.00
H26    H     0.06285   0.36177   0.56990   0.00000  Uiso   1.00
H27    H     0.86030   0.44963   0.43567   0.00000  Uiso   1.00
H28    H     0.97882   0.68092   0.86920   0.00000  Uiso   1.00
H29    H     0.14891   0.23131   0.57672   0.00000  Uiso   1.00
H30    H     0.72179   0.41659   0.29366   0.00000  Uiso   1.00
H31    H     0.77589   0.26385   0.65900   0.00000  Uiso   1.00
H32    H     0.78449   0.37141   0.79854   0.00000  Uiso   1.00
H33    H     0.86517   0.15819   0.65985   0.00000  Uiso   1.00
H34    H     0.66262   0.24605   0.52562   0.00000  Uiso   1.00
H35    H     0.81837   0.51568   0.94221   0.00000  Uiso   1.00
H36    H     0.98847   0.06608   0.64972   0.00000  Uiso   1.00
H37    H     0.56134   0.25135   0.36667   0.00000  Uiso   1.00
O38    O     0.90766   0.67253   0.99597   0.00000  Uiso   1.00
O39    O     0.13080   0.08266   0.61224   0.00000  Uiso   1.00
O40    O     0.57043   0.32574   0.24088   0.00000  Uiso   1.00
N41    N     0.93987   0.62727   0.86722   0.00000  Uiso   1.00
N42    N     0.09890   0.20693   0.59378   0.00000  Uiso   1.00
N43    N     0.69958   0.38013   0.32914   0.00000  Uiso   1.00
N44    N     0.85353   0.53836   0.90650   0.00000  Uiso   1.00
N45    N     0.01256   0.11802   0.63307   0.00000  Uiso   1.00
N46    N     0.61325   0.29121   0.36842   0.00000  Uiso   1.00
C47    C     0.59777   0.92753   0.41403   0.00000  Uiso   1.00
C48    C     0.67775   0.90980   0.45028   0.00000  Uiso   1.00
C49    C     0.72559   0.94536   0.53187   0.00000  Uiso   1.00
C50    C     0.79658   0.92099   0.55280   0.00000  Uiso   1.00
C51    C     0.91741   0.90229   0.61798   0.00000  Uiso   1.00
C52    C     0.60725   0.95703   0.33461   0.00000  Uiso   1.00
C53    C     0.59580   0.03229   0.31895   0.00000  Uiso   1.00
C54    C     0.60744   0.04766   0.24250   0.00000  Uiso   1.00
C55    C     0.61876   0.10225   0.12809   0.00000  Uiso   1.00
C56    C     0.53639   0.84277   0.38324   0.00000  Uiso   1.00
C57    C     0.46535   0.82197   0.40844   0.00000  Uiso   1.00
C58    C     0.41730   0.74115   0.37292   0.00000  Uiso   1.00
C59    C     0.31860   0.61834   0.33401   0.00000  Uiso   1.00
C60    C     0.63876   0.82100   0.30610   0.00000  Uiso   1.00
C61    C     0.70002   0.85194   0.39165   0.00000  Uiso   1.00
C62    C     0.77095   0.82750   0.41246   0.00000  Uiso   1.00
C63    C     0.81889   0.86301   0.49407   0.00000  Uiso   1.00
C64    C     0.62952   0.89916   0.27599   0.00000  Uiso   1.00
C65    C     0.64116   0.91442   0.19954   0.00000  Uiso   1.00
C66    C     0.62974   0.98969   0.18377   0.00000  Uiso   1.00
C67    C     0.55866   0.78490   0.32462   0.00000  Uiso   1.00
C68    C     0.51071   0.70410   0.28904   0.00000  Uiso   1.00
C69    C     0.43961   0.68318   0.31419   0.00000  Uiso   1.00
H70    H     0.58043   0.97259   0.45966   0.00000  Uiso   1.00
H71    H     0.70834   0.99015   0.57722   0.00000  Uiso   1.00
H72    H     0.57857   0.07705   0.36432   0.00000  Uiso   1.00
H73    H     0.44813   0.86677   0.45381   0.00000  Uiso   1.00
H74    H     0.85999   0.98413   0.68168   0.00000  Uiso   1.00
H75    H     0.58633   0.16735   0.23277   0.00000  Uiso   1.00
H76    H     0.31128   0.72393   0.42147   0.00000  Uiso   1.00
H77    H     0.65610   0.77595   0.26046   0.00000  Uiso   1.00
H78    H     0.78817   0.78272   0.36708   0.00000  Uiso   1.00
H79    H     0.65839   0.86962   0.15419   0.00000  Uiso   1.00
H80    H     0.52796   0.65934   0.24368   0.00000  Uiso   1.00
H81    H     0.92478   0.81577   0.51113   0.00000  Uiso   1.00
H82    H     0.65111   0.99900   0.06222   0.00000  Uiso   1.00
H83    H     0.37607   0.55557   0.25092   0.00000  Uiso   1.00
O84    O     0.97791   0.90797   0.67013   0.00000  Uiso   1.00
O85    O     0.61886   0.14835   0.08118   0.00000  Uiso   1.00
O86    O     0.25801   0.56659   0.32875   0.00000  Uiso   1.00
N87    N     0.85711   0.94356   0.62691   0.00000  Uiso   1.00
N88    N     0.60126   0.11488   0.20722   0.00000  Uiso   1.00
N89    N     0.34410   0.70031   0.38362   0.00000  Uiso   1.00
N90    N     0.89197   0.85297   0.53514   0.00000  Uiso   1.00
N91    N     0.63612   0.02428   0.11545   0.00000  Uiso   1.00
N92    N     0.37896   0.60972   0.29185   0.00000  Uiso   1.00
C93    C     0.41665   0.59694   0.93029   0.00000  Uiso   1.00
C94    C     0.45243   0.68016   0.91246   0.00000  Uiso   1.00
C95    C     0.53045   0.72898   0.94753   0.00000  Uiso   1.00
C96    C     0.55158   0.80302   0.92315   0.00000  Uiso   1.00
C97    C     0.61548   0.92857   0.90424   0.00000  Uiso   1.00
C98    C     0.34212   0.60787   0.96175   0.00000  Uiso   1.00
C99    C     0.32741   0.59589   0.03825   0.00000  Uiso   1.00
C100   C     0.25568   0.60906   0.05535   0.00000  Uiso   1.00
C101   C     0.14831   0.62232   0.11292   0.00000  Uiso   1.00
C102   C     0.38602   0.53341   0.84426   0.00000  Uiso   1.00
C103   C     0.40820   0.45880   0.82198   0.00000  Uiso   1.00
C104   C     0.37341   0.40927   0.74017   0.00000  Uiso   1.00
C105   C     0.33420   0.30691   0.61532   0.00000  Uiso   1.00
C106   C     0.31542   0.64161   0.82463   0.00000  Uiso   1.00
C107   C     0.39744   0.70442   0.85508   0.00000  Uiso   1.00
C108   C     0.41846   0.77840   0.83063   0.00000  Uiso   1.00
C109   C     0.49650   0.82732   0.86566   0.00000  Uiso   1.00
C110   C     0.28714   0.63213   0.90436   0.00000  Uiso   1.00
C111   C     0.21541   0.64531   0.92135   0.00000  Uiso   1.00
C112   C     0.20059   0.63337   0.99786   0.00000  Uiso   1.00
C113   C     0.33104   0.55767   0.78687   0.00000  Uiso   1.00
C114   C     0.29621   0.50823   0.70508   0.00000  Uiso   1.00
C115   C     0.31833   0.43358   0.68267   0.00000  Uiso   1.00
H116   H     0.45945   0.57805   0.97497   0.00000  Uiso   1.00
H117   H     0.57298   0.71019   0.99195   0.00000  Uiso   1.00
H118   H     0.36996   0.57711   0.08264   0.00000  Uiso   1.00
H119   H     0.45074   0.44005   0.86641   0.00000  Uiso   1.00
H120   H     0.67459   0.86740   0.98548   0.00000  Uiso   1.00
H121   H     0.24651   0.58677   0.17670   0.00000  Uiso   1.00
H122   H     0.41685   0.29775   0.72073   0.00000  Uiso   1.00
H123   H     0.27261   0.66050   0.77995   0.00000  Uiso   1.00
H124   H     0.37590   0.79716   0.78622   0.00000  Uiso   1.00
H125   H     0.17288   0.66409   0.87692   0.00000  Uiso   1.00
H126   H     0.25366   0.52703   0.66068   0.00000  Uiso   1.00
H127   H     0.51463   0.93800   0.81851   0.00000  Uiso   1.00
H128   H     0.08655   0.65736   0.00974   0.00000  Uiso   1.00
H129   H     0.25689   0.36835   0.55376   0.00000  Uiso   1.00
O130   O     0.66592   0.99112   0.90967   0.00000  Uiso   1.00
O131   O     0.10428   0.62293   0.16053   0.00000  Uiso   1.00
O132   O     0.32777   0.24375   0.56230   0.00000  Uiso   1.00
N133   N     0.62278   0.86525   0.94531   0.00000  Uiso   1.00
N134   N     0.22255   0.60289   0.12410   0.00000  Uiso   1.00
N135   N     0.38179   0.33267   0.69781   0.00000  Uiso   1.00
N136   N     0.53670   0.90324   0.85547   0.00000  Uiso   1.00
N137   N     0.13648   0.64088   0.03425   0.00000  Uiso   1.00
N138   N     0.29572   0.37066   0.60796   0.00000  Uiso   1.00
C139   C     0.42038   0.09427   0.91131   0.00000  Uiso   1.00
C140   C     0.40475   0.17820   0.94908   0.00000  Uiso   1.00
C141   C     0.43956   0.22761   0.03089   0.00000  Uiso   1.00
C142   C     0.41741   0.30225   0.05330   0.00000  Uiso   1.00
C143   C     0.40153   0.42891   0.12067   0.00000  Uiso   1.00
C144   C     0.44867   0.10377   0.83159   0.00000  Uiso   1.00
C145   C     0.52040   0.09060   0.81460   0.00000  Uiso   1.00
C146   C     0.53523   0.10258   0.73810   0.00000  Uiso   1.00
C147   C     0.58750   0.11362   0.62303   0.00000  Uiso   1.00
C148   C     0.33837   0.03144   0.88085   0.00000  Uiso   1.00
C149   C     0.31737   0.95744   0.90525   0.00000  Uiso   1.00
C150   C     0.23934   0.90850   0.87021   0.00000  Uiso   1.00
C151   C     0.12036   0.80724   0.83162   0.00000  Uiso   1.00
C152   C     0.31916   0.13894   0.80565   0.00000  Uiso   1.00
C153   C     0.34976   0.20246   0.89169   0.00000  Uiso   1.00
C154   C     0.32756   0.27704   0.91399   0.00000  Uiso   1.00
C155   C     0.36233   0.32656   0.99581   0.00000  Uiso   1.00
C156   C     0.39369   0.12804   0.77420   0.00000  Uiso   1.00
C157   C     0.40841   0.14003   0.69771   0.00000  Uiso   1.00
C158   C     0.48014   0.12688   0.68061   0.00000  Uiso   1.00
C159   C     0.28339   0.05570   0.82346   0.00000  Uiso   1.00
C160   C     0.20537   0.00687   0.78836   0.00000  Uiso   1.00
C161   C     0.18426   0.93281   0.81272   0.00000  Uiso   1.00
H162   H     0.46319   0.07538   0.95598   0.00000  Uiso   1.00
H163   H     0.48211   0.20882   0.07528   0.00000  Uiso   1.00
H164   H     0.56294   0.07182   0.85902   0.00000  Uiso   1.00
H165   H     0.35994   0.93868   0.94967   0.00000  Uiso   1.00
H166   H     0.47886   0.36748   0.18221   0.00000  Uiso   1.00
H167   H     0.64927   0.07858   0.72622   0.00000  Uiso   1.00
H168   H     0.22121   0.79783   0.91736   0.00000  Uiso   1.00
H169   H     0.27635   0.15783   0.76097   0.00000  Uiso   1.00
H170   H     0.28501   0.29580   0.86957   0.00000  Uiso   1.00
H171   H     0.36584   0.15880   0.65331   0.00000  Uiso   1.00
H172   H     0.16284   0.02566   0.74396   0.00000  Uiso   1.00
H173   H     0.31889   0.43808   0.01525   0.00000  Uiso   1.00
H174   H     0.48931   0.14917   0.55925   0.00000  Uiso   1.00
H175   H     0.06124   0.86843   0.75040   0.00000  Uiso   1.00
O176   O     0.40796   0.49207   0.17368   0.00000  Uiso   1.00
O177   O     0.63154   0.11302   0.57542   0.00000  Uiso   1.00
O178   O     0.06993   0.74470   0.82620   0.00000  Uiso   1.00
N179   N     0.44001   0.36516   0.12802   0.00000  Uiso   1.00
N180   N     0.59934   0.09506   0.70170   0.00000  Uiso   1.00
N181   N     0.19915   0.83258   0.88038   0.00000  Uiso   1.00
N182   N     0.35393   0.40314   0.03818   0.00000  Uiso   1.00
N183   N     0.51326   0.13305   0.61186   0.00000  Uiso   1.00
N184   N     0.11307   0.87056   0.79054   0.00000  Uiso   1.00
C185   C     0.09740   0.91501   0.42997   0.00000  Uiso   1.00
C186   C     0.17749   0.95112   0.41143   0.00000  Uiso   1.00
C187   C     0.22542   0.03193   0.44698   0.00000  Uiso   1.00
C188   C     0.29650   0.05286   0.42180   0.00000  Uiso   1.00
C189   C     0.41750   0.11771   0.40198   0.00000  Uiso   1.00
C190   C     0.10666   0.83685   0.46008   0.00000  Uiso   1.00
C191   C     0.09503   0.82160   0.53653   0.00000  Uiso   1.00
C192   C     0.10648   0.74634   0.55231   0.00000  Uiso   1.00
C193   C     0.11746   0.63377   0.60798   0.00000  Uiso   1.00
C194   C     0.03613   0.88405   0.34443   0.00000  Uiso   1.00
C195   C     0.96517   0.90846   0.32363   0.00000  Uiso   1.00
C196   C     0.91722   0.87292   0.24203   0.00000  Uiso   1.00
C197   C     0.81869   0.83364   0.11813   0.00000  Uiso   1.00
C198   C     0.13839   0.80848   0.32204   0.00000  Uiso   1.00
C199   C     0.19976   0.89325   0.35281   0.00000  Uiso   1.00
C200   C     0.27078   0.91406   0.32757   0.00000  Uiso   1.00
C201   C     0.31881   0.99490   0.36307   0.00000  Uiso   1.00
C202   C     0.12893   0.77899   0.40146   0.00000  Uiso   1.00
C203   C     0.14039   0.70373   0.41712   0.00000  Uiso   1.00
C204   C     0.12879   0.68837   0.49358   0.00000  Uiso   1.00
C205   C     0.05839   0.82619   0.28580   0.00000  Uiso   1.00
C206   C     0.01054   0.79060   0.20422   0.00000  Uiso   1.00
C207   C     0.93953   0.81495   0.18330   0.00000  Uiso   1.00
H208   H     0.08006   0.96006   0.47561   0.00000  Uiso   1.00
H209   H     0.20817   0.07669   0.49235   0.00000  Uiso   1.00
H210   H     0.07780   0.86638   0.58188   0.00000  Uiso   1.00
H211   H     0.94796   0.95324   0.36901   0.00000  Uiso   1.00
H212   H     0.36005   0.18047   0.48509   0.00000  Uiso   1.00
H213   H     0.08511   0.73702   0.67386   0.00000  Uiso   1.00
H214   H     0.81133   0.92017   0.22498   0.00000  Uiso   1.00
H215   H     0.15573   0.76343   0.27639   0.00000  Uiso   1.00
H216   H     0.28800   0.86927   0.28220   0.00000  Uiso   1.00
H217   H     0.15762   0.65897   0.37174   0.00000  Uiso   1.00
H218   H     0.02779   0.74582   0.15887   0.00000  Uiso   1.00
H219   H     0.42484   0.01212   0.31452   0.00000  Uiso   1.00
H220   H     0.14990   0.56867   0.50330   0.00000  Uiso   1.00
H221   H     0.87612   0.75182   0.05442   0.00000  Uiso   1.00
O222   O     0.47810   0.16946   0.40724   0.00000  Uiso   1.00
O223   O     0.11738   0.58767   0.65490   0.00000  Uiso   1.00
O224   O     0.75819   0.82796   0.06598   0.00000  Uiso   1.00
N225   N     0.35713   0.12633   0.44413   0.00000  Uiso   1.00
N226   N     0.10010   0.71173   0.62063   0.00000  Uiso   1.00
N227   N     0.84413   0.88295   0.20097   0.00000  Uiso   1.00
N228   N     0.39200   0.03574   0.35235   0.00000  Uiso   1.00
N229   N     0.13496   0.62115   0.52885   0.00000  Uiso   1.00
N230   N     0.87899   0.79236   0.10920   0.00000  Uiso   1.00
C231   C     0.91699   0.42783   0.09631   0.00000  Uiso   1.00
C232   C     0.95257   0.41071   0.18059   0.00000  Uiso   1.00
C233   C     0.03056   0.44586   0.22957   0.00000  Uiso   1.00
C234   C     0.05149   0.42217   0.30463   0.00000  Uiso   1.00
C235   C     0.11511   0.40427   0.43169   0.00000  Uiso   1.00
C236   C     0.84251   0.45848   0.10770   0.00000  Uiso   1.00
C237   C     0.82797   0.53379   0.09538   0.00000  Uiso   1.00
C238   C     0.75624   0.55031   0.10907   0.00000  Uiso   1.00
C239   C     0.64896   0.60654   0.12291   0.00000  Uiso   1.00
C240   C     0.88632   0.34264   0.03231   0.00000  Uiso   1.00
C241   C     0.90860   0.32055   0.95660   0.00000  Uiso   1.00
C242   C     0.87375   0.23955   0.90681   0.00000  Uiso   1.00
C243   C     0.83450   0.11592   0.80360   0.00000  Uiso   1.00
C244   C     0.81546   0.32326   0.14251   0.00000  Uiso   1.00
C245   C     0.89742   0.35392   0.20568   0.00000  Uiso   1.00
C246   C     0.91824   0.33017   0.28068   0.00000  Uiso   1.00
C247   C     0.99625   0.36527   0.32976   0.00000  Uiso   1.00
C248   C     0.78736   0.40169   0.13279   0.00000  Uiso   1.00
C249   C     0.71564   0.41810   0.14649   0.00000  Uiso   1.00
C250   C     0.70100   0.49341   0.13421   0.00000  Uiso   1.00
C251   C     0.83118   0.28585   0.05740   0.00000  Uiso   1.00
C252   C     0.79628   0.20486   0.00772   0.00000  Uiso   1.00
C253   C     0.81851   0.18265   0.93195   0.00000  Uiso   1.00
H254   H     0.95992   0.47205   0.07678   0.00000  Uiso   1.00
H255   H     0.07322   0.48982   0.21013   0.00000  Uiso   1.00
H256   H     0.87065   0.57772   0.07596   0.00000  Uiso   1.00
H257   H     0.95128   0.36452   0.93720   0.00000  Uiso   1.00
H258   H     0.17450   0.48449   0.36906   0.00000  Uiso   1.00
H259   H     0.74736   0.66984   0.08612   0.00000  Uiso   1.00
H260   H     0.91738   0.22026   0.79353   0.00000  Uiso   1.00
H261   H     0.77253   0.27905   0.16204   0.00000  Uiso   1.00
H262   H     0.87555   0.28622   0.30008   0.00000  Uiso   1.00
H263   H     0.67298   0.37413   0.16591   0.00000  Uiso   1.00
H264   H     0.75361   0.16093   0.02715   0.00000  Uiso   1.00
H265   H     0.01407   0.31925   0.44207   0.00000  Uiso   1.00
H266   H     0.58692   0.50460   0.15913   0.00000  Uiso   1.00
H267   H     0.75694   0.05502   0.86653   0.00000  Uiso   1.00
O268   O     0.16543   0.41009   0.49484   0.00000  Uiso   1.00
O269   O     0.60503   0.65325   0.12363   0.00000  Uiso   1.00
O270   O     0.82809   0.06342   0.73975   0.00000  Uiso   1.00
N271   N     0.12261   0.44460   0.36729   0.00000  Uiso   1.00
N272   N     0.72327   0.61790   0.10278   0.00000  Uiso   1.00
N273   N     0.88220   0.19759   0.82921   0.00000  Uiso   1.00
N274   N     0.03628   0.35568   0.40658   0.00000  Uiso   1.00
N275   N     0.63694   0.52898   0.14206   0.00000  Uiso   1.00
N276   N     0.79587   0.10867   0.86849   0.00000  Uiso   1.00
