data_job_02721
_audit_creation_date              2018-12-19
_audit_creation_method            'Materials Studio'
_symmetry_space_group_name_H-M    'P1'
_symmetry_Int_Tables_number       1
_symmetry_cell_setting            triclinic
loop_
_symmetry_equiv_pos_as_xyz
  x,y,z
_cell_length_a                    11.5958
_cell_length_b                    19.6240
_cell_length_c                    12.4047
_cell_angle_alpha                 90.0000
_cell_angle_beta                  90.0000
_cell_angle_gamma                 90.0000
loop_
_atom_site_label
_atom_site_type_symbol
_atom_site_fract_x
_atom_site_fract_y
_atom_site_fract_z
_atom_site_U_iso_or_equiv
_atom_site_adp_type
_atom_site_occupancy
C1     C     0.80147   0.69957   0.96573   0.00000  Uiso   1.00
C2     C     0.74849   0.69945   0.85321   0.00000  Uiso   1.00
C3     C     0.73694   0.75578   0.78644   0.00000  Uiso   1.00
C4     C     0.68614   0.74511   0.68650   0.00000  Uiso   1.00
C5     C     0.60958   0.75479   0.51667   0.00000  Uiso   1.00
C6     C     0.70962   0.67045   0.04069   0.00000  Uiso   1.00
C7     C     0.66540   0.70240   0.13155   0.00000  Uiso   1.00
C8     C     0.58188   0.66731   0.18944   0.00000  Uiso   1.00
C9     C     0.44504   0.63194   0.31072   0.00000  Uiso   1.00
C10    C     0.89852   0.64717   0.96304   0.00000  Uiso   1.00
C11    C     0.01314   0.65952   0.98864   0.00000  Uiso   1.00
C12    C     0.08867   0.60482   0.98118   0.00000  Uiso   1.00
C13    C     0.24513   0.53329   0.98189   0.00000  Uiso   1.00
C14    C     0.73178   0.58045   0.90700   0.00000  Uiso   1.00
C15    C     0.71063   0.63476   0.82132   0.00000  Uiso   1.00
C16    C     0.65984   0.62400   0.72146   0.00000  Uiso   1.00
C17    C     0.64822   0.68030   0.65454   0.00000  Uiso   1.00
C18    C     0.67176   0.60576   0.00879   0.00000  Uiso   1.00
C19    C     0.58830   0.57061   0.06657   0.00000  Uiso   1.00
C20    C     0.54396   0.60250   0.15749   0.00000  Uiso   1.00
C21    C     0.86067   0.58247   0.93114   0.00000  Uiso   1.00
C22    C     0.93604   0.52773   0.92365   0.00000  Uiso   1.00
C23    C     0.05075   0.54000   0.94922   0.00000  Uiso   1.00
H24    H     0.83093   0.74994   0.99057   0.00000  Uiso   1.00
H25    H     0.76624   0.80584   0.81116   0.00000  Uiso   1.00
H26    H     0.69472   0.75246   0.15622   0.00000  Uiso   1.00
H27    H     0.04240   0.70959   0.01332   0.00000  Uiso   1.00
H28    H     0.67778   0.83930   0.59819   0.00000  Uiso   1.00
H29    H     0.52701   0.72674   0.32580   0.00000  Uiso   1.00
H30    H     0.26017   0.63633   0.02447   0.00000  Uiso   1.00
H31    H     0.70230   0.53008   0.88216   0.00000  Uiso   1.00
H32    H     0.63055   0.57392   0.69679   0.00000  Uiso   1.00
H33    H     0.55903   0.52055   0.04186   0.00000  Uiso   1.00
H34    H     0.90671   0.47767   0.89896   0.00000  Uiso   1.00
H35    H     0.56764   0.65107   0.50537   0.00000  Uiso   1.00
H36    H     0.41688   0.53850   0.23299   0.00000  Uiso   1.00
H37    H     0.15003   0.44810   0.93165   0.00000  Uiso   1.00
O38    O     0.57779   0.77800   0.43181   0.00000  Uiso   1.00
O39    O     0.38001   0.63031   0.38642   0.00000  Uiso   1.00
O40    O     0.34189   0.51171   0.99108   0.00000  Uiso   1.00
N41    N     0.66173   0.78898   0.60178   0.00000  Uiso   1.00
N42    N     0.52075   0.68374   0.28204   0.00000  Uiso   1.00
N43    N     0.20619   0.59922   0.00035   0.00000  Uiso   1.00
N44    N     0.60247   0.68769   0.55183   0.00000  Uiso   1.00
N45    N     0.46149   0.58246   0.23209   0.00000  Uiso   1.00
N46    N     0.14693   0.49793   0.95040   0.00000  Uiso   1.00
C47    C     0.69853   0.30043   0.46573   0.00000  Uiso   1.00
C48    C     0.75151   0.30055   0.35321   0.00000  Uiso   1.00
C49    C     0.76306   0.24422   0.28644   0.00000  Uiso   1.00
C50    C     0.81386   0.25489   0.18650   0.00000  Uiso   1.00
C51    C     0.89042   0.24521   0.01667   0.00000  Uiso   1.00
C52    C     0.79038   0.32955   0.54069   0.00000  Uiso   1.00
C53    C     0.83460   0.29760   0.63155   0.00000  Uiso   1.00
C54    C     0.91812   0.33269   0.68944   0.00000  Uiso   1.00
C55    C     0.05496   0.36806   0.81072   0.00000  Uiso   1.00
C56    C     0.60148   0.35283   0.46304   0.00000  Uiso   1.00
C57    C     0.48686   0.34048   0.48864   0.00000  Uiso   1.00
C58    C     0.41133   0.39518   0.48118   0.00000  Uiso   1.00
C59    C     0.25487   0.46671   0.48189   0.00000  Uiso   1.00
C60    C     0.76822   0.41955   0.40700   0.00000  Uiso   1.00
C61    C     0.78937   0.36524   0.32132   0.00000  Uiso   1.00
C62    C     0.84016   0.37600   0.22146   0.00000  Uiso   1.00
C63    C     0.85178   0.31970   0.15454   0.00000  Uiso   1.00
C64    C     0.82824   0.39424   0.50879   0.00000  Uiso   1.00
C65    C     0.91170   0.42939   0.56657   0.00000  Uiso   1.00
C66    C     0.95604   0.39750   0.65749   0.00000  Uiso   1.00
C67    C     0.63933   0.41753   0.43114   0.00000  Uiso   1.00
C68    C     0.56396   0.47227   0.42365   0.00000  Uiso   1.00
C69    C     0.44925   0.46000   0.44922   0.00000  Uiso   1.00
H70    H     0.66907   0.25006   0.49057   0.00000  Uiso   1.00
H71    H     0.73376   0.19416   0.31116   0.00000  Uiso   1.00
H72    H     0.80528   0.24754   0.65622   0.00000  Uiso   1.00
H73    H     0.45760   0.29041   0.51332   0.00000  Uiso   1.00
H74    H     0.82222   0.16070   0.09819   0.00000  Uiso   1.00
H75    H     0.97299   0.27326   0.82580   0.00000  Uiso   1.00
H76    H     0.23983   0.36367   0.52447   0.00000  Uiso   1.00
H77    H     0.79770   0.46992   0.38216   0.00000  Uiso   1.00
H78    H     0.86945   0.42608   0.19679   0.00000  Uiso   1.00
H79    H     0.94097   0.47945   0.54186   0.00000  Uiso   1.00
H80    H     0.59329   0.52233   0.39896   0.00000  Uiso   1.00
H81    H     0.93236   0.34893   0.00537   0.00000  Uiso   1.00
H82    H     0.08312   0.46150   0.73299   0.00000  Uiso   1.00
H83    H     0.34997   0.55190   0.43165   0.00000  Uiso   1.00
O84    O     0.92221   0.22200   0.93181   0.00000  Uiso   1.00
O85    O     0.11999   0.36969   0.88642   0.00000  Uiso   1.00
O86    O     0.15811   0.48829   0.49108   0.00000  Uiso   1.00
N87    N     0.83827   0.21102   0.10178   0.00000  Uiso   1.00
N88    N     0.97925   0.31626   0.78204   0.00000  Uiso   1.00
N89    N     0.29381   0.40078   0.50035   0.00000  Uiso   1.00
N90    N     0.89753   0.31231   0.05183   0.00000  Uiso   1.00
N91    N     0.03851   0.41754   0.73209   0.00000  Uiso   1.00
N92    N     0.35307   0.50207   0.45040   0.00000  Uiso   1.00
C93    C     0.19853   0.19957   0.53427   0.00000  Uiso   1.00
C94    C     0.25151   0.19945   0.64679   0.00000  Uiso   1.00
C95    C     0.26306   0.25578   0.71356   0.00000  Uiso   1.00
C96    C     0.31386   0.24511   0.81350   0.00000  Uiso   1.00
C97    C     0.39042   0.25479   0.98333   0.00000  Uiso   1.00
C98    C     0.29038   0.17045   0.45931   0.00000  Uiso   1.00
C99    C     0.33460   0.20240   0.36845   0.00000  Uiso   1.00
C100   C     0.41812   0.16731   0.31056   0.00000  Uiso   1.00
C101   C     0.55496   0.13194   0.18928   0.00000  Uiso   1.00
C102   C     0.10148   0.14717   0.53696   0.00000  Uiso   1.00
C103   C     0.98686   0.15952   0.51136   0.00000  Uiso   1.00
C104   C     0.91133   0.10482   0.51882   0.00000  Uiso   1.00
C105   C     0.75487   0.03329   0.51811   0.00000  Uiso   1.00
C106   C     0.26822   0.08045   0.59300   0.00000  Uiso   1.00
C107   C     0.28937   0.13476   0.67868   0.00000  Uiso   1.00
C108   C     0.34016   0.12400   0.77854   0.00000  Uiso   1.00
C109   C     0.35178   0.18030   0.84546   0.00000  Uiso   1.00
C110   C     0.32824   0.10576   0.49121   0.00000  Uiso   1.00
C111   C     0.41170   0.07061   0.43343   0.00000  Uiso   1.00
C112   C     0.45604   0.10250   0.34251   0.00000  Uiso   1.00
C113   C     0.13933   0.08247   0.56886   0.00000  Uiso   1.00
C114   C     0.06396   0.02773   0.57635   0.00000  Uiso   1.00
C115   C     0.94925   0.04000   0.55078   0.00000  Uiso   1.00
H116   H     0.16907   0.24994   0.50943   0.00000  Uiso   1.00
H117   H     0.23376   0.30584   0.68884   0.00000  Uiso   1.00
H118   H     0.30528   0.25246   0.34378   0.00000  Uiso   1.00
H119   H     0.95760   0.20959   0.48668   0.00000  Uiso   1.00
H120   H     0.32222   0.33930   0.90181   0.00000  Uiso   1.00
H121   H     0.47299   0.22674   0.17420   0.00000  Uiso   1.00
H122   H     0.73983   0.13633   0.47553   0.00000  Uiso   1.00
H123   H     0.29770   0.03008   0.61784   0.00000  Uiso   1.00
H124   H     0.36945   0.07392   0.80321   0.00000  Uiso   1.00
H125   H     0.44097   0.02055   0.45814   0.00000  Uiso   1.00
H126   H     0.09329   0.97767   0.60104   0.00000  Uiso   1.00
H127   H     0.43236   0.15107   0.99463   0.00000  Uiso   1.00
H128   H     0.58312   0.03850   0.26701   0.00000  Uiso   1.00
H129   H     0.84997   0.94810   0.56835   0.00000  Uiso   1.00
O130   O     0.42221   0.27800   0.06819   0.00000  Uiso   1.00
O131   O     0.61999   0.13031   0.11358   0.00000  Uiso   1.00
O132   O     0.65811   0.01171   0.50892   0.00000  Uiso   1.00
N133   N     0.33827   0.28898   0.89822   0.00000  Uiso   1.00
N134   N     0.47925   0.18374   0.21796   0.00000  Uiso   1.00
N135   N     0.79381   0.09922   0.49965   0.00000  Uiso   1.00
N136   N     0.39753   0.18769   0.94817   0.00000  Uiso   1.00
N137   N     0.53851   0.08246   0.26791   0.00000  Uiso   1.00
N138   N     0.85307   0.99793   0.54960   0.00000  Uiso   1.00
C139   C     0.30147   0.80043   0.03427   0.00000  Uiso   1.00
C140   C     0.24849   0.80055   0.14679   0.00000  Uiso   1.00
C141   C     0.23694   0.74422   0.21356   0.00000  Uiso   1.00
C142   C     0.18614   0.75489   0.31350   0.00000  Uiso   1.00
C143   C     0.10958   0.74521   0.48333   0.00000  Uiso   1.00
C144   C     0.20962   0.82955   0.95931   0.00000  Uiso   1.00
C145   C     0.16540   0.79760   0.86845   0.00000  Uiso   1.00
C146   C     0.08188   0.83269   0.81056   0.00000  Uiso   1.00
C147   C     0.94504   0.86806   0.68928   0.00000  Uiso   1.00
C148   C     0.39852   0.85283   0.03696   0.00000  Uiso   1.00
C149   C     0.51314   0.84048   0.01136   0.00000  Uiso   1.00
C150   C     0.58867   0.89518   0.01882   0.00000  Uiso   1.00
C151   C     0.74513   0.96671   0.01811   0.00000  Uiso   1.00
C152   C     0.23178   0.91955   0.09300   0.00000  Uiso   1.00
C153   C     0.21063   0.86524   0.17868   0.00000  Uiso   1.00
C154   C     0.15984   0.87600   0.27854   0.00000  Uiso   1.00
C155   C     0.14822   0.81970   0.34546   0.00000  Uiso   1.00
C156   C     0.17176   0.89424   0.99121   0.00000  Uiso   1.00
C157   C     0.08830   0.92939   0.93343   0.00000  Uiso   1.00
C158   C     0.04396   0.89750   0.84251   0.00000  Uiso   1.00
C159   C     0.36067   0.91753   0.06886   0.00000  Uiso   1.00
C160   C     0.43604   0.97227   0.07635   0.00000  Uiso   1.00
C161   C     0.55075   0.96000   0.05078   0.00000  Uiso   1.00
H162   H     0.33093   0.75006   0.00943   0.00000  Uiso   1.00
H163   H     0.26624   0.69416   0.18884   0.00000  Uiso   1.00
H164   H     0.19472   0.74754   0.84378   0.00000  Uiso   1.00
H165   H     0.54240   0.79041   0.98668   0.00000  Uiso   1.00
H166   H     0.17778   0.66070   0.40181   0.00000  Uiso   1.00
H167   H     0.02701   0.77326   0.67420   0.00000  Uiso   1.00
H168   H     0.76017   0.86367   0.97553   0.00000  Uiso   1.00
H169   H     0.20230   0.96992   0.11784   0.00000  Uiso   1.00
H170   H     0.13055   0.92608   0.30321   0.00000  Uiso   1.00
H171   H     0.05903   0.97945   0.95814   0.00000  Uiso   1.00
H172   H     0.40671   0.02233   0.10104   0.00000  Uiso   1.00
H173   H     0.06764   0.84893   0.49463   0.00000  Uiso   1.00
H174   H     0.91688   0.96150   0.76701   0.00000  Uiso   1.00
H175   H     0.65003   0.05190   0.06835   0.00000  Uiso   1.00
O176   O     0.07779   0.72200   0.56819   0.00000  Uiso   1.00
O177   O     0.88001   0.86969   0.61358   0.00000  Uiso   1.00
O178   O     0.84189   0.98829   0.00892   0.00000  Uiso   1.00
N179   N     0.16173   0.71102   0.39822   0.00000  Uiso   1.00
N180   N     0.02075   0.81626   0.71796   0.00000  Uiso   1.00
N181   N     0.70619   0.90078   0.99965   0.00000  Uiso   1.00
N182   N     0.10247   0.81231   0.44817   0.00000  Uiso   1.00
N183   N     0.96149   0.91754   0.76791   0.00000  Uiso   1.00
N184   N     0.64693   0.00207   0.04960   0.00000  Uiso   1.00
