data_job_01890
_audit_creation_date              2018-12-19
_audit_creation_method            'Materials Studio'
_symmetry_space_group_name_H-M    'P1'
_symmetry_Int_Tables_number       1
_symmetry_cell_setting            triclinic
loop_
_symmetry_equiv_pos_as_xyz
  x,y,z
_cell_length_a                    24.9552
_cell_length_b                    11.3712
_cell_length_c                    10.2705
_cell_angle_alpha                 90.0000
_cell_angle_beta                  90.0000
_cell_angle_gamma                 90.0000
loop_
_atom_site_label
_atom_site_type_symbol
_atom_site_fract_x
_atom_site_fract_y
_atom_site_fract_z
_atom_site_U_iso_or_equiv
_atom_site_adp_type
_atom_site_occupancy
C1     C     0.11955   0.18631   0.87484   0.00000  Uiso   1.00
C2     C     0.14783   0.06961   0.84976   0.00000  Uiso   1.00
C3     C     0.17615   0.04034   0.73808   0.00000  Uiso   1.00
C4     C     0.19910   0.92918   0.73394   0.00000  Uiso   1.00
C5     C     0.24379   0.75996   0.67916   0.00000  Uiso   1.00
C6     C     0.06130   0.15571   0.90435   0.00000  Uiso   1.00
C7     C     0.01688   0.19886   0.83858   0.00000  Uiso   1.00
C8     C     0.96699   0.16019   0.88041   0.00000  Uiso   1.00
C9     C     0.87734   0.12473   0.91045   0.00000  Uiso   1.00
C10    C     0.14292   0.23397   0.00146   0.00000  Uiso   1.00
C11    C     0.16711   0.34293   0.01735   0.00000  Uiso   1.00
C12    C     0.18593   0.37017   0.14095   0.00000  Uiso   1.00
C13    C     0.22300   0.45621   0.32176   0.00000  Uiso   1.00
C14    C     0.10994   0.04094   0.06608   0.00000  Uiso   1.00
C15    C     0.14261   0.99065   0.95363   0.00000  Uiso   1.00
C16    C     0.16553   0.87951   0.94966   0.00000  Uiso   1.00
C17    C     0.19388   0.85008   0.83800   0.00000  Uiso   1.00
C18    C     0.05609   0.07676   0.00822   0.00000  Uiso   1.00
C19    C     0.00625   0.03803   0.05016   0.00000  Uiso   1.00
C20    C     0.96176   0.08109   0.98447   0.00000  Uiso   1.00
C21    C     0.13771   0.15502   0.10533   0.00000  Uiso   1.00
C22    C     0.15649   0.18209   0.22893   0.00000  Uiso   1.00
C23    C     0.18070   0.29107   0.24501   0.00000  Uiso   1.00
H24    H     0.12360   0.24778   0.79397   0.00000  Uiso   1.00
H25    H     0.18017   0.10146   0.65771   0.00000  Uiso   1.00
H26    H     0.02093   0.25997   0.75821   0.00000  Uiso   1.00
H27    H     0.17114   0.40401   0.93695   0.00000  Uiso   1.00
H28    H     0.24057   0.90441   0.55243   0.00000  Uiso   1.00
H29    H     0.90479   0.23866   0.76436   0.00000  Uiso   1.00
H30    H     0.22154   0.54241   0.14127   0.00000  Uiso   1.00
H31    H     0.10588   0.97947   0.14695   0.00000  Uiso   1.00
H32    H     0.16148   0.81842   0.03006   0.00000  Uiso   1.00
H33    H     0.00223   0.97693   0.13055   0.00000  Uiso   1.00
H34    H     0.15244   0.12097   0.30929   0.00000  Uiso   1.00
H35    H     0.22540   0.67468   0.85464   0.00000  Uiso   1.00
H36    H     0.88962   0.00894   0.06657   0.00000  Uiso   1.00
H37    H     0.20637   0.31268   0.44348   0.00000  Uiso   1.00
O38    O     0.26987   0.68843   0.62025   0.00000  Uiso   1.00
O39    O     0.82934   0.12697   0.89832   0.00000  Uiso   1.00
O40    O     0.24490   0.52548   0.39280   0.00000  Uiso   1.00
N41    N     0.22938   0.87245   0.63961   0.00000  Uiso   1.00
N42    N     0.91545   0.18494   0.83774   0.00000  Uiso   1.00
N43    N     0.21157   0.46893   0.19012   0.00000  Uiso   1.00
N44    N     0.22122   0.74884   0.80222   0.00000  Uiso   1.00
N45    N     0.90728   0.06133   0.00035   0.00000  Uiso   1.00
N46    N     0.20340   0.34532   0.35274   0.00000  Uiso   1.00
C47    C     0.88045   0.81369   0.37484   0.00000  Uiso   1.00
C48    C     0.85217   0.93039   0.34976   0.00000  Uiso   1.00
C49    C     0.82385   0.95966   0.23808   0.00000  Uiso   1.00
C50    C     0.80090   0.07082   0.23394   0.00000  Uiso   1.00
C51    C     0.75621   0.24004   0.17916   0.00000  Uiso   1.00
C52    C     0.93870   0.84429   0.40435   0.00000  Uiso   1.00
C53    C     0.98312   0.80114   0.33858   0.00000  Uiso   1.00
C54    C     0.03301   0.83981   0.38041   0.00000  Uiso   1.00
C55    C     0.12266   0.87527   0.41045   0.00000  Uiso   1.00
C56    C     0.85708   0.76603   0.50146   0.00000  Uiso   1.00
C57    C     0.83289   0.65707   0.51735   0.00000  Uiso   1.00
C58    C     0.81407   0.62983   0.64095   0.00000  Uiso   1.00
C59    C     0.77700   0.54379   0.82176   0.00000  Uiso   1.00
C60    C     0.89006   0.95906   0.56608   0.00000  Uiso   1.00
C61    C     0.85739   0.00935   0.45363   0.00000  Uiso   1.00
C62    C     0.83447   0.12049   0.44966   0.00000  Uiso   1.00
C63    C     0.80612   0.14992   0.33800   0.00000  Uiso   1.00
C64    C     0.94391   0.92324   0.50822   0.00000  Uiso   1.00
C65    C     0.99375   0.96197   0.55016   0.00000  Uiso   1.00
C66    C     0.03824   0.91891   0.48447   0.00000  Uiso   1.00
C67    C     0.86229   0.84498   0.60533   0.00000  Uiso   1.00
C68    C     0.84351   0.81791   0.72893   0.00000  Uiso   1.00
C69    C     0.81930   0.70893   0.74501   0.00000  Uiso   1.00
H70    H     0.87640   0.75222   0.29397   0.00000  Uiso   1.00
H71    H     0.81983   0.89854   0.15771   0.00000  Uiso   1.00
H72    H     0.97907   0.74003   0.25821   0.00000  Uiso   1.00
H73    H     0.82886   0.59599   0.43695   0.00000  Uiso   1.00
H74    H     0.75943   0.09559   0.05243   0.00000  Uiso   1.00
H75    H     0.09521   0.76134   0.26436   0.00000  Uiso   1.00
H76    H     0.77846   0.45759   0.64127   0.00000  Uiso   1.00
H77    H     0.89412   0.02053   0.64695   0.00000  Uiso   1.00
H78    H     0.83852   0.18158   0.53006   0.00000  Uiso   1.00
H79    H     0.99777   0.02307   0.63055   0.00000  Uiso   1.00
H80    H     0.84756   0.87903   0.80929   0.00000  Uiso   1.00
H81    H     0.77460   0.32532   0.35464   0.00000  Uiso   1.00
H82    H     0.11038   0.99106   0.56657   0.00000  Uiso   1.00
H83    H     0.79363   0.68732   0.94348   0.00000  Uiso   1.00
O84    O     0.73013   0.31157   0.12025   0.00000  Uiso   1.00
O85    O     0.17066   0.87303   0.39832   0.00000  Uiso   1.00
O86    O     0.75510   0.47452   0.89280   0.00000  Uiso   1.00
N87    N     0.77062   0.12755   0.13961   0.00000  Uiso   1.00
N88    N     0.08455   0.81506   0.33774   0.00000  Uiso   1.00
N89    N     0.78843   0.53107   0.69012   0.00000  Uiso   1.00
N90    N     0.77878   0.25116   0.30222   0.00000  Uiso   1.00
N91    N     0.09272   0.93867   0.50035   0.00000  Uiso   1.00
N92    N     0.79660   0.65468   0.85274   0.00000  Uiso   1.00
C93    C     0.61955   0.81369   0.87484   0.00000  Uiso   1.00
C94    C     0.64783   0.93039   0.84976   0.00000  Uiso   1.00
C95    C     0.67615   0.95966   0.73808   0.00000  Uiso   1.00
C96    C     0.69910   0.07082   0.73394   0.00000  Uiso   1.00
C97    C     0.74379   0.24004   0.67916   0.00000  Uiso   1.00
C98    C     0.56130   0.84429   0.90435   0.00000  Uiso   1.00
C99    C     0.51688   0.80114   0.83858   0.00000  Uiso   1.00
C100   C     0.46699   0.83981   0.88041   0.00000  Uiso   1.00
C101   C     0.37734   0.87527   0.91045   0.00000  Uiso   1.00
C102   C     0.64292   0.76603   0.00146   0.00000  Uiso   1.00
C103   C     0.66711   0.65707   0.01735   0.00000  Uiso   1.00
C104   C     0.68593   0.62983   0.14095   0.00000  Uiso   1.00
C105   C     0.72300   0.54379   0.32176   0.00000  Uiso   1.00
C106   C     0.60994   0.95906   0.06608   0.00000  Uiso   1.00
C107   C     0.64261   0.00935   0.95363   0.00000  Uiso   1.00
C108   C     0.66553   0.12049   0.94966   0.00000  Uiso   1.00
C109   C     0.69388   0.14992   0.83800   0.00000  Uiso   1.00
C110   C     0.55609   0.92324   0.00822   0.00000  Uiso   1.00
C111   C     0.50625   0.96197   0.05016   0.00000  Uiso   1.00
C112   C     0.46176   0.91891   0.98447   0.00000  Uiso   1.00
C113   C     0.63771   0.84498   0.10533   0.00000  Uiso   1.00
C114   C     0.65649   0.81791   0.22893   0.00000  Uiso   1.00
C115   C     0.68070   0.70893   0.24501   0.00000  Uiso   1.00
H116   H     0.62360   0.75222   0.79397   0.00000  Uiso   1.00
H117   H     0.68017   0.89854   0.65771   0.00000  Uiso   1.00
H118   H     0.52093   0.74003   0.75821   0.00000  Uiso   1.00
H119   H     0.67114   0.59599   0.93695   0.00000  Uiso   1.00
H120   H     0.74057   0.09559   0.55243   0.00000  Uiso   1.00
H121   H     0.40479   0.76134   0.76436   0.00000  Uiso   1.00
H122   H     0.72154   0.45759   0.14127   0.00000  Uiso   1.00
H123   H     0.60588   0.02053   0.14695   0.00000  Uiso   1.00
H124   H     0.66148   0.18158   0.03006   0.00000  Uiso   1.00
H125   H     0.50223   0.02307   0.13055   0.00000  Uiso   1.00
H126   H     0.65244   0.87903   0.30929   0.00000  Uiso   1.00
H127   H     0.72540   0.32532   0.85464   0.00000  Uiso   1.00
H128   H     0.38962   0.99106   0.06657   0.00000  Uiso   1.00
H129   H     0.70637   0.68732   0.44348   0.00000  Uiso   1.00
O130   O     0.76987   0.31157   0.62025   0.00000  Uiso   1.00
O131   O     0.32934   0.87303   0.89832   0.00000  Uiso   1.00
O132   O     0.74490   0.47452   0.39280   0.00000  Uiso   1.00
N133   N     0.72938   0.12755   0.63961   0.00000  Uiso   1.00
N134   N     0.41545   0.81506   0.83774   0.00000  Uiso   1.00
N135   N     0.71157   0.53107   0.19012   0.00000  Uiso   1.00
N136   N     0.72122   0.25116   0.80222   0.00000  Uiso   1.00
N137   N     0.40728   0.93867   0.00035   0.00000  Uiso   1.00
N138   N     0.70340   0.65468   0.35274   0.00000  Uiso   1.00
C139   C     0.38045   0.18631   0.37484   0.00000  Uiso   1.00
C140   C     0.35217   0.06961   0.34976   0.00000  Uiso   1.00
C141   C     0.32385   0.04034   0.23808   0.00000  Uiso   1.00
C142   C     0.30090   0.92918   0.23394   0.00000  Uiso   1.00
C143   C     0.25621   0.75996   0.17916   0.00000  Uiso   1.00
C144   C     0.43870   0.15571   0.40435   0.00000  Uiso   1.00
C145   C     0.48312   0.19886   0.33858   0.00000  Uiso   1.00
C146   C     0.53301   0.16019   0.38041   0.00000  Uiso   1.00
C147   C     0.62266   0.12473   0.41045   0.00000  Uiso   1.00
C148   C     0.35708   0.23397   0.50146   0.00000  Uiso   1.00
C149   C     0.33289   0.34293   0.51735   0.00000  Uiso   1.00
C150   C     0.31407   0.37017   0.64095   0.00000  Uiso   1.00
C151   C     0.27700   0.45621   0.82176   0.00000  Uiso   1.00
C152   C     0.39006   0.04094   0.56608   0.00000  Uiso   1.00
C153   C     0.35739   0.99065   0.45363   0.00000  Uiso   1.00
C154   C     0.33447   0.87951   0.44966   0.00000  Uiso   1.00
C155   C     0.30612   0.85008   0.33800   0.00000  Uiso   1.00
C156   C     0.44391   0.07676   0.50822   0.00000  Uiso   1.00
C157   C     0.49375   0.03803   0.55016   0.00000  Uiso   1.00
C158   C     0.53824   0.08109   0.48447   0.00000  Uiso   1.00
C159   C     0.36229   0.15502   0.60533   0.00000  Uiso   1.00
C160   C     0.34351   0.18209   0.72893   0.00000  Uiso   1.00
C161   C     0.31930   0.29107   0.74501   0.00000  Uiso   1.00
H162   H     0.37640   0.24778   0.29397   0.00000  Uiso   1.00
H163   H     0.31983   0.10146   0.15771   0.00000  Uiso   1.00
H164   H     0.47907   0.25997   0.25821   0.00000  Uiso   1.00
H165   H     0.32886   0.40401   0.43695   0.00000  Uiso   1.00
H166   H     0.25943   0.90441   0.05243   0.00000  Uiso   1.00
H167   H     0.59521   0.23866   0.26436   0.00000  Uiso   1.00
H168   H     0.27846   0.54241   0.64127   0.00000  Uiso   1.00
H169   H     0.39412   0.97947   0.64695   0.00000  Uiso   1.00
H170   H     0.33852   0.81842   0.53006   0.00000  Uiso   1.00
H171   H     0.49777   0.97693   0.63055   0.00000  Uiso   1.00
H172   H     0.34756   0.12097   0.80929   0.00000  Uiso   1.00
H173   H     0.27460   0.67468   0.35464   0.00000  Uiso   1.00
H174   H     0.61038   0.00894   0.56657   0.00000  Uiso   1.00
H175   H     0.29363   0.31268   0.94348   0.00000  Uiso   1.00
O176   O     0.23013   0.68843   0.12025   0.00000  Uiso   1.00
O177   O     0.67066   0.12697   0.39832   0.00000  Uiso   1.00
O178   O     0.25510   0.52548   0.89280   0.00000  Uiso   1.00
N179   N     0.27062   0.87245   0.13961   0.00000  Uiso   1.00
N180   N     0.58455   0.18494   0.33774   0.00000  Uiso   1.00
N181   N     0.28843   0.46893   0.69012   0.00000  Uiso   1.00
N182   N     0.27878   0.74884   0.30222   0.00000  Uiso   1.00
N183   N     0.59272   0.06133   0.50035   0.00000  Uiso   1.00
N184   N     0.29660   0.34532   0.85274   0.00000  Uiso   1.00
