data_job_02943
_audit_creation_date              2018-12-19
_audit_creation_method            'Materials Studio'
_symmetry_space_group_name_H-M    'P1'
_symmetry_Int_Tables_number       1
_symmetry_cell_setting            triclinic
loop_
_symmetry_equiv_pos_as_xyz
  x,y,z
_cell_length_a                    24.7243
_cell_length_b                    12.8357
_cell_length_c                    16.1348
_cell_angle_alpha                 90.0000
_cell_angle_beta                  90.0000
_cell_angle_gamma                 90.0000
loop_
_atom_site_label
_atom_site_type_symbol
_atom_site_fract_x
_atom_site_fract_y
_atom_site_fract_z
_atom_site_U_iso_or_equiv
_atom_site_adp_type
_atom_site_occupancy
C1     C     0.38522   0.19220   0.02067   0.00000  Uiso   1.00
C2     C     0.35608   0.29660   0.02711   0.00000  Uiso   1.00
C3     C     0.31205   0.32747   0.97977   0.00000  Uiso   1.00
C4     C     0.29119   0.42604   0.99506   0.00000  Uiso   1.00
C5     C     0.24256   0.57824   0.99583   0.00000  Uiso   1.00
C6     C     0.44446   0.21781   0.00401   0.00000  Uiso   1.00
C7     C     0.47472   0.18243   0.93726   0.00000  Uiso   1.00
C8     C     0.52826   0.21467   0.93313   0.00000  Uiso   1.00
C9     C     0.61684   0.24450   0.89808   0.00000  Uiso   1.00
C10    C     0.38340   0.14452   0.10719   0.00000  Uiso   1.00
C11    C     0.36234   0.04750   0.12718   0.00000  Uiso   1.00
C12    C     0.36448   0.01802   0.20992   0.00000  Uiso   1.00
C13    C     0.35826   0.93405   0.33506   0.00000  Uiso   1.00
C14    C     0.42648   0.31235   0.13202   0.00000  Uiso   1.00
C15    C     0.37850   0.36186   0.08759   0.00000  Uiso   1.00
C16    C     0.35770   0.46040   0.10297   0.00000  Uiso   1.00
C17    C     0.31364   0.49141   0.05566   0.00000  Uiso   1.00
C18    C     0.46687   0.28307   0.06449   0.00000  Uiso   1.00
C19    C     0.52038   0.31537   0.06046   0.00000  Uiso   1.00
C20    C     0.55071   0.28005   0.99372   0.00000  Uiso   1.00
C21    C     0.40581   0.20978   0.16767   0.00000  Uiso   1.00
C22    C     0.40799   0.18044   0.25039   0.00000  Uiso   1.00
C23    C     0.38694   0.08340   0.27051   0.00000  Uiso   1.00
H24    H     0.36777   0.14139   0.97357   0.00000  Uiso   1.00
H25    H     0.29472   0.27694   0.93296   0.00000  Uiso   1.00
H26    H     0.45737   0.13192   0.89047   0.00000  Uiso   1.00
H27    H     0.34500   0.99702   0.08036   0.00000  Uiso   1.00
H28    H     0.22362   0.45603   0.91458   0.00000  Uiso   1.00
H29    H     0.56658   0.15022   0.82500   0.00000  Uiso   1.00
H30    H     0.32963   0.86574   0.22543   0.00000  Uiso   1.00
H31    H     0.44394   0.36316   0.17911   0.00000  Uiso   1.00
H32    H     0.37506   0.51089   0.14978   0.00000  Uiso   1.00
H33    H     0.53771   0.36587   0.10729   0.00000  Uiso   1.00
H34    H     0.42534   0.23097   0.29718   0.00000  Uiso   1.00
H35    H     0.28882   0.64591   0.09056   0.00000  Uiso   1.00
H36    H     0.63179   0.34009   0.00098   0.00000  Uiso   1.00
H37    H     0.39484   0.05562   0.40141   0.00000  Uiso   1.00
O38    O     0.20955   0.64416   0.97954   0.00000  Uiso   1.00
O39    O     0.65950   0.24293   0.86203   0.00000  Uiso   1.00
O40    O     0.34863   0.86971   0.38738   0.00000  Uiso   1.00
N41    N     0.24841   0.48043   0.96003   0.00000  Uiso   1.00
N42    N     0.56906   0.19453   0.87628   0.00000  Uiso   1.00
N43    N     0.34754   0.92856   0.25064   0.00000  Uiso   1.00
N44    N     0.28350   0.58261   0.05473   0.00000  Uiso   1.00
N45    N     0.60415   0.29670   0.97097   0.00000  Uiso   1.00
N46    N     0.38263   0.03073   0.34533   0.00000  Uiso   1.00
C47    C     0.11478   0.30780   0.02067   0.00000  Uiso   1.00
C48    C     0.14392   0.20340   0.02711   0.00000  Uiso   1.00
C49    C     0.18795   0.17253   0.97977   0.00000  Uiso   1.00
C50    C     0.20881   0.07396   0.99506   0.00000  Uiso   1.00
C51    C     0.25744   0.92176   0.99583   0.00000  Uiso   1.00
C52    C     0.05554   0.28219   0.00401   0.00000  Uiso   1.00
C53    C     0.02528   0.31757   0.93726   0.00000  Uiso   1.00
C54    C     0.97174   0.28533   0.93313   0.00000  Uiso   1.00
C55    C     0.88316   0.25550   0.89808   0.00000  Uiso   1.00
C56    C     0.11660   0.35548   0.10719   0.00000  Uiso   1.00
C57    C     0.13766   0.45250   0.12718   0.00000  Uiso   1.00
C58    C     0.13552   0.48198   0.20992   0.00000  Uiso   1.00
C59    C     0.14174   0.56595   0.33506   0.00000  Uiso   1.00
C60    C     0.07352   0.18765   0.13202   0.00000  Uiso   1.00
C61    C     0.12150   0.13814   0.08759   0.00000  Uiso   1.00
C62    C     0.14230   0.03960   0.10297   0.00000  Uiso   1.00
C63    C     0.18636   0.00859   0.05566   0.00000  Uiso   1.00
C64    C     0.03313   0.21693   0.06449   0.00000  Uiso   1.00
C65    C     0.97962   0.18463   0.06046   0.00000  Uiso   1.00
C66    C     0.94929   0.21995   0.99372   0.00000  Uiso   1.00
C67    C     0.09419   0.29022   0.16767   0.00000  Uiso   1.00
C68    C     0.09201   0.31956   0.25039   0.00000  Uiso   1.00
C69    C     0.11306   0.41660   0.27051   0.00000  Uiso   1.00
H70    H     0.13223   0.35861   0.97357   0.00000  Uiso   1.00
H71    H     0.20528   0.22306   0.93296   0.00000  Uiso   1.00
H72    H     0.04263   0.36808   0.89047   0.00000  Uiso   1.00
H73    H     0.15500   0.50298   0.08036   0.00000  Uiso   1.00
H74    H     0.27638   0.04397   0.91458   0.00000  Uiso   1.00
H75    H     0.93342   0.34978   0.82500   0.00000  Uiso   1.00
H76    H     0.17037   0.63426   0.22543   0.00000  Uiso   1.00
H77    H     0.05606   0.13684   0.17911   0.00000  Uiso   1.00
H78    H     0.12494   0.98911   0.14978   0.00000  Uiso   1.00
H79    H     0.96229   0.13413   0.10729   0.00000  Uiso   1.00
H80    H     0.07466   0.26903   0.29718   0.00000  Uiso   1.00
H81    H     0.21118   0.85409   0.09056   0.00000  Uiso   1.00
H82    H     0.86821   0.15991   0.00098   0.00000  Uiso   1.00
H83    H     0.10516   0.44438   0.40141   0.00000  Uiso   1.00
O84    O     0.29045   0.85584   0.97954   0.00000  Uiso   1.00
O85    O     0.84050   0.25707   0.86203   0.00000  Uiso   1.00
O86    O     0.15137   0.63029   0.38738   0.00000  Uiso   1.00
N87    N     0.25159   0.01957   0.96003   0.00000  Uiso   1.00
N88    N     0.93094   0.30547   0.87628   0.00000  Uiso   1.00
N89    N     0.15246   0.57144   0.25064   0.00000  Uiso   1.00
N90    N     0.21650   0.91739   0.05473   0.00000  Uiso   1.00
N91    N     0.89585   0.20330   0.97097   0.00000  Uiso   1.00
N92    N     0.11737   0.46927   0.34533   0.00000  Uiso   1.00
C93    C     0.61478   0.69220   0.47933   0.00000  Uiso   1.00
C94    C     0.64392   0.79660   0.47289   0.00000  Uiso   1.00
C95    C     0.68795   0.82747   0.52023   0.00000  Uiso   1.00
C96    C     0.70881   0.92604   0.50494   0.00000  Uiso   1.00
C97    C     0.75744   0.07824   0.50417   0.00000  Uiso   1.00
C98    C     0.55554   0.71781   0.49599   0.00000  Uiso   1.00
C99    C     0.52528   0.68243   0.56274   0.00000  Uiso   1.00
C100   C     0.47174   0.71467   0.56687   0.00000  Uiso   1.00
C101   C     0.38316   0.74450   0.60192   0.00000  Uiso   1.00
C102   C     0.61660   0.64452   0.39281   0.00000  Uiso   1.00
C103   C     0.63766   0.54750   0.37282   0.00000  Uiso   1.00
C104   C     0.63552   0.51802   0.29008   0.00000  Uiso   1.00
C105   C     0.64174   0.43405   0.16494   0.00000  Uiso   1.00
C106   C     0.57352   0.81235   0.36798   0.00000  Uiso   1.00
C107   C     0.62150   0.86186   0.41241   0.00000  Uiso   1.00
C108   C     0.64230   0.96040   0.39703   0.00000  Uiso   1.00
C109   C     0.68636   0.99141   0.44434   0.00000  Uiso   1.00
C110   C     0.53313   0.78307   0.43551   0.00000  Uiso   1.00
C111   C     0.47962   0.81537   0.43954   0.00000  Uiso   1.00
C112   C     0.44929   0.78005   0.50628   0.00000  Uiso   1.00
C113   C     0.59419   0.70978   0.33233   0.00000  Uiso   1.00
C114   C     0.59201   0.68044   0.24961   0.00000  Uiso   1.00
C115   C     0.61306   0.58340   0.22949   0.00000  Uiso   1.00
H116   H     0.63223   0.64139   0.52643   0.00000  Uiso   1.00
H117   H     0.70528   0.77694   0.56704   0.00000  Uiso   1.00
H118   H     0.54263   0.63192   0.60953   0.00000  Uiso   1.00
H119   H     0.65500   0.49702   0.41964   0.00000  Uiso   1.00
H120   H     0.77638   0.95603   0.58542   0.00000  Uiso   1.00
H121   H     0.43342   0.65022   0.67500   0.00000  Uiso   1.00
H122   H     0.67037   0.36574   0.27457   0.00000  Uiso   1.00
H123   H     0.55606   0.86316   0.32089   0.00000  Uiso   1.00
H124   H     0.62494   0.01089   0.35022   0.00000  Uiso   1.00
H125   H     0.46229   0.86587   0.39271   0.00000  Uiso   1.00
H126   H     0.57466   0.73097   0.20282   0.00000  Uiso   1.00
H127   H     0.71118   0.14591   0.40944   0.00000  Uiso   1.00
H128   H     0.36821   0.84009   0.49902   0.00000  Uiso   1.00
H129   H     0.60516   0.55562   0.09859   0.00000  Uiso   1.00
O130   O     0.79045   0.14416   0.52046   0.00000  Uiso   1.00
O131   O     0.34050   0.74293   0.63797   0.00000  Uiso   1.00
O132   O     0.65137   0.36971   0.11262   0.00000  Uiso   1.00
N133   N     0.75159   0.98043   0.53997   0.00000  Uiso   1.00
N134   N     0.43094   0.69453   0.62372   0.00000  Uiso   1.00
N135   N     0.65246   0.42856   0.24936   0.00000  Uiso   1.00
N136   N     0.71650   0.08261   0.44527   0.00000  Uiso   1.00
N137   N     0.39585   0.79670   0.52903   0.00000  Uiso   1.00
N138   N     0.61737   0.53073   0.15467   0.00000  Uiso   1.00
C139   C     0.88522   0.80780   0.47933   0.00000  Uiso   1.00
C140   C     0.85608   0.70340   0.47289   0.00000  Uiso   1.00
C141   C     0.81205   0.67253   0.52023   0.00000  Uiso   1.00
C142   C     0.79119   0.57396   0.50494   0.00000  Uiso   1.00
C143   C     0.74256   0.42176   0.50417   0.00000  Uiso   1.00
C144   C     0.94446   0.78219   0.49599   0.00000  Uiso   1.00
C145   C     0.97472   0.81757   0.56274   0.00000  Uiso   1.00
C146   C     0.02826   0.78533   0.56687   0.00000  Uiso   1.00
C147   C     0.11684   0.75550   0.60192   0.00000  Uiso   1.00
C148   C     0.88340   0.85548   0.39281   0.00000  Uiso   1.00
C149   C     0.86234   0.95250   0.37282   0.00000  Uiso   1.00
C150   C     0.86448   0.98198   0.29008   0.00000  Uiso   1.00
C151   C     0.85826   0.06595   0.16494   0.00000  Uiso   1.00
C152   C     0.92648   0.68765   0.36798   0.00000  Uiso   1.00
C153   C     0.87850   0.63814   0.41241   0.00000  Uiso   1.00
C154   C     0.85770   0.53960   0.39703   0.00000  Uiso   1.00
C155   C     0.81364   0.50859   0.44434   0.00000  Uiso   1.00
C156   C     0.96687   0.71693   0.43551   0.00000  Uiso   1.00
C157   C     0.02038   0.68463   0.43954   0.00000  Uiso   1.00
C158   C     0.05071   0.71995   0.50628   0.00000  Uiso   1.00
C159   C     0.90581   0.79022   0.33233   0.00000  Uiso   1.00
C160   C     0.90799   0.81956   0.24961   0.00000  Uiso   1.00
C161   C     0.88694   0.91660   0.22949   0.00000  Uiso   1.00
H162   H     0.86777   0.85861   0.52643   0.00000  Uiso   1.00
H163   H     0.79472   0.72306   0.56704   0.00000  Uiso   1.00
H164   H     0.95737   0.86808   0.60953   0.00000  Uiso   1.00
H165   H     0.84500   0.00298   0.41964   0.00000  Uiso   1.00
H166   H     0.72362   0.54397   0.58542   0.00000  Uiso   1.00
H167   H     0.06658   0.84978   0.67500   0.00000  Uiso   1.00
H168   H     0.82963   0.13426   0.27457   0.00000  Uiso   1.00
H169   H     0.94394   0.63684   0.32089   0.00000  Uiso   1.00
H170   H     0.87506   0.48911   0.35022   0.00000  Uiso   1.00
H171   H     0.03771   0.63413   0.39271   0.00000  Uiso   1.00
H172   H     0.92534   0.76903   0.20282   0.00000  Uiso   1.00
H173   H     0.78882   0.35409   0.40944   0.00000  Uiso   1.00
H174   H     0.13179   0.65991   0.49902   0.00000  Uiso   1.00
H175   H     0.89484   0.94438   0.09859   0.00000  Uiso   1.00
O176   O     0.70955   0.35584   0.52046   0.00000  Uiso   1.00
O177   O     0.15950   0.75707   0.63797   0.00000  Uiso   1.00
O178   O     0.84863   0.13029   0.11262   0.00000  Uiso   1.00
N179   N     0.74841   0.51957   0.53997   0.00000  Uiso   1.00
N180   N     0.06906   0.80547   0.62372   0.00000  Uiso   1.00
N181   N     0.84754   0.07144   0.24936   0.00000  Uiso   1.00
N182   N     0.78350   0.41739   0.44527   0.00000  Uiso   1.00
N183   N     0.10415   0.70330   0.52903   0.00000  Uiso   1.00
N184   N     0.88263   0.96927   0.15467   0.00000  Uiso   1.00
C185   C     0.61478   0.80780   0.97933   0.00000  Uiso   1.00
C186   C     0.64392   0.70340   0.97289   0.00000  Uiso   1.00
C187   C     0.68795   0.67253   0.02023   0.00000  Uiso   1.00
C188   C     0.70881   0.57396   0.00494   0.00000  Uiso   1.00
C189   C     0.75744   0.42176   0.00417   0.00000  Uiso   1.00
C190   C     0.55554   0.78219   0.99599   0.00000  Uiso   1.00
C191   C     0.52528   0.81757   0.06274   0.00000  Uiso   1.00
C192   C     0.47174   0.78533   0.06687   0.00000  Uiso   1.00
C193   C     0.38316   0.75550   0.10192   0.00000  Uiso   1.00
C194   C     0.61660   0.85548   0.89281   0.00000  Uiso   1.00
C195   C     0.63766   0.95250   0.87282   0.00000  Uiso   1.00
C196   C     0.63552   0.98198   0.79008   0.00000  Uiso   1.00
C197   C     0.64174   0.06595   0.66494   0.00000  Uiso   1.00
C198   C     0.57352   0.68765   0.86798   0.00000  Uiso   1.00
C199   C     0.62150   0.63814   0.91241   0.00000  Uiso   1.00
C200   C     0.64230   0.53960   0.89703   0.00000  Uiso   1.00
C201   C     0.68636   0.50859   0.94434   0.00000  Uiso   1.00
C202   C     0.53313   0.71693   0.93551   0.00000  Uiso   1.00
C203   C     0.47962   0.68463   0.93954   0.00000  Uiso   1.00
C204   C     0.44929   0.71995   0.00628   0.00000  Uiso   1.00
C205   C     0.59419   0.79022   0.83233   0.00000  Uiso   1.00
C206   C     0.59201   0.81956   0.74961   0.00000  Uiso   1.00
C207   C     0.61306   0.91660   0.72949   0.00000  Uiso   1.00
H208   H     0.63223   0.85861   0.02643   0.00000  Uiso   1.00
H209   H     0.70528   0.72306   0.06704   0.00000  Uiso   1.00
H210   H     0.54263   0.86808   0.10953   0.00000  Uiso   1.00
H211   H     0.65500   0.00298   0.91964   0.00000  Uiso   1.00
H212   H     0.77638   0.54397   0.08542   0.00000  Uiso   1.00
H213   H     0.43342   0.84978   0.17500   0.00000  Uiso   1.00
H214   H     0.67037   0.13426   0.77457   0.00000  Uiso   1.00
H215   H     0.55606   0.63684   0.82089   0.00000  Uiso   1.00
H216   H     0.62494   0.48911   0.85022   0.00000  Uiso   1.00
H217   H     0.46229   0.63413   0.89271   0.00000  Uiso   1.00
H218   H     0.57466   0.76903   0.70282   0.00000  Uiso   1.00
H219   H     0.71118   0.35409   0.90944   0.00000  Uiso   1.00
H220   H     0.36821   0.65991   0.99902   0.00000  Uiso   1.00
H221   H     0.60516   0.94438   0.59859   0.00000  Uiso   1.00
O222   O     0.79045   0.35584   0.02046   0.00000  Uiso   1.00
O223   O     0.34050   0.75707   0.13797   0.00000  Uiso   1.00
O224   O     0.65137   0.13029   0.61262   0.00000  Uiso   1.00
N225   N     0.75159   0.51957   0.03997   0.00000  Uiso   1.00
N226   N     0.43094   0.80547   0.12372   0.00000  Uiso   1.00
N227   N     0.65246   0.07144   0.74936   0.00000  Uiso   1.00
N228   N     0.71650   0.41739   0.94527   0.00000  Uiso   1.00
N229   N     0.39585   0.70330   0.02903   0.00000  Uiso   1.00
N230   N     0.61737   0.96927   0.65467   0.00000  Uiso   1.00
C231   C     0.88522   0.69220   0.97933   0.00000  Uiso   1.00
C232   C     0.85608   0.79660   0.97289   0.00000  Uiso   1.00
C233   C     0.81205   0.82747   0.02023   0.00000  Uiso   1.00
C234   C     0.79119   0.92604   0.00494   0.00000  Uiso   1.00
C235   C     0.74256   0.07824   0.00417   0.00000  Uiso   1.00
C236   C     0.94446   0.71781   0.99599   0.00000  Uiso   1.00
C237   C     0.97472   0.68243   0.06274   0.00000  Uiso   1.00
C238   C     0.02826   0.71467   0.06687   0.00000  Uiso   1.00
C239   C     0.11684   0.74450   0.10192   0.00000  Uiso   1.00
C240   C     0.88340   0.64452   0.89281   0.00000  Uiso   1.00
C241   C     0.86234   0.54750   0.87282   0.00000  Uiso   1.00
C242   C     0.86448   0.51802   0.79008   0.00000  Uiso   1.00
C243   C     0.85826   0.43405   0.66494   0.00000  Uiso   1.00
C244   C     0.92648   0.81235   0.86798   0.00000  Uiso   1.00
C245   C     0.87850   0.86186   0.91241   0.00000  Uiso   1.00
C246   C     0.85770   0.96040   0.89703   0.00000  Uiso   1.00
C247   C     0.81364   0.99141   0.94434   0.00000  Uiso   1.00
C248   C     0.96687   0.78307   0.93551   0.00000  Uiso   1.00
C249   C     0.02038   0.81537   0.93954   0.00000  Uiso   1.00
C250   C     0.05071   0.78005   0.00628   0.00000  Uiso   1.00
C251   C     0.90581   0.70978   0.83233   0.00000  Uiso   1.00
C252   C     0.90799   0.68044   0.74961   0.00000  Uiso   1.00
C253   C     0.88694   0.58340   0.72949   0.00000  Uiso   1.00
H254   H     0.86777   0.64139   0.02643   0.00000  Uiso   1.00
H255   H     0.79472   0.77694   0.06704   0.00000  Uiso   1.00
H256   H     0.95737   0.63192   0.10953   0.00000  Uiso   1.00
H257   H     0.84500   0.49702   0.91964   0.00000  Uiso   1.00
H258   H     0.72362   0.95603   0.08542   0.00000  Uiso   1.00
H259   H     0.06658   0.65022   0.17500   0.00000  Uiso   1.00
H260   H     0.82963   0.36574   0.77457   0.00000  Uiso   1.00
H261   H     0.94394   0.86316   0.82089   0.00000  Uiso   1.00
H262   H     0.87506   0.01089   0.85022   0.00000  Uiso   1.00
H263   H     0.03771   0.86587   0.89271   0.00000  Uiso   1.00
H264   H     0.92534   0.73097   0.70282   0.00000  Uiso   1.00
H265   H     0.78882   0.14591   0.90944   0.00000  Uiso   1.00
H266   H     0.13179   0.84009   0.99902   0.00000  Uiso   1.00
H267   H     0.89484   0.55562   0.59859   0.00000  Uiso   1.00
O268   O     0.70955   0.14416   0.02046   0.00000  Uiso   1.00
O269   O     0.15950   0.74293   0.13797   0.00000  Uiso   1.00
O270   O     0.84863   0.36971   0.61262   0.00000  Uiso   1.00
N271   N     0.74841   0.98043   0.03997   0.00000  Uiso   1.00
N272   N     0.06906   0.69453   0.12372   0.00000  Uiso   1.00
N273   N     0.84754   0.42856   0.74936   0.00000  Uiso   1.00
N274   N     0.78350   0.08261   0.94527   0.00000  Uiso   1.00
N275   N     0.10415   0.79670   0.02903   0.00000  Uiso   1.00
N276   N     0.88263   0.53073   0.65467   0.00000  Uiso   1.00
C277   C     0.38522   0.30780   0.52067   0.00000  Uiso   1.00
C278   C     0.35608   0.20340   0.52711   0.00000  Uiso   1.00
C279   C     0.31205   0.17253   0.47977   0.00000  Uiso   1.00
C280   C     0.29119   0.07396   0.49506   0.00000  Uiso   1.00
C281   C     0.24256   0.92176   0.49583   0.00000  Uiso   1.00
C282   C     0.44446   0.28219   0.50401   0.00000  Uiso   1.00
C283   C     0.47472   0.31757   0.43726   0.00000  Uiso   1.00
C284   C     0.52826   0.28533   0.43313   0.00000  Uiso   1.00
C285   C     0.61684   0.25550   0.39808   0.00000  Uiso   1.00
C286   C     0.38340   0.35548   0.60719   0.00000  Uiso   1.00
C287   C     0.36234   0.45250   0.62718   0.00000  Uiso   1.00
C288   C     0.36448   0.48198   0.70992   0.00000  Uiso   1.00
C289   C     0.35826   0.56595   0.83506   0.00000  Uiso   1.00
C290   C     0.42648   0.18765   0.63202   0.00000  Uiso   1.00
C291   C     0.37850   0.13814   0.58759   0.00000  Uiso   1.00
C292   C     0.35770   0.03960   0.60297   0.00000  Uiso   1.00
C293   C     0.31364   0.00859   0.55566   0.00000  Uiso   1.00
C294   C     0.46687   0.21693   0.56449   0.00000  Uiso   1.00
C295   C     0.52038   0.18463   0.56046   0.00000  Uiso   1.00
C296   C     0.55071   0.21995   0.49372   0.00000  Uiso   1.00
C297   C     0.40581   0.29022   0.66767   0.00000  Uiso   1.00
C298   C     0.40799   0.31956   0.75039   0.00000  Uiso   1.00
C299   C     0.38694   0.41660   0.77051   0.00000  Uiso   1.00
H300   H     0.36777   0.35861   0.47357   0.00000  Uiso   1.00
H301   H     0.29472   0.22306   0.43296   0.00000  Uiso   1.00
H302   H     0.45737   0.36808   0.39047   0.00000  Uiso   1.00
H303   H     0.34500   0.50298   0.58036   0.00000  Uiso   1.00
H304   H     0.22362   0.04397   0.41458   0.00000  Uiso   1.00
H305   H     0.56658   0.34978   0.32500   0.00000  Uiso   1.00
H306   H     0.32963   0.63426   0.72543   0.00000  Uiso   1.00
H307   H     0.44394   0.13684   0.67911   0.00000  Uiso   1.00
H308   H     0.37506   0.98911   0.64978   0.00000  Uiso   1.00
H309   H     0.53771   0.13413   0.60729   0.00000  Uiso   1.00
H310   H     0.42534   0.26903   0.79718   0.00000  Uiso   1.00
H311   H     0.28882   0.85409   0.59056   0.00000  Uiso   1.00
H312   H     0.63179   0.15991   0.50098   0.00000  Uiso   1.00
H313   H     0.39484   0.44438   0.90141   0.00000  Uiso   1.00
O314   O     0.20955   0.85584   0.47954   0.00000  Uiso   1.00
O315   O     0.65950   0.25707   0.36203   0.00000  Uiso   1.00
O316   O     0.34863   0.63029   0.88738   0.00000  Uiso   1.00
N317   N     0.24841   0.01957   0.46003   0.00000  Uiso   1.00
N318   N     0.56906   0.30547   0.37628   0.00000  Uiso   1.00
N319   N     0.34754   0.57144   0.75064   0.00000  Uiso   1.00
N320   N     0.28350   0.91739   0.55473   0.00000  Uiso   1.00
N321   N     0.60415   0.20330   0.47097   0.00000  Uiso   1.00
N322   N     0.38263   0.46927   0.84533   0.00000  Uiso   1.00
C323   C     0.11478   0.19220   0.52067   0.00000  Uiso   1.00
C324   C     0.14392   0.29660   0.52711   0.00000  Uiso   1.00
C325   C     0.18795   0.32747   0.47977   0.00000  Uiso   1.00
C326   C     0.20881   0.42604   0.49506   0.00000  Uiso   1.00
C327   C     0.25744   0.57824   0.49583   0.00000  Uiso   1.00
C328   C     0.05554   0.21781   0.50401   0.00000  Uiso   1.00
C329   C     0.02528   0.18243   0.43726   0.00000  Uiso   1.00
C330   C     0.97174   0.21467   0.43313   0.00000  Uiso   1.00
C331   C     0.88316   0.24450   0.39808   0.00000  Uiso   1.00
C332   C     0.11660   0.14452   0.60719   0.00000  Uiso   1.00
C333   C     0.13766   0.04750   0.62718   0.00000  Uiso   1.00
C334   C     0.13552   0.01802   0.70992   0.00000  Uiso   1.00
C335   C     0.14174   0.93405   0.83506   0.00000  Uiso   1.00
C336   C     0.07352   0.31235   0.63202   0.00000  Uiso   1.00
C337   C     0.12150   0.36186   0.58759   0.00000  Uiso   1.00
C338   C     0.14230   0.46040   0.60297   0.00000  Uiso   1.00
C339   C     0.18636   0.49141   0.55566   0.00000  Uiso   1.00
C340   C     0.03313   0.28307   0.56449   0.00000  Uiso   1.00
C341   C     0.97962   0.31537   0.56046   0.00000  Uiso   1.00
C342   C     0.94929   0.28005   0.49372   0.00000  Uiso   1.00
C343   C     0.09419   0.20978   0.66767   0.00000  Uiso   1.00
C344   C     0.09201   0.18044   0.75039   0.00000  Uiso   1.00
C345   C     0.11306   0.08340   0.77051   0.00000  Uiso   1.00
H346   H     0.13223   0.14139   0.47357   0.00000  Uiso   1.00
H347   H     0.20528   0.27694   0.43296   0.00000  Uiso   1.00
H348   H     0.04263   0.13192   0.39047   0.00000  Uiso   1.00
H349   H     0.15500   0.99702   0.58036   0.00000  Uiso   1.00
H350   H     0.27638   0.45603   0.41458   0.00000  Uiso   1.00
H351   H     0.93342   0.15022   0.32500   0.00000  Uiso   1.00
H352   H     0.17037   0.86574   0.72543   0.00000  Uiso   1.00
H353   H     0.05606   0.36316   0.67911   0.00000  Uiso   1.00
H354   H     0.12494   0.51089   0.64978   0.00000  Uiso   1.00
H355   H     0.96229   0.36587   0.60729   0.00000  Uiso   1.00
H356   H     0.07466   0.23097   0.79718   0.00000  Uiso   1.00
H357   H     0.21118   0.64591   0.59056   0.00000  Uiso   1.00
H358   H     0.86821   0.34009   0.50098   0.00000  Uiso   1.00
H359   H     0.10516   0.05562   0.90141   0.00000  Uiso   1.00
O360   O     0.29045   0.64416   0.47954   0.00000  Uiso   1.00
O361   O     0.84050   0.24293   0.36203   0.00000  Uiso   1.00
O362   O     0.15137   0.86971   0.88738   0.00000  Uiso   1.00
N363   N     0.25159   0.48043   0.46003   0.00000  Uiso   1.00
N364   N     0.93094   0.19453   0.37628   0.00000  Uiso   1.00
N365   N     0.15246   0.92856   0.75064   0.00000  Uiso   1.00
N366   N     0.21650   0.58261   0.55473   0.00000  Uiso   1.00
N367   N     0.89585   0.29670   0.47097   0.00000  Uiso   1.00
N368   N     0.11737   0.03073   0.84533   0.00000  Uiso   1.00
