data_job_03995
_audit_creation_date              2018-12-19
_audit_creation_method            'Materials Studio'
_symmetry_space_group_name_H-M    'P1'
_symmetry_Int_Tables_number       1
_symmetry_cell_setting            triclinic
loop_
_symmetry_equiv_pos_as_xyz
  x,y,z
_cell_length_a                    10.2105
_cell_length_b                    12.1750
_cell_length_c                    26.7363
_cell_angle_alpha                 90.0000
_cell_angle_beta                  116.6030
_cell_angle_gamma                 90.0000
loop_
_atom_site_label
_atom_site_type_symbol
_atom_site_fract_x
_atom_site_fract_y
_atom_site_fract_z
_atom_site_U_iso_or_equiv
_atom_site_adp_type
_atom_site_occupancy
C1     C     0.96361   0.76945   0.07337   0.00000  Uiso   1.00
C2     C     0.85440   0.85604   0.07224   0.00000  Uiso   1.00
C3     C     0.83232   0.95806   0.04658   0.00000  Uiso   1.00
C4     C     0.72729   0.02547   0.05025   0.00000  Uiso   1.00
C5     C     0.56984   0.16500   0.04417   0.00000  Uiso   1.00
C6     C     0.87457   0.66555   0.04865   0.00000  Uiso   1.00
C7     C     0.86948   0.60740   0.00317   0.00000  Uiso   1.00
C8     C     0.78144   0.51444   0.98699   0.00000  Uiso   1.00
C9     C     0.65539   0.35818   0.94431   0.00000  Uiso   1.00
C10    C     0.06091   0.74448   0.13495   0.00000  Uiso   1.00
C11    C     0.21250   0.75267   0.16202   0.00000  Uiso   1.00
C12    C     0.28135   0.72614   0.21850   0.00000  Uiso   1.00
C13    C     0.44463   0.69243   0.30980   0.00000  Uiso   1.00
C14    C     0.81634   0.70774   0.12552   0.00000  Uiso   1.00
C15    C     0.77441   0.82252   0.10057   0.00000  Uiso   1.00
C16    C     0.66939   0.88979   0.10428   0.00000  Uiso   1.00
C17    C     0.64716   0.99190   0.07863   0.00000  Uiso   1.00
C18    C     0.79459   0.63203   0.07698   0.00000  Uiso   1.00
C19    C     0.70655   0.53913   0.06087   0.00000  Uiso   1.00
C20    C     0.70131   0.48086   0.01537   0.00000  Uiso   1.00
C21    C     0.98093   0.71096   0.16328   0.00000  Uiso   1.00
C22    C     0.04956   0.68440   0.21972   0.00000  Uiso   1.00
C23    C     0.20122   0.69256   0.24687   0.00000  Uiso   1.00
H24    H     0.02588   0.79554   0.05131   0.00000  Uiso   1.00
H25    H     0.89424   0.98397   0.02465   0.00000  Uiso   1.00
H26    H     0.93140   0.63335   0.98126   0.00000  Uiso   1.00
H27    H     0.27436   0.77861   0.14008   0.00000  Uiso   1.00
H28    H     0.71298   0.17808   0.00758   0.00000  Uiso   1.00
H29    H     0.79137   0.43877   0.91608   0.00000  Uiso   1.00
H30    H     0.51458   0.74506   0.25100   0.00000  Uiso   1.00
H31    H     0.75407   0.68164   0.14758   0.00000  Uiso   1.00
H32    H     0.60751   0.86383   0.12621   0.00000  Uiso   1.00
H33    H     0.64467   0.51321   0.08280   0.00000  Uiso   1.00
H34    H     0.98763   0.65847   0.24163   0.00000  Uiso   1.00
H35    H     0.48025   0.08057   0.09000   0.00000  Uiso   1.00
H36    H     0.55865   0.34125   0.99850   0.00000  Uiso   1.00
H37    H     0.28186   0.64755   0.33342   0.00000  Uiso   1.00
O38    O     0.50507   0.25121   0.03298   0.00000  Uiso   1.00
O39    O     0.60795   0.28125   0.91294   0.00000  Uiso   1.00
O40    O     0.55678   0.68310   0.35234   0.00000  Uiso   1.00
N41    N     0.67834   0.13014   0.02992   0.00000  Uiso   1.00
N42    N     0.75162   0.43893   0.94436   0.00000  Uiso   1.00
N43    N     0.42776   0.72526   0.25748   0.00000  Uiso   1.00
N44    N     0.55311   0.07767   0.07427   0.00000  Uiso   1.00
N45    N     0.62639   0.38646   0.98871   0.00000  Uiso   1.00
N46    N     0.30253   0.67279   0.30183   0.00000  Uiso   1.00
C47    C     0.03639   0.26945   0.42663   0.00000  Uiso   1.00
C48    C     0.14560   0.35604   0.42776   0.00000  Uiso   1.00
C49    C     0.16768   0.45806   0.45342   0.00000  Uiso   1.00
C50    C     0.27271   0.52547   0.44975   0.00000  Uiso   1.00
C51    C     0.43016   0.66500   0.45583   0.00000  Uiso   1.00
C52    C     0.12543   0.16555   0.45135   0.00000  Uiso   1.00
C53    C     0.13052   0.10740   0.49683   0.00000  Uiso   1.00
C54    C     0.21856   0.01444   0.51301   0.00000  Uiso   1.00
C55    C     0.34461   0.85818   0.55569   0.00000  Uiso   1.00
C56    C     0.93909   0.24448   0.36505   0.00000  Uiso   1.00
C57    C     0.78750   0.25267   0.33798   0.00000  Uiso   1.00
C58    C     0.71865   0.22614   0.28150   0.00000  Uiso   1.00
C59    C     0.55537   0.19243   0.19020   0.00000  Uiso   1.00
C60    C     0.18366   0.20774   0.37448   0.00000  Uiso   1.00
C61    C     0.22559   0.32252   0.39943   0.00000  Uiso   1.00
C62    C     0.33061   0.38979   0.39572   0.00000  Uiso   1.00
C63    C     0.35284   0.49190   0.42137   0.00000  Uiso   1.00
C64    C     0.20541   0.13203   0.42302   0.00000  Uiso   1.00
C65    C     0.29345   0.03913   0.43913   0.00000  Uiso   1.00
C66    C     0.29869   0.98086   0.48463   0.00000  Uiso   1.00
C67    C     0.01907   0.21096   0.33672   0.00000  Uiso   1.00
C68    C     0.95044   0.18440   0.28028   0.00000  Uiso   1.00
C69    C     0.79878   0.19256   0.25313   0.00000  Uiso   1.00
H70    H     0.97412   0.29554   0.44869   0.00000  Uiso   1.00
H71    H     0.10576   0.48397   0.47535   0.00000  Uiso   1.00
H72    H     0.06860   0.13335   0.51874   0.00000  Uiso   1.00
H73    H     0.72564   0.27861   0.35992   0.00000  Uiso   1.00
H74    H     0.28702   0.67808   0.49242   0.00000  Uiso   1.00
H75    H     0.20863   0.93877   0.58392   0.00000  Uiso   1.00
H76    H     0.48542   0.24506   0.24900   0.00000  Uiso   1.00
H77    H     0.24593   0.18164   0.35242   0.00000  Uiso   1.00
H78    H     0.39249   0.36383   0.37379   0.00000  Uiso   1.00
H79    H     0.35533   0.01321   0.41720   0.00000  Uiso   1.00
H80    H     0.01237   0.15847   0.25837   0.00000  Uiso   1.00
H81    H     0.51975   0.58057   0.41000   0.00000  Uiso   1.00
H82    H     0.44135   0.84125   0.50150   0.00000  Uiso   1.00
H83    H     0.71814   0.14755   0.16658   0.00000  Uiso   1.00
O84    O     0.49493   0.75121   0.46702   0.00000  Uiso   1.00
O85    O     0.39205   0.78125   0.58706   0.00000  Uiso   1.00
O86    O     0.44322   0.18310   0.14766   0.00000  Uiso   1.00
N87    N     0.32166   0.63014   0.47008   0.00000  Uiso   1.00
N88    N     0.24838   0.93893   0.55564   0.00000  Uiso   1.00
N89    N     0.57224   0.22526   0.24252   0.00000  Uiso   1.00
N90    N     0.44689   0.57767   0.42573   0.00000  Uiso   1.00
N91    N     0.37361   0.88646   0.51129   0.00000  Uiso   1.00
N92    N     0.69747   0.17279   0.19817   0.00000  Uiso   1.00
C93    C     0.03639   0.23055   0.92663   0.00000  Uiso   1.00
C94    C     0.14560   0.14396   0.92776   0.00000  Uiso   1.00
C95    C     0.16768   0.04194   0.95342   0.00000  Uiso   1.00
C96    C     0.27271   0.97453   0.94975   0.00000  Uiso   1.00
C97    C     0.43016   0.83500   0.95583   0.00000  Uiso   1.00
C98    C     0.12543   0.33445   0.95135   0.00000  Uiso   1.00
C99    C     0.13052   0.39260   0.99683   0.00000  Uiso   1.00
C100   C     0.21856   0.48556   0.01301   0.00000  Uiso   1.00
C101   C     0.34461   0.64182   0.05569   0.00000  Uiso   1.00
C102   C     0.93909   0.25552   0.86505   0.00000  Uiso   1.00
C103   C     0.78750   0.24733   0.83798   0.00000  Uiso   1.00
C104   C     0.71865   0.27386   0.78150   0.00000  Uiso   1.00
C105   C     0.55537   0.30757   0.69020   0.00000  Uiso   1.00
C106   C     0.18366   0.29226   0.87448   0.00000  Uiso   1.00
C107   C     0.22559   0.17748   0.89943   0.00000  Uiso   1.00
C108   C     0.33061   0.11021   0.89572   0.00000  Uiso   1.00
C109   C     0.35284   0.00810   0.92137   0.00000  Uiso   1.00
C110   C     0.20541   0.36797   0.92302   0.00000  Uiso   1.00
C111   C     0.29345   0.46087   0.93913   0.00000  Uiso   1.00
C112   C     0.29869   0.51914   0.98463   0.00000  Uiso   1.00
C113   C     0.01907   0.28904   0.83672   0.00000  Uiso   1.00
C114   C     0.95044   0.31560   0.78028   0.00000  Uiso   1.00
C115   C     0.79878   0.30744   0.75313   0.00000  Uiso   1.00
H116   H     0.97412   0.20446   0.94869   0.00000  Uiso   1.00
H117   H     0.10576   0.01603   0.97535   0.00000  Uiso   1.00
H118   H     0.06860   0.36665   0.01874   0.00000  Uiso   1.00
H119   H     0.72564   0.22139   0.85992   0.00000  Uiso   1.00
H120   H     0.28702   0.82192   0.99242   0.00000  Uiso   1.00
H121   H     0.20863   0.56123   0.08392   0.00000  Uiso   1.00
H122   H     0.48542   0.25494   0.74900   0.00000  Uiso   1.00
H123   H     0.24593   0.31836   0.85242   0.00000  Uiso   1.00
H124   H     0.39249   0.13617   0.87379   0.00000  Uiso   1.00
H125   H     0.35533   0.48679   0.91720   0.00000  Uiso   1.00
H126   H     0.01237   0.34153   0.75837   0.00000  Uiso   1.00
H127   H     0.51975   0.91943   0.91000   0.00000  Uiso   1.00
H128   H     0.44135   0.65875   0.00150   0.00000  Uiso   1.00
H129   H     0.71814   0.35245   0.66658   0.00000  Uiso   1.00
O130   O     0.49493   0.74879   0.96702   0.00000  Uiso   1.00
O131   O     0.39205   0.71875   0.08706   0.00000  Uiso   1.00
O132   O     0.44322   0.31690   0.64766   0.00000  Uiso   1.00
N133   N     0.32166   0.86986   0.97008   0.00000  Uiso   1.00
N134   N     0.24838   0.56107   0.05564   0.00000  Uiso   1.00
N135   N     0.57224   0.27474   0.74252   0.00000  Uiso   1.00
N136   N     0.44689   0.92233   0.92573   0.00000  Uiso   1.00
N137   N     0.37361   0.61354   0.01129   0.00000  Uiso   1.00
N138   N     0.69747   0.32721   0.69817   0.00000  Uiso   1.00
C139   C     0.96361   0.73055   0.57337   0.00000  Uiso   1.00
C140   C     0.85440   0.64396   0.57224   0.00000  Uiso   1.00
C141   C     0.83232   0.54194   0.54658   0.00000  Uiso   1.00
C142   C     0.72729   0.47453   0.55025   0.00000  Uiso   1.00
C143   C     0.56984   0.33500   0.54417   0.00000  Uiso   1.00
C144   C     0.87457   0.83445   0.54865   0.00000  Uiso   1.00
C145   C     0.86948   0.89260   0.50317   0.00000  Uiso   1.00
C146   C     0.78144   0.98556   0.48699   0.00000  Uiso   1.00
C147   C     0.65539   0.14182   0.44431   0.00000  Uiso   1.00
C148   C     0.06091   0.75552   0.63495   0.00000  Uiso   1.00
C149   C     0.21250   0.74733   0.66202   0.00000  Uiso   1.00
C150   C     0.28135   0.77386   0.71850   0.00000  Uiso   1.00
C151   C     0.44463   0.80757   0.80980   0.00000  Uiso   1.00
C152   C     0.81634   0.79226   0.62552   0.00000  Uiso   1.00
C153   C     0.77441   0.67748   0.60057   0.00000  Uiso   1.00
C154   C     0.66939   0.61021   0.60428   0.00000  Uiso   1.00
C155   C     0.64716   0.50810   0.57863   0.00000  Uiso   1.00
C156   C     0.79459   0.86797   0.57698   0.00000  Uiso   1.00
C157   C     0.70655   0.96087   0.56087   0.00000  Uiso   1.00
C158   C     0.70131   0.01914   0.51537   0.00000  Uiso   1.00
C159   C     0.98093   0.78904   0.66328   0.00000  Uiso   1.00
C160   C     0.04956   0.81560   0.71972   0.00000  Uiso   1.00
C161   C     0.20122   0.80744   0.74687   0.00000  Uiso   1.00
H162   H     0.02588   0.70446   0.55131   0.00000  Uiso   1.00
H163   H     0.89424   0.51603   0.52465   0.00000  Uiso   1.00
H164   H     0.93140   0.86665   0.48126   0.00000  Uiso   1.00
H165   H     0.27436   0.72139   0.64008   0.00000  Uiso   1.00
H166   H     0.71298   0.32192   0.50758   0.00000  Uiso   1.00
H167   H     0.79137   0.06123   0.41608   0.00000  Uiso   1.00
H168   H     0.51458   0.75494   0.75100   0.00000  Uiso   1.00
H169   H     0.75407   0.81836   0.64758   0.00000  Uiso   1.00
H170   H     0.60751   0.63617   0.62621   0.00000  Uiso   1.00
H171   H     0.64467   0.98679   0.58280   0.00000  Uiso   1.00
H172   H     0.98763   0.84153   0.74163   0.00000  Uiso   1.00
H173   H     0.48025   0.41943   0.59000   0.00000  Uiso   1.00
H174   H     0.55865   0.15875   0.49850   0.00000  Uiso   1.00
H175   H     0.28186   0.85245   0.83342   0.00000  Uiso   1.00
O176   O     0.50507   0.24879   0.53298   0.00000  Uiso   1.00
O177   O     0.60795   0.21875   0.41294   0.00000  Uiso   1.00
O178   O     0.55678   0.81690   0.85234   0.00000  Uiso   1.00
N179   N     0.67834   0.36986   0.52992   0.00000  Uiso   1.00
N180   N     0.75162   0.06107   0.44436   0.00000  Uiso   1.00
N181   N     0.42776   0.77474   0.75748   0.00000  Uiso   1.00
N182   N     0.55311   0.42233   0.57427   0.00000  Uiso   1.00
N183   N     0.62639   0.11354   0.48871   0.00000  Uiso   1.00
N184   N     0.30253   0.82721   0.80183   0.00000  Uiso   1.00
