data_job_01444
_audit_creation_date              2018-12-19
_audit_creation_method            'Materials Studio'
_symmetry_space_group_name_H-M    'P1'
_symmetry_Int_Tables_number       1
_symmetry_cell_setting            triclinic
loop_
_symmetry_equiv_pos_as_xyz
  x,y,z
_cell_length_a                    27.7241
_cell_length_b                    12.2154
_cell_length_c                    25.4231
_cell_angle_alpha                 90.0000
_cell_angle_beta                  142.1774
_cell_angle_gamma                 90.0000
loop_
_atom_site_label
_atom_site_type_symbol
_atom_site_fract_x
_atom_site_fract_y
_atom_site_fract_z
_atom_site_U_iso_or_equiv
_atom_site_adp_type
_atom_site_occupancy
C1     C     0.25720   0.33652   0.42586   0.00000  Uiso   1.00
C2     C     0.31063   0.23790   0.48061   0.00000  Uiso   1.00
C3     C     0.39208   0.23802   0.54721   0.00000  Uiso   1.00
C4     C     0.43021   0.13942   0.58943   0.00000  Uiso   1.00
C5     C     0.51954   0.00077   0.67801   0.00000  Uiso   1.00
C6     C     0.19953   0.30313   0.33313   0.00000  Uiso   1.00
C7     C     0.18756   0.35811   0.27573   0.00000  Uiso   1.00
C8     C     0.13216   0.31444   0.19380   0.00000  Uiso   1.00
C9     C     0.04895   0.27711   0.05339   0.00000  Uiso   1.00
C10    C     0.20859   0.34838   0.43407   0.00000  Uiso   1.00
C11    C     0.20423   0.44140   0.46152   0.00000  Uiso   1.00
C12    C     0.15644   0.43583   0.46456   0.00000  Uiso   1.00
C13    C     0.08732   0.46874   0.48088   0.00000  Uiso   1.00
C14    C     0.18007   0.16121   0.38243   0.00000  Uiso   1.00
C15    C     0.26873   0.14268   0.45702   0.00000  Uiso   1.00
C16    C     0.30675   0.04406   0.49916   0.00000  Uiso   1.00
C17    C     0.38824   0.04403   0.56581   0.00000  Uiso   1.00
C18    C     0.15763   0.20792   0.30954   0.00000  Uiso   1.00
C19    C     0.10223   0.16416   0.22768   0.00000  Uiso   1.00
C20    C     0.09018   0.21905   0.17017   0.00000  Uiso   1.00
C21    C     0.16670   0.25316   0.41049   0.00000  Uiso   1.00
C22    C     0.11890   0.24744   0.41348   0.00000  Uiso   1.00
C23    C     0.11447   0.34044   0.44093   0.00000  Uiso   1.00
H24    H     0.28982   0.41065   0.44422   0.00000  Uiso   1.00
H25    H     0.42448   0.31172   0.56543   0.00000  Uiso   1.00
H26    H     0.21999   0.43180   0.29400   0.00000  Uiso   1.00
H27    H     0.23666   0.51507   0.47976   0.00000  Uiso   1.00
H28    H     0.55531   0.16004   0.68940   0.00000  Uiso   1.00
H29    H     0.12410   0.41326   0.11705   0.00000  Uiso   1.00
H30    H     0.15926   0.58886   0.50878   0.00000  Uiso   1.00
H31    H     0.14745   0.08708   0.36407   0.00000  Uiso   1.00
H32    H     0.27431   0.97039   0.48089   0.00000  Uiso   1.00
H33    H     0.06981   0.09047   0.20945   0.00000  Uiso   1.00
H34    H     0.08649   0.17374   0.39522   0.00000  Uiso   1.00
H35    H     0.43342   0.88300   0.62079   0.00000  Uiso   1.00
H36    H     0.00221   0.13623   0.04843   0.00000  Uiso   1.00
H37    H     0.03737   0.31182   0.44016   0.00000  Uiso   1.00
O38    O     0.58038   0.95059   0.73337   0.00000  Uiso   1.00
O39    O     0.01464   0.28282   0.98246   0.00000  Uiso   1.00
O40    O     0.06077   0.51319   0.49640   0.00000  Uiso   1.00
N41    N     0.50922   0.11086   0.65723   0.00000  Uiso   1.00
N42    N     0.10607   0.34760   0.12212   0.00000  Uiso   1.00
N43    N     0.13892   0.51177   0.48833   0.00000  Uiso   1.00
N44    N     0.44363   0.96179   0.62031   0.00000  Uiso   1.00
N45    N     0.04048   0.19852   0.08520   0.00000  Uiso   1.00
N46    N     0.07334   0.36270   0.45141   0.00000  Uiso   1.00
C47    C     0.31189   0.77290   0.63300   0.00000  Uiso   1.00
C48    C     0.34788   0.88670   0.66935   0.00000  Uiso   1.00
C49    C     0.42695   0.91223   0.73168   0.00000  Uiso   1.00
C50    C     0.44810   0.02119   0.75633   0.00000  Uiso   1.00
C51    C     0.51250   0.18565   0.81834   0.00000  Uiso   1.00
C52    C     0.26889   0.75092   0.64753   0.00000  Uiso   1.00
C53    C     0.28155   0.66227   0.69151   0.00000  Uiso   1.00
C54    C     0.23620   0.65692   0.69779   0.00000  Uiso   1.00
C55    C     0.17793   0.61054   0.72588   0.00000  Uiso   1.00
C56    C     0.24828   0.78257   0.53618   0.00000  Uiso   1.00
C57    C     0.24359   0.72052   0.48652   0.00000  Uiso   1.00
C58    C     0.18088   0.74180   0.39904   0.00000  Uiso   1.00
C59    C     0.09061   0.74456   0.25423   0.00000  Uiso   1.00
C60    C     0.20884   0.92102   0.56595   0.00000  Uiso   1.00
C61    C     0.29191   0.96715   0.63293   0.00000  Uiso   1.00
C62    C     0.31294   0.07611   0.65749   0.00000  Uiso   1.00
C63    C     0.39203   0.10179   0.71984   0.00000  Uiso   1.00
C64    C     0.21292   0.83137   0.61112   0.00000  Uiso   1.00
C65    C     0.16754   0.82615   0.61733   0.00000  Uiso   1.00
C66    C     0.18013   0.73752   0.66131   0.00000  Uiso   1.00
C67    C     0.19231   0.86303   0.49975   0.00000  Uiso   1.00
C68    C     0.12959   0.88440   0.41233   0.00000  Uiso   1.00
C69    C     0.12480   0.82240   0.36255   0.00000  Uiso   1.00
H70    H     0.35546   0.71026   0.66136   0.00000  Uiso   1.00
H71    H     0.47025   0.84994   0.75985   0.00000  Uiso   1.00
H72    H     0.32486   0.60002   0.71968   0.00000  Uiso   1.00
H73    H     0.28691   0.65827   0.51472   0.00000  Uiso   1.00
H74    H     0.57283   0.04028   0.85301   0.00000  Uiso   1.00
H75    H     0.26625   0.51329   0.76829   0.00000  Uiso   1.00
H76    H     0.18623   0.63610   0.33609   0.00000  Uiso   1.00
H77    H     0.16526   0.98366   0.53759   0.00000  Uiso   1.00
H78    H     0.26961   0.13835   0.62930   0.00000  Uiso   1.00
H79    H     0.12423   0.88842   0.58913   0.00000  Uiso   1.00
H80    H     0.08628   0.94667   0.38417   0.00000  Uiso   1.00
H81    H     0.40999   0.27436   0.74705   0.00000  Uiso   1.00
H82    H     0.10341   0.74736   0.66233   0.00000  Uiso   1.00
H83    H     0.02339   0.87018   0.23013   0.00000  Uiso   1.00
O84    O     0.56349   0.25414   0.86261   0.00000  Uiso   1.00
O85    O     0.16127   0.56273   0.75145   0.00000  Uiso   1.00
O86    O     0.05629   0.72387   0.18442   0.00000  Uiso   1.00
N87    N     0.52018   0.07414   0.81548   0.00000  Uiso   1.00
N88    N     0.23356   0.58144   0.73628   0.00000  Uiso   1.00
N89    N     0.15874   0.69625   0.33221   0.00000  Uiso   1.00
N90    N     0.43256   0.20010   0.75846   0.00000  Uiso   1.00
N91    N     0.14594   0.70740   0.67926   0.00000  Uiso   1.00
N92    N     0.07112   0.82220   0.27519   0.00000  Uiso   1.00
C93    C     0.74280   0.83652   0.07414   0.00000  Uiso   1.00
C94    C     0.68937   0.73790   0.01939   0.00000  Uiso   1.00
C95    C     0.60792   0.73802   0.95279   0.00000  Uiso   1.00
C96    C     0.56979   0.63942   0.91057   0.00000  Uiso   1.00
C97    C     0.48046   0.50077   0.82199   0.00000  Uiso   1.00
C98    C     0.80047   0.80313   0.16687   0.00000  Uiso   1.00
C99    C     0.81244   0.85811   0.22427   0.00000  Uiso   1.00
C100   C     0.86784   0.81444   0.30620   0.00000  Uiso   1.00
C101   C     0.95105   0.77711   0.44661   0.00000  Uiso   1.00
C102   C     0.79141   0.84838   0.06593   0.00000  Uiso   1.00
C103   C     0.79577   0.94140   0.03848   0.00000  Uiso   1.00
C104   C     0.84356   0.93583   0.03544   0.00000  Uiso   1.00
C105   C     0.91268   0.96874   0.01912   0.00000  Uiso   1.00
C106   C     0.81993   0.66121   0.11757   0.00000  Uiso   1.00
C107   C     0.73127   0.64268   0.04298   0.00000  Uiso   1.00
C108   C     0.69325   0.54406   0.00084   0.00000  Uiso   1.00
C109   C     0.61176   0.54403   0.93419   0.00000  Uiso   1.00
C110   C     0.84237   0.70792   0.19046   0.00000  Uiso   1.00
C111   C     0.89777   0.66416   0.27232   0.00000  Uiso   1.00
C112   C     0.90982   0.71905   0.32983   0.00000  Uiso   1.00
C113   C     0.83330   0.75316   0.08951   0.00000  Uiso   1.00
C114   C     0.88110   0.74744   0.08652   0.00000  Uiso   1.00
C115   C     0.88553   0.84044   0.05907   0.00000  Uiso   1.00
H116   H     0.71018   0.91065   0.05578   0.00000  Uiso   1.00
H117   H     0.57552   0.81172   0.93457   0.00000  Uiso   1.00
H118   H     0.78001   0.93180   0.20600   0.00000  Uiso   1.00
H119   H     0.76334   0.01507   0.02024   0.00000  Uiso   1.00
H120   H     0.44469   0.66004   0.81060   0.00000  Uiso   1.00
H121   H     0.87590   0.91326   0.38295   0.00000  Uiso   1.00
H122   H     0.84074   0.08886   0.99122   0.00000  Uiso   1.00
H123   H     0.85255   0.58708   0.13593   0.00000  Uiso   1.00
H124   H     0.72569   0.47039   0.01911   0.00000  Uiso   1.00
H125   H     0.93019   0.59047   0.29055   0.00000  Uiso   1.00
H126   H     0.91351   0.67374   0.10478   0.00000  Uiso   1.00
H127   H     0.56658   0.38300   0.87921   0.00000  Uiso   1.00
H128   H     0.99779   0.63623   0.45157   0.00000  Uiso   1.00
H129   H     0.96263   0.81182   0.05984   0.00000  Uiso   1.00
O130   O     0.41962   0.45059   0.76663   0.00000  Uiso   1.00
O131   O     0.98536   0.78282   0.51754   0.00000  Uiso   1.00
O132   O     0.93923   0.01319   0.00360   0.00000  Uiso   1.00
N133   N     0.49078   0.61086   0.84277   0.00000  Uiso   1.00
N134   N     0.89393   0.84760   0.37788   0.00000  Uiso   1.00
N135   N     0.86108   0.01177   0.01167   0.00000  Uiso   1.00
N136   N     0.55637   0.46179   0.87969   0.00000  Uiso   1.00
N137   N     0.95952   0.69852   0.41480   0.00000  Uiso   1.00
N138   N     0.92666   0.86270   0.04859   0.00000  Uiso   1.00
C139   C     0.68811   0.27290   0.86700   0.00000  Uiso   1.00
C140   C     0.65212   0.38670   0.83065   0.00000  Uiso   1.00
C141   C     0.57305   0.41223   0.76832   0.00000  Uiso   1.00
C142   C     0.55190   0.52119   0.74367   0.00000  Uiso   1.00
C143   C     0.48750   0.68565   0.68166   0.00000  Uiso   1.00
C144   C     0.73111   0.25092   0.85247   0.00000  Uiso   1.00
C145   C     0.71845   0.16227   0.80849   0.00000  Uiso   1.00
C146   C     0.76380   0.15692   0.80221   0.00000  Uiso   1.00
C147   C     0.82207   0.11054   0.77412   0.00000  Uiso   1.00
C148   C     0.75172   0.28257   0.96382   0.00000  Uiso   1.00
C149   C     0.75641   0.22052   0.01348   0.00000  Uiso   1.00
C150   C     0.81912   0.24180   0.10096   0.00000  Uiso   1.00
C151   C     0.90939   0.24456   0.24577   0.00000  Uiso   1.00
C152   C     0.79116   0.42102   0.93405   0.00000  Uiso   1.00
C153   C     0.70809   0.46715   0.86707   0.00000  Uiso   1.00
C154   C     0.68706   0.57611   0.84251   0.00000  Uiso   1.00
C155   C     0.60797   0.60179   0.78016   0.00000  Uiso   1.00
C156   C     0.78708   0.33137   0.88888   0.00000  Uiso   1.00
C157   C     0.83246   0.32615   0.88267   0.00000  Uiso   1.00
C158   C     0.81987   0.23752   0.83869   0.00000  Uiso   1.00
C159   C     0.80769   0.36303   0.00025   0.00000  Uiso   1.00
C160   C     0.87041   0.38440   0.08767   0.00000  Uiso   1.00
C161   C     0.87520   0.32240   0.13745   0.00000  Uiso   1.00
H162   H     0.64454   0.21026   0.83864   0.00000  Uiso   1.00
H163   H     0.52975   0.34994   0.74015   0.00000  Uiso   1.00
H164   H     0.67514   0.10002   0.78032   0.00000  Uiso   1.00
H165   H     0.71309   0.15827   0.98528   0.00000  Uiso   1.00
H166   H     0.42717   0.54028   0.64699   0.00000  Uiso   1.00
H167   H     0.73375   0.01329   0.73171   0.00000  Uiso   1.00
H168   H     0.81377   0.13610   0.16391   0.00000  Uiso   1.00
H169   H     0.83474   0.48366   0.96241   0.00000  Uiso   1.00
H170   H     0.73039   0.63835   0.87070   0.00000  Uiso   1.00
H171   H     0.87577   0.38842   0.91087   0.00000  Uiso   1.00
H172   H     0.91372   0.44667   0.11583   0.00000  Uiso   1.00
H173   H     0.59001   0.77436   0.75295   0.00000  Uiso   1.00
H174   H     0.89659   0.24736   0.83767   0.00000  Uiso   1.00
H175   H     0.97661   0.37018   0.26987   0.00000  Uiso   1.00
O176   O     0.43651   0.75414   0.63739   0.00000  Uiso   1.00
O177   O     0.83873   0.06273   0.74855   0.00000  Uiso   1.00
O178   O     0.94371   0.22387   0.31558   0.00000  Uiso   1.00
N179   N     0.47982   0.57414   0.68452   0.00000  Uiso   1.00
N180   N     0.76644   0.08144   0.76372   0.00000  Uiso   1.00
N181   N     0.84126   0.19625   0.16779   0.00000  Uiso   1.00
N182   N     0.56744   0.70010   0.74154   0.00000  Uiso   1.00
N183   N     0.85406   0.20740   0.82074   0.00000  Uiso   1.00
N184   N     0.92888   0.32220   0.22481   0.00000  Uiso   1.00
C185   C     0.74280   0.66348   0.57414   0.00000  Uiso   1.00
C186   C     0.68937   0.76210   0.51939   0.00000  Uiso   1.00
C187   C     0.60792   0.76198   0.45279   0.00000  Uiso   1.00
C188   C     0.56979   0.86058   0.41057   0.00000  Uiso   1.00
C189   C     0.48046   0.99923   0.32199   0.00000  Uiso   1.00
C190   C     0.80047   0.69687   0.66687   0.00000  Uiso   1.00
C191   C     0.81244   0.64189   0.72427   0.00000  Uiso   1.00
C192   C     0.86784   0.68556   0.80620   0.00000  Uiso   1.00
C193   C     0.95105   0.72289   0.94661   0.00000  Uiso   1.00
C194   C     0.79141   0.65162   0.56593   0.00000  Uiso   1.00
C195   C     0.79577   0.55860   0.53848   0.00000  Uiso   1.00
C196   C     0.84356   0.56417   0.53544   0.00000  Uiso   1.00
C197   C     0.91268   0.53126   0.51912   0.00000  Uiso   1.00
C198   C     0.81993   0.83879   0.61757   0.00000  Uiso   1.00
C199   C     0.73127   0.85732   0.54298   0.00000  Uiso   1.00
C200   C     0.69325   0.95594   0.50084   0.00000  Uiso   1.00
C201   C     0.61176   0.95597   0.43419   0.00000  Uiso   1.00
C202   C     0.84237   0.79208   0.69046   0.00000  Uiso   1.00
C203   C     0.89777   0.83584   0.77232   0.00000  Uiso   1.00
C204   C     0.90982   0.78095   0.82983   0.00000  Uiso   1.00
C205   C     0.83330   0.74684   0.58951   0.00000  Uiso   1.00
C206   C     0.88110   0.75256   0.58652   0.00000  Uiso   1.00
C207   C     0.88553   0.65956   0.55907   0.00000  Uiso   1.00
H208   H     0.71018   0.58935   0.55578   0.00000  Uiso   1.00
H209   H     0.57552   0.68828   0.43457   0.00000  Uiso   1.00
H210   H     0.78001   0.56820   0.70600   0.00000  Uiso   1.00
H211   H     0.76334   0.48493   0.52024   0.00000  Uiso   1.00
H212   H     0.44469   0.83996   0.31060   0.00000  Uiso   1.00
H213   H     0.87590   0.58674   0.88295   0.00000  Uiso   1.00
H214   H     0.84074   0.41114   0.49122   0.00000  Uiso   1.00
H215   H     0.85255   0.91292   0.63593   0.00000  Uiso   1.00
H216   H     0.72569   0.02961   0.51911   0.00000  Uiso   1.00
H217   H     0.93019   0.90953   0.79055   0.00000  Uiso   1.00
H218   H     0.91351   0.82626   0.60478   0.00000  Uiso   1.00
H219   H     0.56658   0.11700   0.37921   0.00000  Uiso   1.00
H220   H     0.99779   0.86377   0.95157   0.00000  Uiso   1.00
H221   H     0.96263   0.68818   0.55984   0.00000  Uiso   1.00
O222   O     0.41962   0.04941   0.26663   0.00000  Uiso   1.00
O223   O     0.98536   0.71718   0.01754   0.00000  Uiso   1.00
O224   O     0.93923   0.48681   0.50360   0.00000  Uiso   1.00
N225   N     0.49078   0.88914   0.34277   0.00000  Uiso   1.00
N226   N     0.89393   0.65240   0.87788   0.00000  Uiso   1.00
N227   N     0.86108   0.48823   0.51167   0.00000  Uiso   1.00
N228   N     0.55637   0.03821   0.37969   0.00000  Uiso   1.00
N229   N     0.95952   0.80148   0.91480   0.00000  Uiso   1.00
N230   N     0.92666   0.63730   0.54859   0.00000  Uiso   1.00
C231   C     0.68811   0.22710   0.36700   0.00000  Uiso   1.00
C232   C     0.65212   0.11330   0.33065   0.00000  Uiso   1.00
C233   C     0.57305   0.08777   0.26832   0.00000  Uiso   1.00
C234   C     0.55190   0.97881   0.24367   0.00000  Uiso   1.00
C235   C     0.48750   0.81435   0.18166   0.00000  Uiso   1.00
C236   C     0.73111   0.24908   0.35247   0.00000  Uiso   1.00
C237   C     0.71845   0.33773   0.30849   0.00000  Uiso   1.00
C238   C     0.76380   0.34308   0.30221   0.00000  Uiso   1.00
C239   C     0.82207   0.38946   0.27412   0.00000  Uiso   1.00
C240   C     0.75172   0.21743   0.46382   0.00000  Uiso   1.00
C241   C     0.75641   0.27948   0.51348   0.00000  Uiso   1.00
C242   C     0.81912   0.25820   0.60096   0.00000  Uiso   1.00
C243   C     0.90939   0.25544   0.74577   0.00000  Uiso   1.00
C244   C     0.79116   0.07898   0.43405   0.00000  Uiso   1.00
C245   C     0.70809   0.03285   0.36707   0.00000  Uiso   1.00
C246   C     0.68706   0.92389   0.34251   0.00000  Uiso   1.00
C247   C     0.60797   0.89821   0.28016   0.00000  Uiso   1.00
C248   C     0.78708   0.16863   0.38888   0.00000  Uiso   1.00
C249   C     0.83246   0.17385   0.38267   0.00000  Uiso   1.00
C250   C     0.81987   0.26248   0.33869   0.00000  Uiso   1.00
C251   C     0.80769   0.13697   0.50025   0.00000  Uiso   1.00
C252   C     0.87041   0.11560   0.58767   0.00000  Uiso   1.00
C253   C     0.87520   0.17760   0.63745   0.00000  Uiso   1.00
H254   H     0.64454   0.28974   0.33864   0.00000  Uiso   1.00
H255   H     0.52975   0.15006   0.24015   0.00000  Uiso   1.00
H256   H     0.67514   0.39998   0.28032   0.00000  Uiso   1.00
H257   H     0.71309   0.34173   0.48528   0.00000  Uiso   1.00
H258   H     0.42717   0.95972   0.14699   0.00000  Uiso   1.00
H259   H     0.73375   0.48671   0.23171   0.00000  Uiso   1.00
H260   H     0.81377   0.36390   0.66391   0.00000  Uiso   1.00
H261   H     0.83474   0.01634   0.46241   0.00000  Uiso   1.00
H262   H     0.73039   0.86165   0.37070   0.00000  Uiso   1.00
H263   H     0.87577   0.11158   0.41087   0.00000  Uiso   1.00
H264   H     0.91372   0.05333   0.61583   0.00000  Uiso   1.00
H265   H     0.59001   0.72564   0.25295   0.00000  Uiso   1.00
H266   H     0.89659   0.25264   0.33767   0.00000  Uiso   1.00
H267   H     0.97661   0.12982   0.76987   0.00000  Uiso   1.00
O268   O     0.43651   0.74586   0.13739   0.00000  Uiso   1.00
O269   O     0.83873   0.43727   0.24855   0.00000  Uiso   1.00
O270   O     0.94371   0.27613   0.81558   0.00000  Uiso   1.00
N271   N     0.47982   0.92586   0.18452   0.00000  Uiso   1.00
N272   N     0.76644   0.41856   0.26372   0.00000  Uiso   1.00
N273   N     0.84126   0.30375   0.66779   0.00000  Uiso   1.00
N274   N     0.56744   0.79990   0.24154   0.00000  Uiso   1.00
N275   N     0.85406   0.29260   0.32074   0.00000  Uiso   1.00
N276   N     0.92888   0.17780   0.72481   0.00000  Uiso   1.00
C277   C     0.25720   0.16348   0.92586   0.00000  Uiso   1.00
C278   C     0.31063   0.26210   0.98061   0.00000  Uiso   1.00
C279   C     0.39208   0.26198   0.04721   0.00000  Uiso   1.00
C280   C     0.43021   0.36058   0.08943   0.00000  Uiso   1.00
C281   C     0.51954   0.49923   0.17801   0.00000  Uiso   1.00
C282   C     0.19953   0.19687   0.83313   0.00000  Uiso   1.00
C283   C     0.18756   0.14189   0.77573   0.00000  Uiso   1.00
C284   C     0.13216   0.18556   0.69380   0.00000  Uiso   1.00
C285   C     0.04895   0.22289   0.55339   0.00000  Uiso   1.00
C286   C     0.20859   0.15162   0.93407   0.00000  Uiso   1.00
C287   C     0.20423   0.05860   0.96152   0.00000  Uiso   1.00
C288   C     0.15644   0.06417   0.96456   0.00000  Uiso   1.00
C289   C     0.08732   0.03126   0.98088   0.00000  Uiso   1.00
C290   C     0.18007   0.33879   0.88243   0.00000  Uiso   1.00
C291   C     0.26873   0.35732   0.95702   0.00000  Uiso   1.00
C292   C     0.30675   0.45594   0.99916   0.00000  Uiso   1.00
C293   C     0.38824   0.45597   0.06581   0.00000  Uiso   1.00
C294   C     0.15763   0.29208   0.80954   0.00000  Uiso   1.00
C295   C     0.10223   0.33584   0.72768   0.00000  Uiso   1.00
C296   C     0.09018   0.28095   0.67017   0.00000  Uiso   1.00
C297   C     0.16670   0.24684   0.91049   0.00000  Uiso   1.00
C298   C     0.11890   0.25256   0.91348   0.00000  Uiso   1.00
C299   C     0.11447   0.15956   0.94093   0.00000  Uiso   1.00
H300   H     0.28982   0.08935   0.94422   0.00000  Uiso   1.00
H301   H     0.42448   0.18828   0.06543   0.00000  Uiso   1.00
H302   H     0.21999   0.06820   0.79400   0.00000  Uiso   1.00
H303   H     0.23666   0.98493   0.97976   0.00000  Uiso   1.00
H304   H     0.55531   0.33996   0.18940   0.00000  Uiso   1.00
H305   H     0.12410   0.08674   0.61705   0.00000  Uiso   1.00
H306   H     0.15926   0.91114   0.00878   0.00000  Uiso   1.00
H307   H     0.14745   0.41292   0.86407   0.00000  Uiso   1.00
H308   H     0.27431   0.52961   0.98089   0.00000  Uiso   1.00
H309   H     0.06981   0.40953   0.70945   0.00000  Uiso   1.00
H310   H     0.08649   0.32626   0.89522   0.00000  Uiso   1.00
H311   H     0.43342   0.61700   0.12079   0.00000  Uiso   1.00
H312   H     0.00221   0.36377   0.54843   0.00000  Uiso   1.00
H313   H     0.03737   0.18818   0.94016   0.00000  Uiso   1.00
O314   O     0.58038   0.54941   0.23337   0.00000  Uiso   1.00
O315   O     0.01464   0.21718   0.48246   0.00000  Uiso   1.00
O316   O     0.06077   0.98681   0.99640   0.00000  Uiso   1.00
N317   N     0.50922   0.38914   0.15723   0.00000  Uiso   1.00
N318   N     0.10607   0.15240   0.62212   0.00000  Uiso   1.00
N319   N     0.13892   0.98823   0.98833   0.00000  Uiso   1.00
N320   N     0.44363   0.53821   0.12031   0.00000  Uiso   1.00
N321   N     0.04048   0.30148   0.58520   0.00000  Uiso   1.00
N322   N     0.07334   0.13730   0.95141   0.00000  Uiso   1.00
C323   C     0.31189   0.72710   0.13300   0.00000  Uiso   1.00
C324   C     0.34788   0.61330   0.16935   0.00000  Uiso   1.00
C325   C     0.42695   0.58777   0.23168   0.00000  Uiso   1.00
C326   C     0.44810   0.47881   0.25633   0.00000  Uiso   1.00
C327   C     0.51250   0.31435   0.31834   0.00000  Uiso   1.00
C328   C     0.26889   0.74908   0.14753   0.00000  Uiso   1.00
C329   C     0.28155   0.83773   0.19151   0.00000  Uiso   1.00
C330   C     0.23620   0.84308   0.19779   0.00000  Uiso   1.00
C331   C     0.17793   0.88946   0.22588   0.00000  Uiso   1.00
C332   C     0.24828   0.71743   0.03618   0.00000  Uiso   1.00
C333   C     0.24359   0.77948   0.98652   0.00000  Uiso   1.00
C334   C     0.18088   0.75820   0.89904   0.00000  Uiso   1.00
C335   C     0.09061   0.75544   0.75423   0.00000  Uiso   1.00
C336   C     0.20884   0.57898   0.06595   0.00000  Uiso   1.00
C337   C     0.29191   0.53285   0.13293   0.00000  Uiso   1.00
C338   C     0.31294   0.42389   0.15749   0.00000  Uiso   1.00
C339   C     0.39203   0.39821   0.21984   0.00000  Uiso   1.00
C340   C     0.21292   0.66863   0.11112   0.00000  Uiso   1.00
C341   C     0.16754   0.67385   0.11733   0.00000  Uiso   1.00
C342   C     0.18013   0.76248   0.16131   0.00000  Uiso   1.00
C343   C     0.19231   0.63697   0.99975   0.00000  Uiso   1.00
C344   C     0.12959   0.61560   0.91233   0.00000  Uiso   1.00
C345   C     0.12480   0.67760   0.86255   0.00000  Uiso   1.00
H346   H     0.35546   0.78974   0.16136   0.00000  Uiso   1.00
H347   H     0.47025   0.65006   0.25985   0.00000  Uiso   1.00
H348   H     0.32486   0.89998   0.21968   0.00000  Uiso   1.00
H349   H     0.28691   0.84173   0.01472   0.00000  Uiso   1.00
H350   H     0.57283   0.45972   0.35301   0.00000  Uiso   1.00
H351   H     0.26625   0.98671   0.26829   0.00000  Uiso   1.00
H352   H     0.18623   0.86390   0.83609   0.00000  Uiso   1.00
H353   H     0.16526   0.51634   0.03759   0.00000  Uiso   1.00
H354   H     0.26961   0.36165   0.12930   0.00000  Uiso   1.00
H355   H     0.12423   0.61158   0.08913   0.00000  Uiso   1.00
H356   H     0.08628   0.55333   0.88417   0.00000  Uiso   1.00
H357   H     0.40999   0.22564   0.24705   0.00000  Uiso   1.00
H358   H     0.10341   0.75264   0.16233   0.00000  Uiso   1.00
H359   H     0.02339   0.62982   0.73013   0.00000  Uiso   1.00
O360   O     0.56349   0.24586   0.36261   0.00000  Uiso   1.00
O361   O     0.16127   0.93727   0.25145   0.00000  Uiso   1.00
O362   O     0.05629   0.77613   0.68442   0.00000  Uiso   1.00
N363   N     0.52018   0.42586   0.31548   0.00000  Uiso   1.00
N364   N     0.23356   0.91856   0.23628   0.00000  Uiso   1.00
N365   N     0.15874   0.80375   0.83221   0.00000  Uiso   1.00
N366   N     0.43256   0.29990   0.25846   0.00000  Uiso   1.00
N367   N     0.14594   0.79260   0.17926   0.00000  Uiso   1.00
N368   N     0.07112   0.67780   0.77519   0.00000  Uiso   1.00
