data_job_06663
_audit_creation_date              2018-12-19
_audit_creation_method            'Materials Studio'
_symmetry_space_group_name_H-M    'P1'
_symmetry_Int_Tables_number       1
_symmetry_cell_setting            triclinic
loop_
_symmetry_equiv_pos_as_xyz
  x,y,z
_cell_length_a                    21.0098
_cell_length_b                    21.0264
_cell_length_c                    21.7440
_cell_angle_alpha                 113.2016
_cell_angle_beta                  69.8903
_cell_angle_gamma                 104.8160
loop_
_atom_site_label
_atom_site_type_symbol
_atom_site_fract_x
_atom_site_fract_y
_atom_site_fract_z
_atom_site_U_iso_or_equiv
_atom_site_adp_type
_atom_site_occupancy
C1     C     0.75075   0.93139   0.98238   0.00000  Uiso   1.00
C2     C     0.67607   0.90375   0.98297   0.00000  Uiso   1.00
C3     C     0.64541   0.83512   0.97421   0.00000  Uiso   1.00
C4     C     0.57652   0.82036   0.97643   0.00000  Uiso   1.00
C5     C     0.46617   0.76951   0.97570   0.00000  Uiso   1.00
C6     C     0.78013   0.96529   0.92617   0.00000  Uiso   1.00
C7     C     0.83697   0.94841   0.86965   0.00000  Uiso   1.00
C8     C     0.85569   0.98546   0.82407   0.00000  Uiso   1.00
C9     C     0.90693   0.03019   0.73518   0.00000  Uiso   1.00
C10    C     0.74957   0.99080   0.05137   0.00000  Uiso   1.00
C11    C     0.78073   0.99538   0.10012   0.00000  Uiso   1.00
C12    C     0.77373   0.05391   0.15994   0.00000  Uiso   1.00
C13    C     0.77752   0.13825   0.26545   0.00000  Uiso   1.00
C14    C     0.68293   0.02721   0.00191   0.00000  Uiso   1.00
C15    C     0.63923   0.95580   0.99358   0.00000  Uiso   1.00
C16    C     0.57037   0.94113   0.99582   0.00000  Uiso   1.00
C17    C     0.53961   0.87249   0.98706   0.00000  Uiso   1.00
C18    C     0.74330   0.01733   0.93678   0.00000  Uiso   1.00
C19    C     0.76193   0.05442   0.89126   0.00000  Uiso   1.00
C20    C     0.81878   0.03759   0.83469   0.00000  Uiso   1.00
C21    C     0.71273   0.04284   0.06198   0.00000  Uiso   1.00
C22    C     0.70569   0.10138   0.12174   0.00000  Uiso   1.00
C23    C     0.73682   0.10605   0.17057   0.00000  Uiso   1.00
H24    H     0.77944   0.89088   0.97412   0.00000  Uiso   1.00
H25    H     0.67394   0.79486   0.96599   0.00000  Uiso   1.00
H26    H     0.86548   0.90814   0.86146   0.00000  Uiso   1.00
H27    H     0.80924   0.95510   0.09190   0.00000  Uiso   1.00
H28    H     0.54074   0.71135   0.96164   0.00000  Uiso   1.00
H29    H     0.94461   0.95022   0.74124   0.00000  Uiso   1.00
H30    H     0.82603   0.04924   0.22716   0.00000  Uiso   1.00
H31    H     0.65425   0.06773   0.01017   0.00000  Uiso   1.00
H32    H     0.54187   0.98142   0.00403   0.00000  Uiso   1.00
H33    H     0.73341   0.09469   0.89949   0.00000  Uiso   1.00
H34    H     0.67718   0.14165   0.12993   0.00000  Uiso   1.00
H35    H     0.43355   0.86277   0.99251   0.00000  Uiso   1.00
H36    H     0.83743   0.10163   0.77211   0.00000  Uiso   1.00
H37    H     0.71884   0.20065   0.25803   0.00000  Uiso   1.00
O38    O     0.41548   0.72709   0.97236   0.00000  Uiso   1.00
O39    O     0.94537   0.04047   0.68321   0.00000  Uiso   1.00
O40    O     0.78978   0.17039   0.32073   0.00000  Uiso   1.00
N41    N     0.53093   0.75884   0.96976   0.00000  Uiso   1.00
N42    N     0.90852   0.98215   0.76370   0.00000  Uiso   1.00
N43    N     0.79767   0.07474   0.21798   0.00000  Uiso   1.00
N44    N     0.47325   0.84031   0.98637   0.00000  Uiso   1.00
N45    N     0.85085   0.06363   0.78031   0.00000  Uiso   1.00
N46    N     0.73999   0.15622   0.23459   0.00000  Uiso   1.00
C47    C     0.05749   0.13082   0.16672   0.00000  Uiso   1.00
C48    C     0.07986   0.19973   0.21873   0.00000  Uiso   1.00
C49    C     0.04851   0.25950   0.24726   0.00000  Uiso   1.00
C50    C     0.07675   0.31718   0.29388   0.00000  Uiso   1.00
C51    C     0.10276   0.42451   0.37196   0.00000  Uiso   1.00
C52    C     0.11976   0.11494   0.10386   0.00000  Uiso   1.00
C53    C     0.12195   0.10340   0.03582   0.00000  Uiso   1.00
C54    C     0.18379   0.08969   0.98575   0.00000  Uiso   1.00
C55    C     0.27173   0.06533   0.88550   0.00000  Uiso   1.00
C56    C     0.04543   0.07516   0.19954   0.00000  Uiso   1.00
C57    C     0.98513   0.03015   0.21192   0.00000  Uiso   1.00
C58    C     0.98439   0.98294   0.24238   0.00000  Uiso   1.00
C59    C     0.95692   0.89681   0.29067   0.00000  Uiso   1.00
C60    C     0.16340   0.12698   0.19879   0.00000  Uiso   1.00
C61    C     0.13739   0.19765   0.23614   0.00000  Uiso   1.00
C62    C     0.16569   0.25525   0.28274   0.00000  Uiso   1.00
C63    C     0.13438   0.31509   0.31133   0.00000  Uiso   1.00
C64    C     0.17729   0.11286   0.12128   0.00000  Uiso   1.00
C65    C     0.23913   0.09915   0.07130   0.00000  Uiso   1.00
C66    C     0.24142   0.08760   0.00320   0.00000  Uiso   1.00
C67    C     0.10296   0.07307   0.21696   0.00000  Uiso   1.00
C68    C     0.10231   0.02591   0.24740   0.00000  Uiso   1.00
C69    C     0.04202   0.98085   0.25983   0.00000  Uiso   1.00
H70    H     0.01270   0.13244   0.15315   0.00000  Uiso   1.00
H71    H     0.00399   0.26109   0.23376   0.00000  Uiso   1.00
H72    H     0.07742   0.10501   0.02235   0.00000  Uiso   1.00
H73    H     0.94062   0.03178   0.19843   0.00000  Uiso   1.00
H74    H     0.01972   0.40281   0.33078   0.00000  Uiso   1.00
H75    H     0.17455   0.07368   0.88503   0.00000  Uiso   1.00
H76    H     0.88607   0.91927   0.25631   0.00000  Uiso   1.00
H77    H     0.20819   0.12536   0.21235   0.00000  Uiso   1.00
H78    H     0.21021   0.25362   0.29621   0.00000  Uiso   1.00
H79    H     0.28364   0.09754   0.08480   0.00000  Uiso   1.00
H80    H     0.14684   0.02431   0.26087   0.00000  Uiso   1.00
H81    H     0.18709   0.39675   0.38147   0.00000  Uiso   1.00
H82    H     0.34192   0.06762   0.93571   0.00000  Uiso   1.00
H83    H     0.05345   0.91320   0.30699   0.00000  Uiso   1.00
O84    O     0.10122   0.48429   0.41020   0.00000  Uiso   1.00
O85    O     0.30434   0.05248   0.82538   0.00000  Uiso   1.00
O86    O     0.92587   0.84989   0.31251   0.00000  Uiso   1.00
N87    N     0.05882   0.38378   0.33121   0.00000  Uiso   1.00
N88    N     0.20358   0.07607   0.91446   0.00000  Uiso   1.00
N89    N     0.93389   0.93169   0.26156   0.00000  Uiso   1.00
N90    N     0.14889   0.38052   0.35849   0.00000  Uiso   1.00
N91    N     0.29365   0.07281   0.94173   0.00000  Uiso   1.00
N92    N     0.02395   0.92843   0.28884   0.00000  Uiso   1.00
C93    C     0.60980   0.58940   0.17768   0.00000  Uiso   1.00
C94    C     0.68567   0.59673   0.17147   0.00000  Uiso   1.00
C95    C     0.73878   0.63146   0.13222   0.00000  Uiso   1.00
C96    C     0.80466   0.63227   0.13336   0.00000  Uiso   1.00
C97    C     0.92060   0.64861   0.11775   0.00000  Uiso   1.00
C98    C     0.58448   0.51116   0.15558   0.00000  Uiso   1.00
C99    C     0.55250   0.47394   0.10299   0.00000  Uiso   1.00
C100   C     0.53318   0.40272   0.09076   0.00000  Uiso   1.00
C101   C     0.49198   0.28622   0.05053   0.00000  Uiso   1.00
C102   C     0.57472   0.61896   0.25519   0.00000  Uiso   1.00
C103   C     0.53450   0.67238   0.28635   0.00000  Uiso   1.00
C104   C     0.50695   0.69190   0.35799   0.00000  Uiso   1.00
C105   C     0.45058   0.74278   0.47242   0.00000  Uiso   1.00
C106   C     0.63236   0.52909   0.24950   0.00000  Uiso   1.00
C107   C     0.69792   0.56397   0.21048   0.00000  Uiso   1.00
C108   C     0.76373   0.56474   0.21168   0.00000  Uiso   1.00
C109   C     0.81693   0.59946   0.17244   0.00000  Uiso   1.00
C110   C     0.59673   0.47841   0.19459   0.00000  Uiso   1.00
C111   C     0.57745   0.40722   0.18245   0.00000  Uiso   1.00
C112   C     0.54546   0.36990   0.12984   0.00000  Uiso   1.00
C113   C     0.58696   0.58621   0.29420   0.00000  Uiso   1.00
C114   C     0.55946   0.60565   0.36581   0.00000  Uiso   1.00
C115   C     0.51922   0.65909   0.39707   0.00000  Uiso   1.00
H116   H     0.60027   0.61490   0.14730   0.00000  Uiso   1.00
H117   H     0.72928   0.65680   0.10203   0.00000  Uiso   1.00
H118   H     0.54302   0.49931   0.07281   0.00000  Uiso   1.00
H119   H     0.52504   0.69771   0.25615   0.00000  Uiso   1.00
H120   H     0.87772   0.68878   0.06902   0.00000  Uiso   1.00
H121   H     0.48497   0.35672   0.00742   0.00000  Uiso   1.00
H122   H     0.44703   0.77509   0.39402   0.00000  Uiso   1.00
H123   H     0.64189   0.50359   0.27987   0.00000  Uiso   1.00
H124   H     0.77320   0.53938   0.24187   0.00000  Uiso   1.00
H125   H     0.58694   0.38189   0.21265   0.00000  Uiso   1.00
H126   H     0.56895   0.58029   0.39598   0.00000  Uiso   1.00
H127   H     0.91336   0.59348   0.18252   0.00000  Uiso   1.00
H128   H     0.52061   0.26141   0.12092   0.00000  Uiso   1.00
H129   H     0.48268   0.67978   0.50752   0.00000  Uiso   1.00
O130   O     0.98117   0.66666   0.09836   0.00000  Uiso   1.00
O131   O     0.46588   0.23101   0.01756   0.00000  Uiso   1.00
O132   O     0.41612   0.77990   0.52476   0.00000  Uiso   1.00
N133   N     0.86809   0.66145   0.10096   0.00000  Uiso   1.00
N134   N     0.50090   0.35099   0.04336   0.00000  Uiso   1.00
N135   N     0.46542   0.74212   0.40479   0.00000  Uiso   1.00
N136   N     0.88727   0.61017   0.16203   0.00000  Uiso   1.00
N137   N     0.52008   0.29971   0.10443   0.00000  Uiso   1.00
N138   N     0.48460   0.69084   0.46587   0.00000  Uiso   1.00
C139   C     0.18114   0.08346   0.46485   0.00000  Uiso   1.00
C140   C     0.10791   0.06776   0.45938   0.00000  Uiso   1.00
C141   C     0.08004   0.10271   0.43452   0.00000  Uiso   1.00
C142   C     0.01208   0.08045   0.43370   0.00000  Uiso   1.00
C143   C     0.90425   0.06444   0.42165   0.00000  Uiso   1.00
C144   C     0.21133   0.01523   0.42365   0.00000  Uiso   1.00
C145   C     0.27043   0.00602   0.36874   0.00000  Uiso   1.00
C146   C     0.28953   0.93954   0.33785   0.00000  Uiso   1.00
C147   C     0.34230   0.84199   0.27034   0.00000  Uiso   1.00
C148   C     0.17542   0.09772   0.54083   0.00000  Uiso   1.00
C149   C     0.20433   0.15786   0.58444   0.00000  Uiso   1.00
C150   C     0.19321   0.16083   0.65221   0.00000  Uiso   1.00
C151   C     0.19022   0.19136   0.76664   0.00000  Uiso   1.00
C152   C     0.10998   0.98178   0.50763   0.00000  Uiso   1.00
C153   C     0.06926   0.01252   0.48262   0.00000  Uiso   1.00
C154   C     0.00131   0.99021   0.48185   0.00000  Uiso   1.00
C155   C     0.97335   0.02512   0.45698   0.00000  Uiso   1.00
C156   C     0.17268   0.96000   0.44688   0.00000  Uiso   1.00
C157   C     0.19170   0.89352   0.41607   0.00000  Uiso   1.00
C158   C     0.25081   0.88421   0.36112   0.00000  Uiso   1.00
C159   C     0.13676   0.04249   0.56406   0.00000  Uiso   1.00
C160   C     0.12560   0.04536   0.63177   0.00000  Uiso   1.00
C161   C     0.15449   0.10550   0.67548   0.00000  Uiso   1.00
H162   H     0.21124   0.12646   0.44676   0.00000  Uiso   1.00
H163   H     0.10998   0.14544   0.41653   0.00000  Uiso   1.00
H164   H     0.30034   0.04877   0.35077   0.00000  Uiso   1.00
H165   H     0.23424   0.20059   0.56644   0.00000  Uiso   1.00
H166   H     0.98067   0.14212   0.39325   0.00000  Uiso   1.00
H167   H     0.38207   0.93828   0.25460   0.00000  Uiso   1.00
H168   H     0.24270   0.25842   0.70939   0.00000  Uiso   1.00
H169   H     0.07988   0.93878   0.52572   0.00000  Uiso   1.00
H170   H     0.97141   0.94746   0.49983   0.00000  Uiso   1.00
H171   H     0.16177   0.85079   0.43406   0.00000  Uiso   1.00
H172   H     0.09568   0.00261   0.64974   0.00000  Uiso   1.00
H173   H     0.86821   0.98143   0.46085   0.00000  Uiso   1.00
H174   H     0.26961   0.77759   0.32220   0.00000  Uiso   1.00
H175   H     0.13024   0.09774   0.77699   0.00000  Uiso   1.00
O176   O     0.85546   0.07086   0.40857   0.00000  Uiso   1.00
O177   O     0.38209   0.80344   0.22668   0.00000  Uiso   1.00
O178   O     0.19924   0.22346   0.82335   0.00000  Uiso   1.00
N179   N     0.96909   0.10312   0.41272   0.00000  Uiso   1.00
N180   N     0.34436   0.91254   0.28309   0.00000  Uiso   1.00
N181   N     0.21408   0.21184   0.70827   0.00000  Uiso   1.00
N182   N     0.90857   0.01665   0.44910   0.00000  Uiso   1.00
N183   N     0.28385   0.82607   0.31947   0.00000  Uiso   1.00
N184   N     0.15357   0.12537   0.74465   0.00000  Uiso   1.00
C185   C     0.68920   0.37249   0.54060   0.00000  Uiso   1.00
C186   C     0.74383   0.35006   0.55620   0.00000  Uiso   1.00
C187   C     0.76062   0.28291   0.53012   0.00000  Uiso   1.00
C188   C     0.81208   0.27307   0.55059   0.00000  Uiso   1.00
C189   C     0.89184   0.22982   0.56795   0.00000  Uiso   1.00
C190   C     0.72551   0.43142   0.51136   0.00000  Uiso   1.00
C191   C     0.72687   0.43268   0.44757   0.00000  Uiso   1.00
C192   C     0.76290   0.49135   0.43030   0.00000  Uiso   1.00
C193   C     0.81417   0.57445   0.37807   0.00000  Uiso   1.00
C194   C     0.64046   0.40587   0.61093   0.00000  Uiso   1.00
C195   C     0.57031   0.38565   0.63087   0.00000  Uiso   1.00
C196   C     0.53473   0.42281   0.69744   0.00000  Uiso   1.00
C197   C     0.45395   0.46622   0.79981   0.00000  Uiso   1.00
C198   C     0.75075   0.47445   0.62334   0.00000  Uiso   1.00
C199   C     0.77726   0.40544   0.60114   0.00000  Uiso   1.00
C200   C     0.82871   0.39571   0.62166   0.00000  Uiso   1.00
C201   C     0.84556   0.32855   0.59562   0.00000  Uiso   1.00
C202   C     0.75893   0.48680   0.55630   0.00000  Uiso   1.00
C203   C     0.79496   0.54549   0.53912   0.00000  Uiso   1.00
C204   C     0.79639   0.54683   0.47533   0.00000  Uiso   1.00
C205   C     0.67388   0.46124   0.65588   0.00000  Uiso   1.00
C206   C     0.63841   0.49845   0.72242   0.00000  Uiso   1.00
C207   C     0.56822   0.47829   0.74246   0.00000  Uiso   1.00
H208   H     0.66318   0.32938   0.50561   0.00000  Uiso   1.00
H209   H     0.73474   0.24006   0.49533   0.00000  Uiso   1.00
H210   H     0.70099   0.38982   0.41281   0.00000  Uiso   1.00
H211   H     0.54446   0.34279   0.59608   0.00000  Uiso   1.00
H212   H     0.82883   0.16547   0.50374   0.00000  Uiso   1.00
H213   H     0.75766   0.48125   0.32974   0.00000  Uiso   1.00
H214   H     0.42758   0.38208   0.71621   0.00000  Uiso   1.00
H215   H     0.77677   0.51757   0.65833   0.00000  Uiso   1.00
H216   H     0.85456   0.43857   0.65644   0.00000  Uiso   1.00
H217   H     0.82082   0.58833   0.57391   0.00000  Uiso   1.00
H218   H     0.66429   0.54130   0.75719   0.00000  Uiso   1.00
H219   H     0.92609   0.32658   0.63450   0.00000  Uiso   1.00
H220   H     0.85492   0.64237   0.46050   0.00000  Uiso   1.00
H221   H     0.52484   0.54320   0.84697   0.00000  Uiso   1.00
O222   O     0.92660   0.19067   0.56510   0.00000  Uiso   1.00
O223   O     0.83321   0.60498   0.33683   0.00000  Uiso   1.00
O224   O     0.40016   0.47486   0.84387   0.00000  Uiso   1.00
N225   N     0.84104   0.21422   0.53479   0.00000  Uiso   1.00
N226   N     0.77451   0.50946   0.37210   0.00000  Uiso   1.00
N227   N     0.46590   0.41675   0.73341   0.00000  Uiso   1.00
N228   N     0.89337   0.30092   0.60515   0.00000  Uiso   1.00
N229   N     0.82684   0.59616   0.44247   0.00000  Uiso   1.00
N230   N     0.51824   0.50345   0.80377   0.00000  Uiso   1.00
C231   C     0.25775   0.70220   0.74216   0.00000  Uiso   1.00
C232   C     0.29699   0.77203   0.73535   0.00000  Uiso   1.00
C233   C     0.35820   0.80403   0.75211   0.00000  Uiso   1.00
C234   C     0.38596   0.86781   0.74215   0.00000  Uiso   1.00
C235   C     0.45183   0.97156   0.73548   0.00000  Uiso   1.00
C236   C     0.24936   0.65645   0.67013   0.00000  Uiso   1.00
C237   C     0.27052   0.59126   0.63205   0.00000  Uiso   1.00
C238   C     0.25817   0.55775   0.56719   0.00000  Uiso   1.00
C239   C     0.25006   0.48203   0.45927   0.00000  Uiso   1.00
C240   C     0.18608   0.71676   0.78845   0.00000  Uiso   1.00
C241   C     0.15401   0.70228   0.84985   0.00000  Uiso   1.00
C242   C     0.08837   0.71953   0.88461   0.00000  Uiso   1.00
C243   C     0.98199   0.73747   0.96041   0.00000  Uiso   1.00
C244   C     0.19818   0.75858   0.69469   0.00000  Uiso   1.00
C245   C     0.26464   0.80265   0.70957   0.00000  Uiso   1.00
C246   C     0.29230   0.86641   0.69959   0.00000  Uiso   1.00
C247   C     0.35355   0.89849   0.71633   0.00000  Uiso   1.00
C248   C     0.21701   0.68707   0.64434   0.00000  Uiso   1.00
C249   C     0.20462   0.65364   0.57953   0.00000  Uiso   1.00
C250   C     0.22576   0.58842   0.54136   0.00000  Uiso   1.00
C251   C     0.15372   0.74739   0.76267   0.00000  Uiso   1.00
C252   C     0.08811   0.76466   0.79734   0.00000  Uiso   1.00
C253   C     0.05596   0.75021   0.85878   0.00000  Uiso   1.00
H254   H     0.28294   0.67836   0.76222   0.00000  Uiso   1.00
H255   H     0.38323   0.78031   0.77205   0.00000  Uiso   1.00
H256   H     0.29555   0.56757   0.65201   0.00000  Uiso   1.00
H257   H     0.17906   0.67858   0.86979   0.00000  Uiso   1.00
H258   H     0.48017   0.90683   0.77155   0.00000  Uiso   1.00
H259   H     0.29528   0.45826   0.51846   0.00000  Uiso   1.00
H260   H     0.04964   0.69234   0.97768   0.00000  Uiso   1.00
H261   H     0.17299   0.78242   0.67462   0.00000  Uiso   1.00
H262   H     0.26726   0.89009   0.67964   0.00000  Uiso   1.00
H263   H     0.17958   0.67735   0.55960   0.00000  Uiso   1.00
H264   H     0.06309   0.78836   0.77737   0.00000  Uiso   1.00
H265   H     0.38604   0.99594   0.69655   0.00000  Uiso   1.00
H266   H     0.20115   0.54736   0.44345   0.00000  Uiso   1.00
H267   H     0.95551   0.78144   0.90267   0.00000  Uiso   1.00
O268   O     0.49711   0.02032   0.73891   0.00000  Uiso   1.00
O269   O     0.25453   0.43180   0.40687   0.00000  Uiso   1.00
O270   O     0.93226   0.73891   0.00935   0.00000  Uiso   1.00
N271   N     0.44507   0.91303   0.75323   0.00000  Uiso   1.00
N272   N     0.27222   0.49365   0.51659   0.00000  Uiso   1.00
N273   N     0.04256   0.71247   0.94591   0.00000  Uiso   1.00
N274   N     0.39442   0.96098   0.71286   0.00000  Uiso   1.00
N275   N     0.22157   0.54160   0.47623   0.00000  Uiso   1.00
N276   N     0.99191   0.76042   0.90555   0.00000  Uiso   1.00
C277   C     0.22249   0.89844   0.07018   0.00000  Uiso   1.00
C278   C     0.28974   0.94728   0.05942   0.00000  Uiso   1.00
C279   C     0.31520   0.99983   0.11171   0.00000  Uiso   1.00
C280   C     0.37765   0.03878   0.09116   0.00000  Uiso   1.00
C281   C     0.47667   0.11659   0.08515   0.00000  Uiso   1.00
C282   C     0.24099   0.82445   0.03386   0.00000  Uiso   1.00
C283   C     0.22545   0.77374   0.06465   0.00000  Uiso   1.00
C284   C     0.24685   0.70928   0.02257   0.00000  Uiso   1.00
C285   C     0.27014   0.59639   0.97686   0.00000  Uiso   1.00
C286   C     0.18173   0.90695   0.02853   0.00000  Uiso   1.00
C287   C     0.11634   0.92558   0.05483   0.00000  Uiso   1.00
C288   C     0.08785   0.93058   0.00826   0.00000  Uiso   1.00
C289   C     0.01911   0.94577   0.95428   0.00000  Uiso   1.00
C290   C     0.28813   0.87415   0.94069   0.00000  Uiso   1.00
C291   C     0.32540   0.93408   0.98909   0.00000  Uiso   1.00
C292   C     0.38783   0.97296   0.96845   0.00000  Uiso   1.00
C293   C     0.41337   0.02556   0.02070   0.00000  Uiso   1.00
C294   C     0.27664   0.81125   0.96353   0.00000  Uiso   1.00
C295   C     0.29807   0.74686   0.92139   0.00000  Uiso   1.00
C296   C     0.28257   0.69606   0.95211   0.00000  Uiso   1.00
C297   C     0.21738   0.89375   0.95819   0.00000  Uiso   1.00
C298   C     0.18897   0.89871   0.91157   0.00000  Uiso   1.00
C299   C     0.12356   0.91735   0.93780   0.00000  Uiso   1.00
H300   H     0.19473   0.90871   0.12494   0.00000  Uiso   1.00
H301   H     0.28759   0.01003   0.16614   0.00000  Uiso   1.00
H302   H     0.19785   0.78396   0.11908   0.00000  Uiso   1.00
H303   H     0.08877   0.93579   0.10927   0.00000  Uiso   1.00
H304   H     0.40629   0.11651   0.18080   0.00000  Uiso   1.00
H305   H     0.21703   0.63984   0.08157   0.00000  Uiso   1.00
H306   H     0.98701   0.96000   0.06087   0.00000  Uiso   1.00
H307   H     0.31589   0.86387   0.88593   0.00000  Uiso   1.00
H308   H     0.41541   0.96273   0.91401   0.00000  Uiso   1.00
H309   H     0.32566   0.73666   0.86696   0.00000  Uiso   1.00
H310   H     0.21658   0.88849   0.85714   0.00000  Uiso   1.00
H311   H     0.51002   0.07813   0.97616   0.00000  Uiso   1.00
H312   H     0.32077   0.60145   0.87694   0.00000  Uiso   1.00
H313   H     0.09075   0.92161   0.85624   0.00000  Uiso   1.00
O314   O     0.52144   0.16315   0.10127   0.00000  Uiso   1.00
O315   O     0.27314   0.53776   0.97108   0.00000  Uiso   1.00
O316   O     0.97136   0.95781   0.94393   0.00000  Uiso   1.00
N317   N     0.41704   0.09392   0.12878   0.00000  Uiso   1.00
N318   N     0.24011   0.64826   0.03601   0.00000  Uiso   1.00
N319   N     0.02505   0.94757   0.01666   0.00000  Uiso   1.00
N320   N     0.47286   0.07327   0.01867   0.00000  Uiso   1.00
N321   N     0.29593   0.62761   0.92590   0.00000  Uiso   1.00
N322   N     0.08087   0.92691   0.90655   0.00000  Uiso   1.00
C323   C     0.37128   0.55351   0.24930   0.00000  Uiso   1.00
C324   C     0.36029   0.47639   0.24123   0.00000  Uiso   1.00
C325   C     0.39445   0.44611   0.26478   0.00000  Uiso   1.00
C326   C     0.37705   0.37471   0.25230   0.00000  Uiso   1.00
C327   C     0.36753   0.26100   0.24508   0.00000  Uiso   1.00
C328   C     0.30134   0.57816   0.28679   0.00000  Uiso   1.00
C329   C     0.28593   0.63344   0.34864   0.00000  Uiso   1.00
C330   C     0.21890   0.64771   0.37451   0.00000  Uiso   1.00
C331   C     0.11787   0.69202   0.43800   0.00000  Uiso   1.00
C332   C     0.38942   0.55599   0.17601   0.00000  Uiso   1.00
C333   C     0.44807   0.59266   0.14473   0.00000  Uiso   1.00
C334   C     0.45520   0.58828   0.07734   0.00000  Uiso   1.00
C335   C     0.49093   0.59818   0.96884   0.00000  Uiso   1.00
C336   C     0.27966   0.48056   0.18526   0.00000  Uiso   1.00
C337   C     0.31052   0.43677   0.20644   0.00000  Uiso   1.00
C338   C     0.29307   0.36540   0.19392   0.00000  Uiso   1.00
C339   C     0.32720   0.33502   0.21745   0.00000  Uiso   1.00
C340   C     0.25157   0.53854   0.25201   0.00000  Uiso   1.00
C341   C     0.18456   0.55273   0.27779   0.00000  Uiso   1.00
C342   C     0.16905   0.60802   0.33967   0.00000  Uiso   1.00
C343   C     0.33966   0.51637   0.14123   0.00000  Uiso   1.00
C344   C     0.34669   0.51194   0.07388   0.00000  Uiso   1.00
C345   C     0.40534   0.54859   0.04250   0.00000  Uiso   1.00
H346   H     0.41002   0.58436   0.27639   0.00000  Uiso   1.00
H347   H     0.43295   0.47679   0.29170   0.00000  Uiso   1.00
H348   H     0.32445   0.66410   0.37554   0.00000  Uiso   1.00
H349   H     0.48657   0.62331   0.17167   0.00000  Uiso   1.00
H350   H     0.43640   0.34006   0.29336   0.00000  Uiso   1.00
H351   H     0.20763   0.73502   0.47014   0.00000  Uiso   1.00
H352   H     0.54948   0.64902   0.04022   0.00000  Uiso   1.00
H353   H     0.24091   0.44972   0.15818   0.00000  Uiso   1.00
H354   H     0.25456   0.33475   0.16700   0.00000  Uiso   1.00
H355   H     0.14606   0.52206   0.25085   0.00000  Uiso   1.00
H356   H     0.30817   0.48128   0.04697   0.00000  Uiso   1.00
H357   H     0.29161   0.22478   0.19216   0.00000  Uiso   1.00
H358   H     0.06284   0.61974   0.36894   0.00000  Uiso   1.00
H359   H     0.40469   0.53374   0.93902   0.00000  Uiso   1.00
O360   O     0.37602   0.20923   0.25072   0.00000  Uiso   1.00
O361   O     0.07589   0.72741   0.48264   0.00000  Uiso   1.00
O362   O     0.52439   0.61458   0.91860   0.00000  Uiso   1.00
N363   N     0.40046   0.32870   0.26832   0.00000  Uiso   1.00
N364   N     0.18657   0.69796   0.43360   0.00000  Uiso   1.00
N365   N     0.50617   0.61758   0.03167   0.00000  Uiso   1.00
N366   N     0.32255   0.26667   0.21386   0.00000  Uiso   1.00
N367   N     0.10866   0.63593   0.37915   0.00000  Uiso   1.00
N368   N     0.42826   0.55554   0.97722   0.00000  Uiso   1.00
C369   C     0.85384   0.28415   0.11838   0.00000  Uiso   1.00
C370   C     0.83823   0.33490   0.09284   0.00000  Uiso   1.00
C371   C     0.77606   0.33382   0.08299   0.00000  Uiso   1.00
C372   C     0.77212   0.38475   0.05932   0.00000  Uiso   1.00
C373   C     0.73933   0.45594   0.02172   0.00000  Uiso   1.00
C374   C     0.87873   0.32900   0.18260   0.00000  Uiso   1.00
C375   C     0.85061   0.32296   0.24823   0.00000  Uiso   1.00
C376   C     0.88077   0.36893   0.30012   0.00000  Uiso   1.00
C377   C     0.91088   0.43093   0.40187   0.00000  Uiso   1.00
C378   C     0.91551   0.25185   0.06289   0.00000  Uiso   1.00
C379   C     0.91832   0.18094   0.02787   0.00000  Uiso   1.00
C380   C     0.97945   0.16195   0.97898   0.00000  Uiso   1.00
C381   C     0.06666   0.10416   0.89486   0.00000  Uiso   1.00
C382   C     0.95740   0.37652   0.09384   0.00000  Uiso   1.00
C383   C     0.89449   0.38507   0.07951   0.00000  Uiso   1.00
C384   C     0.89064   0.43601   0.05585   0.00000  Uiso   1.00
C385   C     0.82847   0.43501   0.04597   0.00000  Uiso   1.00
C386   C     0.93498   0.37917   0.16928   0.00000  Uiso   1.00
C387   C     0.96519   0.42515   0.22108   0.00000  Uiso   1.00
C388   C     0.93712   0.41919   0.28677   0.00000  Uiso   1.00
C389   C     0.97176   0.30202   0.04956   0.00000  Uiso   1.00
C390   C     0.03290   0.28314   0.00072   0.00000  Uiso   1.00
C391   C     0.03580   0.21221   0.96563   0.00000  Uiso   1.00
H392   H     0.81004   0.24509   0.12876   0.00000  Uiso   1.00
H393   H     0.73254   0.29499   0.09332   0.00000  Uiso   1.00
H394   H     0.80709   0.28413   0.25852   0.00000  Uiso   1.00
H395   H     0.87478   0.14213   0.03820   0.00000  Uiso   1.00
H396   H     0.67141   0.37245   0.04817   0.00000  Uiso   1.00
H397   H     0.82861   0.34953   0.39651   0.00000  Uiso   1.00
H398   H     0.97136   0.05010   0.93192   0.00000  Uiso   1.00
H399   H     0.00119   0.41558   0.08347   0.00000  Uiso   1.00
H400   H     0.93418   0.47483   0.04554   0.00000  Uiso   1.00
H401   H     0.00872   0.46397   0.21075   0.00000  Uiso   1.00
H402   H     0.07641   0.32197   0.99042   0.00000  Uiso   1.00
H403   H     0.83506   0.51842   0.00940   0.00000  Uiso   1.00
H404   H     0.99226   0.49550   0.35774   0.00000  Uiso   1.00
H405   H     0.13501   0.19607   0.89314   0.00000  Uiso   1.00
O406   O     0.70570   0.48135   0.00468   0.00000  Uiso   1.00
O407   O     0.91194   0.45127   0.46168   0.00000  Uiso   1.00
O408   O     0.09923   0.05843   0.85214   0.00000  Uiso   1.00
N409   N     0.71913   0.39867   0.04424   0.00000  Uiso   1.00
N410   N     0.86609   0.37724   0.36992   0.00000  Uiso   1.00
N411   N     0.99956   0.09730   0.93557   0.00000  Uiso   1.00
N412   N     0.80719   0.47721   0.02338   0.00000  Uiso   1.00
N413   N     0.95415   0.45579   0.34905   0.00000  Uiso   1.00
N414   N     0.08762   0.17585   0.91471   0.00000  Uiso   1.00
C415   C     0.73220   0.74915   0.63839   0.00000  Uiso   1.00
C416   C     0.78863   0.76437   0.57741   0.00000  Uiso   1.00
C417   C     0.85782   0.76226   0.56341   0.00000  Uiso   1.00
C418   C     0.90126   0.77788   0.50510   0.00000  Uiso   1.00
C419   C     0.99268   0.79895   0.41694   0.00000  Uiso   1.00
C420   C     0.69595   0.81383   0.67724   0.00000  Uiso   1.00
C421   C     0.68720   0.85329   0.74717   0.00000  Uiso   1.00
C422   C     0.65261   0.91055   0.77289   0.00000  Uiso   1.00
C423   C     0.60009   0.00837   0.83972   0.00000  Uiso   1.00
C424   C     0.68056   0.69084   0.60661   0.00000  Uiso   1.00
C425   C     0.65886   0.62689   0.61718   0.00000  Uiso   1.00
C426   C     0.61130   0.58060   0.58345   0.00000  Uiso   1.00
C427   C     0.53489   0.48747   0.54063   0.00000  Uiso   1.00
C428   C     0.68630   0.78065   0.55973   0.00000  Uiso   1.00
C429   C     0.76370   0.78148   0.53469   0.00000  Uiso   1.00
C430   C     0.80704   0.79711   0.47638   0.00000  Uiso   1.00
C431   C     0.87629   0.79502   0.46229   0.00000  Uiso   1.00
C432   C     0.67102   0.83094   0.63451   0.00000  Uiso   1.00
C433   C     0.63642   0.88814   0.66014   0.00000  Uiso   1.00
C434   C     0.62763   0.92769   0.73008   0.00000  Uiso   1.00
C435   C     0.65563   0.70795   0.56389   0.00000  Uiso   1.00
C436   C     0.60808   0.66175   0.53014   0.00000  Uiso   1.00
C437   C     0.58632   0.59775   0.54065   0.00000  Uiso   1.00
H438   H     0.75160   0.73583   0.67166   0.00000  Uiso   1.00
H439   H     0.87710   0.74902   0.59649   0.00000  Uiso   1.00
H440   H     0.70650   0.84004   0.78022   0.00000  Uiso   1.00
H441   H     0.67816   0.61367   0.65024   0.00000  Uiso   1.00
H442   H     0.00524   0.77121   0.49433   0.00000  Uiso   1.00
H443   H     0.64550   0.96311   0.88174   0.00000  Uiso   1.00
H444   H     0.58575   0.48578   0.60766   0.00000  Uiso   1.00
H445   H     0.66689   0.79397   0.52646   0.00000  Uiso   1.00
H446   H     0.78773   0.81035   0.44333   0.00000  Uiso   1.00
H447   H     0.61713   0.90137   0.62706   0.00000  Uiso   1.00
H448   H     0.58880   0.67500   0.49708   0.00000  Uiso   1.00
H449   H     0.93271   0.82099   0.37002   0.00000  Uiso   1.00
H450   H     0.57296   0.01289   0.75743   0.00000  Uiso   1.00
H451   H     0.51322   0.53556   0.48335   0.00000  Uiso   1.00
O452   O     0.05000   0.80585   0.38012   0.00000  Uiso   1.00
O453   O     0.57802   0.05761   0.88838   0.00000  Uiso   1.00
O454   O     0.49964   0.43136   0.52880   0.00000  Uiso   1.00
N455   N     0.97158   0.78067   0.47648   0.00000  Uiso   1.00
N456   N     0.63525   0.96009   0.83867   0.00000  Uiso   1.00
N457   N     0.57938   0.51383   0.58245   0.00000  Uiso   1.00
N458   N     0.93255   0.80745   0.40958   0.00000  Uiso   1.00
N459   N     0.59623   0.98687   0.77178   0.00000  Uiso   1.00
N460   N     0.54036   0.54062   0.51556   0.00000  Uiso   1.00
C461   C     0.16567   0.40127   0.64878   0.00000  Uiso   1.00
C462   C     0.11962   0.42897   0.62689   0.00000  Uiso   1.00
C463   C     0.10603   0.49735   0.65314   0.00000  Uiso   1.00
C464   C     0.06254   0.51222   0.62634   0.00000  Uiso   1.00
C465   C     0.99540   0.56310   0.60016   0.00000  Uiso   1.00
C466   C     0.12156   0.34083   0.67251   0.00000  Uiso   1.00
C467   C     0.10961   0.33510   0.73712   0.00000  Uiso   1.00
C468   C     0.06776   0.27577   0.74872   0.00000  Uiso   1.00
C469   C     0.00366   0.18978   0.79336   0.00000  Uiso   1.00
C470   C     0.21946   0.36876   0.58236   0.00000  Uiso   1.00
C471   C     0.28983   0.38650   0.57116   0.00000  Uiso   1.00
C472   C     0.33040   0.35066   0.50687   0.00000  Uiso   1.00
C473   C     0.41831   0.30804   0.41152   0.00000  Uiso   1.00
C474   C     0.11260   0.30607   0.55452   0.00000  Uiso   1.00
C475   C     0.09080   0.37726   0.57569   0.00000  Uiso   1.00
C476   C     0.04732   0.39203   0.54885   0.00000  Uiso   1.00
C477   C     0.03367   0.46043   0.57505   0.00000  Uiso   1.00
C478   C     0.09274   0.28913   0.62132   0.00000  Uiso   1.00
C479   C     0.05090   0.22978   0.63283   0.00000  Uiso   1.00
C480   C     0.03888   0.22397   0.69744   0.00000  Uiso   1.00
C481   C     0.19064   0.31705   0.53116   0.00000  Uiso   1.00
C482   C     0.23111   0.28118   0.46687   0.00000  Uiso   1.00
C483   C     0.30152   0.29886   0.45558   0.00000  Uiso   1.00
H484   H     0.18811   0.44152   0.68864   0.00000  Uiso   1.00
H485   H     0.12834   0.53735   0.69276   0.00000  Uiso   1.00
H486   H     0.13193   0.37512   0.77672   0.00000  Uiso   1.00
H487   H     0.31211   0.42651   0.61079   0.00000  Uiso   1.00
H488   H     0.04935   0.62079   0.67477   0.00000  Uiso   1.00
H489   H     0.05692   0.27871   0.85180   0.00000  Uiso   1.00
H490   H     0.43688   0.38708   0.50190   0.00000  Uiso   1.00
H491   H     0.09016   0.26581   0.51466   0.00000  Uiso   1.00
H492   H     0.02502   0.35201   0.50923   0.00000  Uiso   1.00
H493   H     0.02860   0.18978   0.59320   0.00000  Uiso   1.00
H494   H     0.20879   0.24117   0.42726   0.00000  Uiso   1.00
H495   H     0.96549   0.47036   0.52581   0.00000  Uiso   1.00
H496   H     0.97306   0.12828   0.70284   0.00000  Uiso   1.00
H497   H     0.35302   0.23665   0.35294   0.00000  Uiso   1.00
O498   O     0.96632   0.60544   0.59987   0.00000  Uiso   1.00
O499   O     0.97627   0.15664   0.83213   0.00000  Uiso   1.00
O500   O     0.47476   0.29882   0.37306   0.00000  Uiso   1.00
N501   N     0.03857   0.57356   0.64045   0.00000  Uiso   1.00
N502   N     0.04564   0.25374   0.80596   0.00000  Uiso   1.00
N503   N     0.40087   0.35504   0.47884   0.00000  Uiso   1.00
N504   N     0.99344   0.49262   0.56029   0.00000  Uiso   1.00
N505   N     0.00051   0.17280   0.72581   0.00000  Uiso   1.00
N506   N     0.35574   0.27410   0.39869   0.00000  Uiso   1.00
C507   C     0.40642   0.16923   0.59956   0.00000  Uiso   1.00
C508   C     0.38895   0.09031   0.58285   0.00000  Uiso   1.00
C509   C     0.32755   0.05057   0.57167   0.00000  Uiso   1.00
C510   C     0.32159   0.97914   0.55708   0.00000  Uiso   1.00
C511   C     0.28630   0.86125   0.53166   0.00000  Uiso   1.00
C512   C     0.42620   0.19790   0.66775   0.00000  Uiso   1.00
C513   C     0.39613   0.24863   0.72794   0.00000  Uiso   1.00
C514   C     0.42154   0.26777   0.78481   0.00000  Uiso   1.00
C515   C     0.44411   0.31695   0.89117   0.00000  Uiso   1.00
C516   C     0.47169   0.18097   0.54396   0.00000  Uiso   1.00
C517   C     0.47987   0.21749   0.50008   0.00000  Uiso   1.00
C518   C     0.54359   0.22240   0.45274   0.00000  Uiso   1.00
C519   C     0.63679   0.24530   0.36691   0.00000  Uiso   1.00
C520   C     0.50504   0.11304   0.59352   0.00000  Uiso   1.00
C521   C     0.44252   0.05979   0.57957   0.00000  Uiso   1.00
C522   C     0.43665   0.98840   0.56498   0.00000  Uiso   1.00
C523   C     0.37525   0.94857   0.55378   0.00000  Uiso   1.00
C524   C     0.47976   0.16738   0.66446   0.00000  Uiso   1.00
C525   C     0.50523   0.18646   0.72125   0.00000  Uiso   1.00
C526   C     0.47520   0.23720   0.78152   0.00000  Uiso   1.00
C527   C     0.52526   0.15045   0.54067   0.00000  Uiso   1.00
C528   C     0.58897   0.15532   0.49339   0.00000  Uiso   1.00
C529   C     0.59725   0.19183   0.44945   0.00000  Uiso   1.00
H530   H     0.36472   0.19299   0.60212   0.00000  Uiso   1.00
H531   H     0.28610   0.07420   0.57422   0.00000  Uiso   1.00
H532   H     0.35468   0.27224   0.73046   0.00000  Uiso   1.00
H533   H     0.43841   0.24109   0.50264   0.00000  Uiso   1.00
H534   H     0.22255   0.92906   0.54187   0.00000  Uiso   1.00
H535   H     0.36716   0.34663   0.87130   0.00000  Uiso   1.00
H536   H     0.54373   0.28097   0.39089   0.00000  Uiso   1.00
H537   H     0.54674   0.08928   0.59096   0.00000  Uiso   1.00
H538   H     0.47811   0.96480   0.56245   0.00000  Uiso   1.00
H539   H     0.54668   0.16284   0.71869   0.00000  Uiso   1.00
H540   H     0.63041   0.13170   0.49087   0.00000  Uiso   1.00
H541   H     0.37839   0.84026   0.53231   0.00000  Uiso   1.00
H542   H     0.52300   0.25785   0.86175   0.00000  Uiso   1.00
H543   H     0.69956   0.19218   0.38134   0.00000  Uiso   1.00
O544   O     0.25203   0.80465   0.51856   0.00000  Uiso   1.00
O545   O     0.44176   0.35251   0.95076   0.00000  Uiso   1.00
O546   O     0.67340   0.26635   0.32047   0.00000  Uiso   1.00
N547   N     0.26865   0.92524   0.54352   0.00000  Uiso   1.00
N548   N     0.40385   0.31564   0.85152   0.00000  Uiso   1.00
N549   N     0.56892   0.25427   0.40239   0.00000  Uiso   1.00
N550   N     0.35251   0.87746   0.53838   0.00000  Uiso   1.00
N551   N     0.48770   0.26787   0.84638   0.00000  Uiso   1.00
N552   N     0.65278   0.20649   0.39725   0.00000  Uiso   1.00
