data_job_02192
_audit_creation_date              2018-12-19
_audit_creation_method            'Materials Studio'
_symmetry_space_group_name_H-M    'P1'
_symmetry_Int_Tables_number       1
_symmetry_cell_setting            triclinic
loop_
_symmetry_equiv_pos_as_xyz
  x,y,z
_cell_length_a                    9.6987
_cell_length_b                    12.4887
_cell_length_c                    16.0007
_cell_angle_alpha                 91.4460
_cell_angle_beta                  100.6435
_cell_angle_gamma                 95.1718
loop_
_atom_site_label
_atom_site_type_symbol
_atom_site_fract_x
_atom_site_fract_y
_atom_site_fract_z
_atom_site_U_iso_or_equiv
_atom_site_adp_type
_atom_site_occupancy
C1     C     0.68405   0.40124   0.28786   0.00000  Uiso   1.00
C2     C     0.77569   0.48943   0.25412   0.00000  Uiso   1.00
C3     C     0.82138   0.59006   0.29329   0.00000  Uiso   1.00
C4     C     0.90439   0.65935   0.25221   0.00000  Uiso   1.00
C5     C     0.04116   0.80093   0.21158   0.00000  Uiso   1.00
C6     C     0.55548   0.37360   0.21751   0.00000  Uiso   1.00
C7     C     0.41601   0.37683   0.22591   0.00000  Uiso   1.00
C8     C     0.31364   0.34860   0.15402   0.00000  Uiso   1.00
C9     C     0.10853   0.31027   0.05657   0.00000  Uiso   1.00
C10    C     0.76632   0.30238   0.29422   0.00000  Uiso   1.00
C11    C     0.80410   0.24571   0.36711   0.00000  Uiso   1.00
C12    C     0.87923   0.15750   0.35980   0.00000  Uiso   1.00
C13    C     0.00148   0.00860   0.38146   0.00000  Uiso   1.00
C14    C     0.75024   0.34534   0.14525   0.00000  Uiso   1.00
C15    C     0.81164   0.45907   0.17666   0.00000  Uiso   1.00
C16    C     0.89462   0.52822   0.13551   0.00000  Uiso   1.00
C17    C     0.94042   0.62894   0.17462   0.00000  Uiso   1.00
C18    C     0.59143   0.34324   0.14006   0.00000  Uiso   1.00
C19    C     0.48925   0.31499   0.06814   0.00000  Uiso   1.00
C20    C     0.34966   0.31818   0.07642   0.00000  Uiso   1.00
C21    C     0.80228   0.27202   0.21676   0.00000  Uiso   1.00
C22    C     0.87735   0.18387   0.20934   0.00000  Uiso   1.00
C23    C     0.91525   0.12708   0.28220   0.00000  Uiso   1.00
H24    H     0.65605   0.42487   0.34816   0.00000  Uiso   1.00
H25    H     0.79352   0.61353   0.35323   0.00000  Uiso   1.00
H26    H     0.38822   0.40032   0.28586   0.00000  Uiso   1.00
H27    H     0.77626   0.26923   0.42704   0.00000  Uiso   1.00
H28    H     0.96174   0.80932   0.32467   0.00000  Uiso   1.00
H29    H     0.10714   0.35972   0.18264   0.00000  Uiso   1.00
H30    H     0.92540   0.08328   0.48034   0.00000  Uiso   1.00
H31    H     0.77824   0.32170   0.08495   0.00000  Uiso   1.00
H32    H     0.92242   0.50470   0.07557   0.00000  Uiso   1.00
H33    H     0.51711   0.29149   0.00821   0.00000  Uiso   1.00
H34    H     0.90516   0.16040   0.14939   0.00000  Uiso   1.00
H35    H     0.06636   0.72100   0.09931   0.00000  Uiso   1.00
H36    H     0.21175   0.27138   0.95728   0.00000  Uiso   1.00
H37    H     0.03002   0.99495   0.25498   0.00000  Uiso   1.00
O38    O     0.10666   0.88742   0.21056   0.00000  Uiso   1.00
O39    O     0.98545   0.29753   0.02422   0.00000  Uiso   1.00
O40    O     0.05900   0.93486   0.41480   0.00000  Uiso   1.00
N41    N     0.96660   0.76341   0.27293   0.00000  Uiso   1.00
N42    N     0.16760   0.34307   0.14013   0.00000  Uiso   1.00
N43    N     0.93257   0.08461   0.41845   0.00000  Uiso   1.00
N44    N     0.02290   0.71588   0.15166   0.00000  Uiso   1.00
N45    N     0.22389   0.29554   0.01887   0.00000  Uiso   1.00
N46    N     0.98887   0.03708   0.29719   0.00000  Uiso   1.00
C47    C     0.31595   0.59876   0.71214   0.00000  Uiso   1.00
C48    C     0.22431   0.51057   0.74588   0.00000  Uiso   1.00
C49    C     0.17862   0.40994   0.70671   0.00000  Uiso   1.00
C50    C     0.09561   0.34065   0.74779   0.00000  Uiso   1.00
C51    C     0.95884   0.19907   0.78842   0.00000  Uiso   1.00
C52    C     0.44452   0.62640   0.78249   0.00000  Uiso   1.00
C53    C     0.58399   0.62317   0.77409   0.00000  Uiso   1.00
C54    C     0.68636   0.65140   0.84598   0.00000  Uiso   1.00
C55    C     0.89147   0.68973   0.94343   0.00000  Uiso   1.00
C56    C     0.23368   0.69762   0.70578   0.00000  Uiso   1.00
C57    C     0.19590   0.75429   0.63289   0.00000  Uiso   1.00
C58    C     0.12077   0.84250   0.64020   0.00000  Uiso   1.00
C59    C     0.99852   0.99140   0.61854   0.00000  Uiso   1.00
C60    C     0.24976   0.65466   0.85475   0.00000  Uiso   1.00
C61    C     0.18836   0.54093   0.82334   0.00000  Uiso   1.00
C62    C     0.10538   0.47178   0.86449   0.00000  Uiso   1.00
C63    C     0.05958   0.37106   0.82538   0.00000  Uiso   1.00
C64    C     0.40857   0.65676   0.85994   0.00000  Uiso   1.00
C65    C     0.51075   0.68501   0.93186   0.00000  Uiso   1.00
C66    C     0.65034   0.68182   0.92358   0.00000  Uiso   1.00
C67    C     0.19772   0.72798   0.78324   0.00000  Uiso   1.00
C68    C     0.12265   0.81613   0.79066   0.00000  Uiso   1.00
C69    C     0.08475   0.87292   0.71780   0.00000  Uiso   1.00
H70    H     0.34395   0.57513   0.65184   0.00000  Uiso   1.00
H71    H     0.20648   0.38647   0.64677   0.00000  Uiso   1.00
H72    H     0.61178   0.59968   0.71414   0.00000  Uiso   1.00
H73    H     0.22374   0.73077   0.57296   0.00000  Uiso   1.00
H74    H     0.03826   0.19068   0.67533   0.00000  Uiso   1.00
H75    H     0.89286   0.64028   0.81736   0.00000  Uiso   1.00
H76    H     0.07460   0.91672   0.51966   0.00000  Uiso   1.00
H77    H     0.22176   0.67830   0.91505   0.00000  Uiso   1.00
H78    H     0.07758   0.49530   0.92443   0.00000  Uiso   1.00
H79    H     0.48289   0.70851   0.99179   0.00000  Uiso   1.00
H80    H     0.09484   0.83960   0.85061   0.00000  Uiso   1.00
H81    H     0.93364   0.27900   0.90069   0.00000  Uiso   1.00
H82    H     0.78825   0.72862   0.04272   0.00000  Uiso   1.00
H83    H     0.96998   0.00505   0.74502   0.00000  Uiso   1.00
O84    O     0.89334   0.11258   0.78944   0.00000  Uiso   1.00
O85    O     0.01455   0.70247   0.97578   0.00000  Uiso   1.00
O86    O     0.94100   0.06514   0.58520   0.00000  Uiso   1.00
N87    N     0.03340   0.23659   0.72707   0.00000  Uiso   1.00
N88    N     0.83240   0.65693   0.85987   0.00000  Uiso   1.00
N89    N     0.06743   0.91539   0.58155   0.00000  Uiso   1.00
N90    N     0.97710   0.28412   0.84834   0.00000  Uiso   1.00
N91    N     0.77611   0.70446   0.98113   0.00000  Uiso   1.00
N92    N     0.01113   0.96292   0.70281   0.00000  Uiso   1.00
