data_job_03509
_audit_creation_date              2018-12-19
_audit_creation_method            'Materials Studio'
_symmetry_space_group_name_H-M    'P1'
_symmetry_Int_Tables_number       1
_symmetry_cell_setting            triclinic
loop_
_symmetry_equiv_pos_as_xyz
  x,y,z
_cell_length_a                    14.8539
_cell_length_b                    12.5677
_cell_length_c                    20.3065
_cell_angle_alpha                 90.0000
_cell_angle_beta                  105.1180
_cell_angle_gamma                 90.0000
loop_
_atom_site_label
_atom_site_type_symbol
_atom_site_fract_x
_atom_site_fract_y
_atom_site_fract_z
_atom_site_U_iso_or_equiv
_atom_site_adp_type
_atom_site_occupancy
C1     C     0.69002   0.46969   0.83969   0.00000  Uiso   1.00
C2     C     0.72105   0.36114   0.87103   0.00000  Uiso   1.00
C3     C     0.67050   0.29595   0.90344   0.00000  Uiso   1.00
C4     C     0.71100   0.19969   0.92871   0.00000  Uiso   1.00
C5     C     0.74583   0.03572   0.97845   0.00000  Uiso   1.00
C6     C     0.76663   0.54765   0.87391   0.00000  Uiso   1.00
C7     C     0.75440   0.63928   0.90874   0.00000  Uiso   1.00
C8     C     0.83327   0.70003   0.93641   0.00000  Uiso   1.00
C9     C     0.93886   0.82566   0.99059   0.00000  Uiso   1.00
C10    C     0.69327   0.46257   0.76539   0.00000  Uiso   1.00
C11    C     0.61936   0.48268   0.70895   0.00000  Uiso   1.00
C12    C     0.63647   0.47182   0.64525   0.00000  Uiso   1.00
C13    C     0.62815   0.46534   0.53092   0.00000  Uiso   1.00
C14    C     0.85183   0.41466   0.82692   0.00000  Uiso   1.00
C15    C     0.80894   0.33126   0.86410   0.00000  Uiso   1.00
C16    C     0.84952   0.23507   0.88931   0.00000  Uiso   1.00
C17    C     0.79905   0.16974   0.92175   0.00000  Uiso   1.00
C18    C     0.85452   0.51777   0.86698   0.00000  Uiso   1.00
C19    C     0.93342   0.57840   0.89460   0.00000  Uiso   1.00
C20    C     0.92132   0.67009   0.92946   0.00000  Uiso   1.00
C21    C     0.78116   0.43267   0.75845   0.00000  Uiso   1.00
C22    C     0.79839   0.42179   0.69482   0.00000  Uiso   1.00
C23    C     0.72452   0.44188   0.63830   0.00000  Uiso   1.00
H24    H     0.62160   0.49297   0.84510   0.00000  Uiso   1.00
H25    H     0.60249   0.31912   0.90881   0.00000  Uiso   1.00
H26    H     0.68638   0.66240   0.91409   0.00000  Uiso   1.00
H27    H     0.55136   0.50581   0.71434   0.00000  Uiso   1.00
H28    H     0.62009   0.11321   0.97641   0.00000  Uiso   1.00
H29    H     0.79696   0.83705   0.98753   0.00000  Uiso   1.00
H30    H     0.51225   0.50687   0.56631   0.00000  Uiso   1.00
H31    H     0.92026   0.39139   0.82152   0.00000  Uiso   1.00
H32    H     0.91754   0.21196   0.88394   0.00000  Uiso   1.00
H33    H     0.00142   0.55524   0.88922   0.00000  Uiso   1.00
H34    H     0.86641   0.39866   0.68947   0.00000  Uiso   1.00
H35    H     0.87579   0.02624   0.95622   0.00000  Uiso   1.00
H36    H     0.05266   0.75009   0.96734   0.00000  Uiso   1.00
H37    H     0.76795   0.41990   0.54613   0.00000  Uiso   1.00
O38    O     0.74077   0.95354   0.00782   0.00000  Uiso   1.00
O39    O     0.97282   0.90320   0.02240   0.00000  Uiso   1.00
O40    O     0.59928   0.47000   0.46978   0.00000  Uiso   1.00
N41    N     0.68063   0.11735   0.96308   0.00000  Uiso   1.00
N42    N     0.84600   0.79410   0.97348   0.00000  Uiso   1.00
N43    N     0.57982   0.48543   0.57969   0.00000  Uiso   1.00
N44    N     0.81822   0.07055   0.95222   0.00000  Uiso   1.00
N45    N     0.98359   0.74730   0.96262   0.00000  Uiso   1.00
N46    N     0.71741   0.43863   0.56882   0.00000  Uiso   1.00
C47    C     0.30998   0.46969   0.66031   0.00000  Uiso   1.00
C48    C     0.27895   0.36114   0.62897   0.00000  Uiso   1.00
C49    C     0.32950   0.29595   0.59656   0.00000  Uiso   1.00
C50    C     0.28900   0.19969   0.57129   0.00000  Uiso   1.00
C51    C     0.25417   0.03572   0.52155   0.00000  Uiso   1.00
C52    C     0.23337   0.54765   0.62609   0.00000  Uiso   1.00
C53    C     0.24560   0.63928   0.59126   0.00000  Uiso   1.00
C54    C     0.16673   0.70003   0.56359   0.00000  Uiso   1.00
C55    C     0.06114   0.82566   0.50941   0.00000  Uiso   1.00
C56    C     0.30673   0.46257   0.73461   0.00000  Uiso   1.00
C57    C     0.38064   0.48268   0.79105   0.00000  Uiso   1.00
C58    C     0.36353   0.47182   0.85475   0.00000  Uiso   1.00
C59    C     0.37185   0.46534   0.96908   0.00000  Uiso   1.00
C60    C     0.14817   0.41466   0.67308   0.00000  Uiso   1.00
C61    C     0.19106   0.33126   0.63590   0.00000  Uiso   1.00
C62    C     0.15048   0.23507   0.61069   0.00000  Uiso   1.00
C63    C     0.20095   0.16974   0.57825   0.00000  Uiso   1.00
C64    C     0.14548   0.51777   0.63302   0.00000  Uiso   1.00
C65    C     0.06658   0.57840   0.60540   0.00000  Uiso   1.00
C66    C     0.07868   0.67009   0.57054   0.00000  Uiso   1.00
C67    C     0.21884   0.43267   0.74155   0.00000  Uiso   1.00
C68    C     0.20161   0.42179   0.80518   0.00000  Uiso   1.00
C69    C     0.27548   0.44188   0.86170   0.00000  Uiso   1.00
H70    H     0.37840   0.49297   0.65490   0.00000  Uiso   1.00
H71    H     0.39751   0.31912   0.59119   0.00000  Uiso   1.00
H72    H     0.31362   0.66240   0.58591   0.00000  Uiso   1.00
H73    H     0.44864   0.50581   0.78566   0.00000  Uiso   1.00
H74    H     0.37991   0.11321   0.52359   0.00000  Uiso   1.00
H75    H     0.20304   0.83705   0.51247   0.00000  Uiso   1.00
H76    H     0.48775   0.50687   0.93369   0.00000  Uiso   1.00
H77    H     0.07974   0.39139   0.67848   0.00000  Uiso   1.00
H78    H     0.08246   0.21196   0.61606   0.00000  Uiso   1.00
H79    H     0.99858   0.55524   0.61078   0.00000  Uiso   1.00
H80    H     0.13359   0.39866   0.81053   0.00000  Uiso   1.00
H81    H     0.12421   0.02624   0.54378   0.00000  Uiso   1.00
H82    H     0.94734   0.75009   0.53266   0.00000  Uiso   1.00
H83    H     0.23205   0.41990   0.95387   0.00000  Uiso   1.00
O84    O     0.25923   0.95354   0.49218   0.00000  Uiso   1.00
O85    O     0.02718   0.90320   0.47760   0.00000  Uiso   1.00
O86    O     0.40072   0.47000   0.03022   0.00000  Uiso   1.00
N87    N     0.31937   0.11735   0.53692   0.00000  Uiso   1.00
N88    N     0.15400   0.79410   0.52652   0.00000  Uiso   1.00
N89    N     0.42018   0.48543   0.92031   0.00000  Uiso   1.00
N90    N     0.18178   0.07055   0.54778   0.00000  Uiso   1.00
N91    N     0.01641   0.74730   0.53738   0.00000  Uiso   1.00
N92    N     0.28259   0.43863   0.93118   0.00000  Uiso   1.00
C93    C     0.30998   0.53031   0.16031   0.00000  Uiso   1.00
C94    C     0.27895   0.63886   0.12897   0.00000  Uiso   1.00
C95    C     0.32950   0.70405   0.09656   0.00000  Uiso   1.00
C96    C     0.28900   0.80031   0.07129   0.00000  Uiso   1.00
C97    C     0.25417   0.96428   0.02155   0.00000  Uiso   1.00
C98    C     0.23337   0.45235   0.12609   0.00000  Uiso   1.00
C99    C     0.24560   0.36072   0.09126   0.00000  Uiso   1.00
C100   C     0.16673   0.29997   0.06359   0.00000  Uiso   1.00
C101   C     0.06114   0.17434   0.00941   0.00000  Uiso   1.00
C102   C     0.30673   0.53743   0.23461   0.00000  Uiso   1.00
C103   C     0.38064   0.51732   0.29105   0.00000  Uiso   1.00
C104   C     0.36353   0.52818   0.35475   0.00000  Uiso   1.00
C105   C     0.37185   0.53466   0.46908   0.00000  Uiso   1.00
C106   C     0.14817   0.58534   0.17308   0.00000  Uiso   1.00
C107   C     0.19106   0.66874   0.13590   0.00000  Uiso   1.00
C108   C     0.15048   0.76493   0.11069   0.00000  Uiso   1.00
C109   C     0.20095   0.83026   0.07825   0.00000  Uiso   1.00
C110   C     0.14548   0.48223   0.13302   0.00000  Uiso   1.00
C111   C     0.06658   0.42160   0.10540   0.00000  Uiso   1.00
C112   C     0.07868   0.32991   0.07054   0.00000  Uiso   1.00
C113   C     0.21884   0.56733   0.24155   0.00000  Uiso   1.00
C114   C     0.20161   0.57821   0.30518   0.00000  Uiso   1.00
C115   C     0.27548   0.55812   0.36170   0.00000  Uiso   1.00
H116   H     0.37840   0.50703   0.15490   0.00000  Uiso   1.00
H117   H     0.39751   0.68088   0.09119   0.00000  Uiso   1.00
H118   H     0.31362   0.33760   0.08591   0.00000  Uiso   1.00
H119   H     0.44864   0.49419   0.28566   0.00000  Uiso   1.00
H120   H     0.37991   0.88679   0.02359   0.00000  Uiso   1.00
H121   H     0.20304   0.16295   0.01247   0.00000  Uiso   1.00
H122   H     0.48775   0.49313   0.43369   0.00000  Uiso   1.00
H123   H     0.07974   0.60861   0.17848   0.00000  Uiso   1.00
H124   H     0.08246   0.78804   0.11606   0.00000  Uiso   1.00
H125   H     0.99858   0.44476   0.11078   0.00000  Uiso   1.00
H126   H     0.13359   0.60134   0.31053   0.00000  Uiso   1.00
H127   H     0.12421   0.97376   0.04378   0.00000  Uiso   1.00
H128   H     0.94734   0.24991   0.03266   0.00000  Uiso   1.00
H129   H     0.23205   0.58010   0.45387   0.00000  Uiso   1.00
O130   O     0.25923   0.04646   0.99218   0.00000  Uiso   1.00
O131   O     0.02718   0.09680   0.97760   0.00000  Uiso   1.00
O132   O     0.40072   0.53000   0.53022   0.00000  Uiso   1.00
N133   N     0.31937   0.88265   0.03692   0.00000  Uiso   1.00
N134   N     0.15400   0.20590   0.02652   0.00000  Uiso   1.00
N135   N     0.42018   0.51457   0.42031   0.00000  Uiso   1.00
N136   N     0.18178   0.92945   0.04778   0.00000  Uiso   1.00
N137   N     0.01641   0.25270   0.03738   0.00000  Uiso   1.00
N138   N     0.28259   0.56137   0.43118   0.00000  Uiso   1.00
C139   C     0.69002   0.53031   0.33969   0.00000  Uiso   1.00
C140   C     0.72105   0.63886   0.37103   0.00000  Uiso   1.00
C141   C     0.67050   0.70405   0.40344   0.00000  Uiso   1.00
C142   C     0.71100   0.80031   0.42871   0.00000  Uiso   1.00
C143   C     0.74583   0.96428   0.47845   0.00000  Uiso   1.00
C144   C     0.76663   0.45235   0.37391   0.00000  Uiso   1.00
C145   C     0.75440   0.36072   0.40874   0.00000  Uiso   1.00
C146   C     0.83327   0.29997   0.43641   0.00000  Uiso   1.00
C147   C     0.93886   0.17434   0.49059   0.00000  Uiso   1.00
C148   C     0.69327   0.53743   0.26539   0.00000  Uiso   1.00
C149   C     0.61936   0.51732   0.20895   0.00000  Uiso   1.00
C150   C     0.63647   0.52818   0.14525   0.00000  Uiso   1.00
C151   C     0.62815   0.53466   0.03092   0.00000  Uiso   1.00
C152   C     0.85183   0.58534   0.32692   0.00000  Uiso   1.00
C153   C     0.80894   0.66874   0.36410   0.00000  Uiso   1.00
C154   C     0.84952   0.76493   0.38931   0.00000  Uiso   1.00
C155   C     0.79905   0.83026   0.42175   0.00000  Uiso   1.00
C156   C     0.85452   0.48223   0.36698   0.00000  Uiso   1.00
C157   C     0.93342   0.42160   0.39460   0.00000  Uiso   1.00
C158   C     0.92132   0.32991   0.42946   0.00000  Uiso   1.00
C159   C     0.78116   0.56733   0.25845   0.00000  Uiso   1.00
C160   C     0.79839   0.57821   0.19482   0.00000  Uiso   1.00
C161   C     0.72452   0.55812   0.13830   0.00000  Uiso   1.00
H162   H     0.62160   0.50703   0.34510   0.00000  Uiso   1.00
H163   H     0.60249   0.68088   0.40881   0.00000  Uiso   1.00
H164   H     0.68638   0.33760   0.41409   0.00000  Uiso   1.00
H165   H     0.55136   0.49419   0.21434   0.00000  Uiso   1.00
H166   H     0.62009   0.88679   0.47641   0.00000  Uiso   1.00
H167   H     0.79696   0.16295   0.48753   0.00000  Uiso   1.00
H168   H     0.51225   0.49313   0.06631   0.00000  Uiso   1.00
H169   H     0.92026   0.60861   0.32152   0.00000  Uiso   1.00
H170   H     0.91754   0.78804   0.38394   0.00000  Uiso   1.00
H171   H     0.00142   0.44476   0.38922   0.00000  Uiso   1.00
H172   H     0.86641   0.60134   0.18947   0.00000  Uiso   1.00
H173   H     0.87579   0.97376   0.45622   0.00000  Uiso   1.00
H174   H     0.05266   0.24991   0.46734   0.00000  Uiso   1.00
H175   H     0.76795   0.58010   0.04613   0.00000  Uiso   1.00
O176   O     0.74077   0.04646   0.50782   0.00000  Uiso   1.00
O177   O     0.97282   0.09680   0.52240   0.00000  Uiso   1.00
O178   O     0.59928   0.53000   0.96978   0.00000  Uiso   1.00
N179   N     0.68063   0.88265   0.46308   0.00000  Uiso   1.00
N180   N     0.84600   0.20590   0.47348   0.00000  Uiso   1.00
N181   N     0.57982   0.51457   0.07969   0.00000  Uiso   1.00
N182   N     0.81822   0.92945   0.45222   0.00000  Uiso   1.00
N183   N     0.98359   0.25270   0.46262   0.00000  Uiso   1.00
N184   N     0.71741   0.56137   0.06882   0.00000  Uiso   1.00
