data_job_06563
_audit_creation_date              2018-12-19
_audit_creation_method            'Materials Studio'
_symmetry_space_group_name_H-M    'P1'
_symmetry_Int_Tables_number       1
_symmetry_cell_setting            triclinic
loop_
_symmetry_equiv_pos_as_xyz
  x,y,z
_cell_length_a                    17.4241
_cell_length_b                    22.2070
_cell_length_c                    23.9337
_cell_angle_alpha                 71.1582
_cell_angle_beta                  84.3423
_cell_angle_gamma                 108.8824
loop_
_atom_site_label
_atom_site_type_symbol
_atom_site_fract_x
_atom_site_fract_y
_atom_site_fract_z
_atom_site_U_iso_or_equiv
_atom_site_adp_type
_atom_site_occupancy
C1     C     0.33525   0.07606   0.92487   0.00000  Uiso   1.00
C2     C     0.37466   0.04918   0.97677   0.00000  Uiso   1.00
C3     C     0.33268   0.00951   0.03665   0.00000  Uiso   1.00
C4     C     0.37995   0.99009   0.07730   0.00000  Uiso   1.00
C5     C     0.42806   0.94541   0.16072   0.00000  Uiso   1.00
C6     C     0.38141   0.15384   0.89769   0.00000  Uiso   1.00
C7     C     0.34510   0.20216   0.89108   0.00000  Uiso   1.00
C8     C     0.39806   0.27084   0.86515   0.00000  Uiso   1.00
C9     C     0.45664   0.38864   0.82576   0.00000  Uiso   1.00
C10    C     0.35835   0.04988   0.87665   0.00000  Uiso   1.00
C11    C     0.30265   0.01080   0.85234   0.00000  Uiso   1.00
C12    C     0.33619   0.99197   0.80868   0.00000  Uiso   1.00
C13    C     0.35896   0.94836   0.73663   0.00000  Uiso   1.00
C14    C     0.49385   0.11212   0.89058   0.00000  Uiso   1.00
C15    C     0.46081   0.06877   0.95814   0.00000  Uiso   1.00
C16    C     0.50816   0.04941   0.99871   0.00000  Uiso   1.00
C17    C     0.46625   0.00971   0.05864   0.00000  Uiso   1.00
C18    C     0.46756   0.17343   0.87906   0.00000  Uiso   1.00
C19    C     0.52058   0.24206   0.85313   0.00000  Uiso   1.00
C20    C     0.48436   0.29047   0.84649   0.00000  Uiso   1.00
C21    C     0.44450   0.06947   0.85802   0.00000  Uiso   1.00
C22    C     0.47813   0.05070   0.81440   0.00000  Uiso   1.00
C23    C     0.42249   0.01160   0.79002   0.00000  Uiso   1.00
H24    H     0.26818   0.06081   0.93938   0.00000  Uiso   1.00
H25    H     0.26601   0.99437   0.05105   0.00000  Uiso   1.00
H26    H     0.27844   0.18698   0.90550   0.00000  Uiso   1.00
H27    H     0.23599   0.99565   0.86676   0.00000  Uiso   1.00
H28    H     0.30161   0.92936   0.16666   0.00000  Uiso   1.00
H29    H     0.32780   0.33550   0.85972   0.00000  Uiso   1.00
H30    H     0.23830   0.93205   0.77805   0.00000  Uiso   1.00
H31    H     0.56092   0.12738   0.87607   0.00000  Uiso   1.00
H32    H     0.57482   0.06458   0.98428   0.00000  Uiso   1.00
H33    H     0.58724   0.25720   0.83872   0.00000  Uiso   1.00
H34    H     0.54479   0.06587   0.79999   0.00000  Uiso   1.00
H35    H     0.55225   0.98635   0.11246   0.00000  Uiso   1.00
H36    H     0.57843   0.39249   0.80552   0.00000  Uiso   1.00
H37    H     0.48893   0.98904   0.72385   0.00000  Uiso   1.00
O38    O     0.43080   0.91536   0.21189   0.00000  Uiso   1.00
O39    O     0.46515   0.44820   0.80919   0.00000  Uiso   1.00
O40    O     0.34772   0.91888   0.70204   0.00000  Uiso   1.00
N41    N     0.35869   0.95137   0.13905   0.00000  Uiso   1.00
N42    N     0.38317   0.33110   0.85209   0.00000  Uiso   1.00
N43    N     0.29950   0.95392   0.77572   0.00000  Uiso   1.00
N44    N     0.49356   0.98204   0.10989   0.00000  Uiso   1.00
N45    N     0.51804   0.36176   0.82293   0.00000  Uiso   1.00
N46    N     0.43436   0.98458   0.74656   0.00000  Uiso   1.00
C47    C     0.02359   0.11890   0.66320   0.00000  Uiso   1.00
C48    C     0.03803   0.12145   0.59844   0.00000  Uiso   1.00
C49    C     0.10247   0.17144   0.55051   0.00000  Uiso   1.00
C50    C     0.10481   0.16463   0.49477   0.00000  Uiso   1.00
C51    C     0.13634   0.17696   0.39535   0.00000  Uiso   1.00
C52    C     0.93547   0.11691   0.67822   0.00000  Uiso   1.00
C53    C     0.91368   0.16307   0.69737   0.00000  Uiso   1.00
C54    C     0.82969   0.15242   0.70881   0.00000  Uiso   1.00
C55    C     0.70199   0.15766   0.73329   0.00000  Uiso   1.00
C56    C     0.02159   0.04913   0.70350   0.00000  Uiso   1.00
C57    C     0.07219   0.03831   0.74392   0.00000  Uiso   1.00
C58    C     0.06068   0.97060   0.77665   0.00000  Uiso   1.00
C59    C     0.06669   0.87061   0.84039   0.00000  Uiso   1.00
C60    C     0.91317   0.01791   0.64946   0.00000  Uiso   1.00
C61    C     0.97805   0.06660   0.59098   0.00000  Uiso   1.00
C62    C     0.98031   0.05971   0.53531   0.00000  Uiso   1.00
C63    C     0.04474   0.10968   0.48729   0.00000  Uiso   1.00
C64    C     0.87550   0.06205   0.67076   0.00000  Uiso   1.00
C65    C     0.79152   0.05133   0.68217   0.00000  Uiso   1.00
C66    C     0.76961   0.09747   0.70133   0.00000  Uiso   1.00
C67    C     0.96161   0.99428   0.69604   0.00000  Uiso   1.00
C68    C     0.95003   0.92657   0.72872   0.00000  Uiso   1.00
C69    C     0.00060   0.91564   0.76918   0.00000  Uiso   1.00
H70    H     0.07027   0.16161   0.66901   0.00000  Uiso   1.00
H71    H     0.14886   0.21389   0.55630   0.00000  Uiso   1.00
H72    H     0.96010   0.20551   0.70315   0.00000  Uiso   1.00
H73    H     0.11859   0.08077   0.74969   0.00000  Uiso   1.00
H74    H     0.20953   0.24768   0.42804   0.00000  Uiso   1.00
H75    H     0.81152   0.23000   0.73771   0.00000  Uiso   1.00
H76    H     0.14571   0.96696   0.83584   0.00000  Uiso   1.00
H77    H     0.86648   0.97520   0.64365   0.00000  Uiso   1.00
H78    H     0.93389   0.01725   0.52954   0.00000  Uiso   1.00
H79    H     0.74513   0.00888   0.67640   0.00000  Uiso   1.00
H80    H     0.90361   0.88414   0.72293   0.00000  Uiso   1.00
H81    H     0.03504   0.08808   0.40633   0.00000  Uiso   1.00
H82    H     0.63703   0.07040   0.71600   0.00000  Uiso   1.00
H83    H     0.97123   0.80736   0.81413   0.00000  Uiso   1.00
O84    O     0.17029   0.19892   0.34258   0.00000  Uiso   1.00
O85    O     0.64812   0.17571   0.74886   0.00000  Uiso   1.00
O86    O     0.08657   0.83061   0.87760   0.00000  Uiso   1.00
N87    N     0.15922   0.20434   0.43859   0.00000  Uiso   1.00
N88    N     0.78711   0.18781   0.72810   0.00000  Uiso   1.00
N89    N     0.09954   0.94189   0.81986   0.00000  Uiso   1.00
N90    N     0.06533   0.11846   0.42691   0.00000  Uiso   1.00
N91    N     0.69322   0.10194   0.71642   0.00000  Uiso   1.00
N92    N     0.00565   0.85601   0.80818   0.00000  Uiso   1.00
C93    C     0.67491   0.69656   0.38226   0.00000  Uiso   1.00
C94    C     0.58167   0.65402   0.39926   0.00000  Uiso   1.00
C95    C     0.52551   0.66427   0.36348   0.00000  Uiso   1.00
C96    C     0.44284   0.61985   0.38718   0.00000  Uiso   1.00
C97    C     0.30193   0.56185   0.40485   0.00000  Uiso   1.00
C98    C     0.69291   0.72327   0.43272   0.00000  Uiso   1.00
C99    C     0.73029   0.79176   0.42507   0.00000  Uiso   1.00
C100   C     0.74128   0.80562   0.47693   0.00000  Uiso   1.00
C101   C     0.77313   0.85514   0.54653   0.00000  Uiso   1.00
C102   C     0.71797   0.64581   0.38726   0.00000  Uiso   1.00
C103   C     0.77645   0.64917   0.34140   0.00000  Uiso   1.00
C104   C     0.80855   0.59782   0.35499   0.00000  Uiso   1.00
C105   C     0.87931   0.52706   0.35402   0.00000  Uiso   1.00
C106   C     0.62795   0.59941   0.48797   0.00000  Uiso   1.00
C107   C     0.55617   0.60126   0.45667   0.00000  Uiso   1.00
C108   C     0.47356   0.55680   0.48043   0.00000  Uiso   1.00
C109   C     0.41729   0.56698   0.44469   0.00000  Uiso   1.00
C110   C     0.66741   0.67051   0.49013   0.00000  Uiso   1.00
C111   C     0.67834   0.68428   0.54201   0.00000  Uiso   1.00
C112   C     0.71573   0.75277   0.53445   0.00000  Uiso   1.00
C113   C     0.69247   0.59304   0.44467   0.00000  Uiso   1.00
C114   C     0.72449   0.54169   0.45834   0.00000  Uiso   1.00
C115   C     0.78300   0.54496   0.41251   0.00000  Uiso   1.00
H116   H     0.69477   0.73764   0.33757   0.00000  Uiso   1.00
H117   H     0.54527   0.70512   0.31906   0.00000  Uiso   1.00
H118   H     0.75003   0.83258   0.38063   0.00000  Uiso   1.00
H119   H     0.79617   0.69000   0.29697   0.00000  Uiso   1.00
H120   H     0.36828   0.64581   0.32386   0.00000  Uiso   1.00
H121   H     0.80004   0.91456   0.45369   0.00000  Uiso   1.00
H122   H     0.89734   0.61393   0.27728   0.00000  Uiso   1.00
H123   H     0.60810   0.55833   0.53267   0.00000  Uiso   1.00
H124   H     0.45384   0.51597   0.52486   0.00000  Uiso   1.00
H125   H     0.65860   0.64344   0.58644   0.00000  Uiso   1.00
H126   H     0.70474   0.50086   0.50278   0.00000  Uiso   1.00
H127   H     0.29407   0.49230   0.49090   0.00000  Uiso   1.00
H128   H     0.72584   0.76105   0.62073   0.00000  Uiso   1.00
H129   H     0.82313   0.46041   0.44432   0.00000  Uiso   1.00
O130   O     0.23126   0.54444   0.39873   0.00000  Uiso   1.00
O131   O     0.79773   0.89703   0.56906   0.00000  Uiso   1.00
O132   O     0.92538   0.50260   0.33762   0.00000  Uiso   1.00
N133   N     0.37198   0.61549   0.36424   0.00000  Uiso   1.00
N134   N     0.77565   0.86676   0.48563   0.00000  Uiso   1.00
N135   N     0.86663   0.58569   0.32070   0.00000  Uiso   1.00
N136   N     0.33205   0.53288   0.45412   0.00000  Uiso   1.00
N137   N     0.73572   0.78415   0.57551   0.00000  Uiso   1.00
N138   N     0.82670   0.50309   0.41058   0.00000  Uiso   1.00
C139   C     0.59908   0.17970   0.35242   0.00000  Uiso   1.00
C140   C     0.57344   0.13196   0.41901   0.00000  Uiso   1.00
C141   C     0.62103   0.13682   0.46174   0.00000  Uiso   1.00
C142   C     0.58646   0.08821   0.52030   0.00000  Uiso   1.00
C143   C     0.55869   0.02195   0.62139   0.00000  Uiso   1.00
C144   C     0.53102   0.20838   0.34121   0.00000  Uiso   1.00
C145   C     0.54295   0.27749   0.31852   0.00000  Uiso   1.00
C146   C     0.47268   0.29320   0.31157   0.00000  Uiso   1.00
C147   C     0.37906   0.34558   0.29184   0.00000  Uiso   1.00
C148   C     0.59274   0.13368   0.31621   0.00000  Uiso   1.00
C149   C     0.65655   0.13998   0.27249   0.00000  Uiso   1.00
C150   C     0.63823   0.09281   0.24449   0.00000  Uiso   1.00
C151   C     0.64043   0.02920   0.18595   0.00000  Uiso   1.00
C152   C     0.45307   0.08473   0.38041   0.00000  Uiso   1.00
C153   C     0.49413   0.08038   0.43421   0.00000  Uiso   1.00
C154   C     0.45948   0.03174   0.49272   0.00000  Uiso   1.00
C155   C     0.50702   0.03653   0.53553   0.00000  Uiso   1.00
C156   C     0.45171   0.15680   0.35641   0.00000  Uiso   1.00
C157   C     0.38141   0.17241   0.34949   0.00000  Uiso   1.00
C158   C     0.39323   0.24152   0.32680   0.00000  Uiso   1.00
C159   C     0.51343   0.08209   0.33142   0.00000  Uiso   1.00
C160   C     0.49501   0.03490   0.30347   0.00000  Uiso   1.00
C161   C     0.55878   0.04113   0.25972   0.00000  Uiso   1.00
H162   H     0.66082   0.21986   0.34058   0.00000  Uiso   1.00
H163   H     0.68240   0.17675   0.44996   0.00000  Uiso   1.00
H164   H     0.60433   0.31739   0.30675   0.00000  Uiso   1.00
H165   H     0.71791   0.17991   0.26074   0.00000  Uiso   1.00
H166   H     0.67132   0.10622   0.57794   0.00000  Uiso   1.00
H167   H     0.50672   0.40277   0.27596   0.00000  Uiso   1.00
H168   H     0.74624   0.11286   0.17893   0.00000  Uiso   1.00
H169   H     0.39133   0.04457   0.39225   0.00000  Uiso   1.00
H170   H     0.39811   0.99183   0.50447   0.00000  Uiso   1.00
H171   H     0.32005   0.13248   0.36126   0.00000  Uiso   1.00
H172   H     0.43363   0.99499   0.31525   0.00000  Uiso   1.00
H173   H     0.44059   0.95614   0.62219   0.00000  Uiso   1.00
H174   H     0.27599   0.25269   0.32020   0.00000  Uiso   1.00
H175   H     0.51550   0.96277   0.22318   0.00000  Uiso   1.00
O176   O     0.56527   0.99967   0.67296   0.00000  Uiso   1.00
O177   O     0.34933   0.38873   0.27676   0.00000  Uiso   1.00
O178   O     0.66356   0.00836   0.14947   0.00000  Uiso   1.00
N179   N     0.61610   0.07813   0.57295   0.00000  Uiso   1.00
N180   N     0.46220   0.35539   0.29063   0.00000  Uiso   1.00
N181   N     0.68612   0.08435   0.19990   0.00000  Uiso   1.00
N182   N     0.49194   0.99737   0.59676   0.00000  Uiso   1.00
N183   N     0.33805   0.27463   0.31443   0.00000  Uiso   1.00
N184   N     0.56196   0.00359   0.22371   0.00000  Uiso   1.00
C185   C     0.14963   0.55936   0.77756   0.00000  Uiso   1.00
C186   C     0.06942   0.51397   0.76789   0.00000  Uiso   1.00
C187   C     0.00603   0.45852   0.81294   0.00000  Uiso   1.00
C188   C     0.93774   0.42355   0.79483   0.00000  Uiso   1.00
C189   C     0.81389   0.35006   0.78910   0.00000  Uiso   1.00
C190   C     0.15293   0.63271   0.75062   0.00000  Uiso   1.00
C191   C     0.15977   0.67710   0.78115   0.00000  Uiso   1.00
C192   C     0.16179   0.74209   0.74850   0.00000  Uiso   1.00
C193   C     0.16766   0.85297   0.71594   0.00000  Uiso   1.00
C194   C     0.22067   0.55643   0.73724   0.00000  Uiso   1.00
C195   C     0.28447   0.53670   0.75651   0.00000  Uiso   1.00
C196   C     0.34353   0.53747   0.71259   0.00000  Uiso   1.00
C197   C     0.45456   0.52991   0.65925   0.00000  Uiso   1.00
C198   C     0.14109   0.59585   0.66531   0.00000  Uiso   1.00
C199   C     0.06479   0.53378   0.70692   0.00000  Uiso   1.00
C200   C     0.99658   0.49888   0.68874   0.00000  Uiso   1.00
C201   C     0.93310   0.44340   0.73375   0.00000  Uiso   1.00
C202   C     0.14830   0.65252   0.68965   0.00000  Uiso   1.00
C203   C     0.15032   0.71746   0.65695   0.00000  Uiso   1.00
C204   C     0.15715   0.76194   0.68742   0.00000  Uiso   1.00
C205   C     0.21603   0.57624   0.67627   0.00000  Uiso   1.00
C206   C     0.27502   0.57705   0.63231   0.00000  Uiso   1.00
C207   C     0.33889   0.55733   0.65150   0.00000  Uiso   1.00
H208   H     0.15324   0.54394   0.82503   0.00000  Uiso   1.00
H209   H     0.00964   0.44321   0.86012   0.00000  Uiso   1.00
H210   H     0.16336   0.66176   0.82833   0.00000  Uiso   1.00
H211   H     0.28803   0.52137   0.80369   0.00000  Uiso   1.00
H212   H     0.84837   0.34028   0.87213   0.00000  Uiso   1.00
H213   H     0.17253   0.80111   0.80510   0.00000  Uiso   1.00
H214   H     0.43544   0.50507   0.75315   0.00000  Uiso   1.00
H215   H     0.13748   0.61128   0.61783   0.00000  Uiso   1.00
H216   H     0.99301   0.51423   0.64155   0.00000  Uiso   1.00
H217   H     0.14674   0.73278   0.60977   0.00000  Uiso   1.00
H218   H     0.27141   0.59239   0.58513   0.00000  Uiso   1.00
H219   H     0.83487   0.39793   0.69474   0.00000  Uiso   1.00
H220   H     0.15904   0.85875   0.62771   0.00000  Uiso   1.00
H221   H     0.42194   0.56272   0.57575   0.00000  Uiso   1.00
O222   O     0.74685   0.30406   0.80278   0.00000  Uiso   1.00
O223   O     0.17217   0.90865   0.71484   0.00000  Uiso   1.00
O224   O     0.51708   0.52026   0.64668   0.00000  Uiso   1.00
N225   N     0.86502   0.36715   0.82713   0.00000  Uiso   1.00
N226   N     0.16809   0.79800   0.76446   0.00000  Uiso   1.00
N227   N     0.41389   0.52125   0.71589   0.00000  Uiso   1.00
N228   N     0.85776   0.39817   0.73167   0.00000  Uiso   1.00
N229   N     0.16083   0.82902   0.66900   0.00000  Uiso   1.00
N230   N     0.40663   0.55227   0.62043   0.00000  Uiso   1.00
C231   C     0.24945   0.47672   0.03966   0.00000  Uiso   1.00
C232   C     0.33487   0.47595   0.01970   0.00000  Uiso   1.00
C233   C     0.37031   0.48454   0.96174   0.00000  Uiso   1.00
C234   C     0.44906   0.48217   0.95264   0.00000  Uiso   1.00
C235   C     0.57536   0.48263   0.91445   0.00000  Uiso   1.00
C236   C     0.26442   0.53226   0.06625   0.00000  Uiso   1.00
C237   C     0.24062   0.58819   0.04743   0.00000  Uiso   1.00
C238   C     0.26005   0.63322   0.07753   0.00000  Uiso   1.00
C239   C     0.27693   0.72106   0.11163   0.00000  Uiso   1.00
C240   C     0.20170   0.40861   0.09261   0.00000  Uiso   1.00
C241   C     0.12515   0.36057   0.09597   0.00000  Uiso   1.00
C242   C     0.09176   0.30151   0.14827   0.00000  Uiso   1.00
C243   C     0.01125   0.19736   0.22331   0.00000  Uiso   1.00
C244   C     0.32626   0.45725   0.12658   0.00000  Uiso   1.00
C245   C     0.37659   0.46538   0.06690   0.00000  Uiso   1.00
C246   C     0.45530   0.46300   0.05789   0.00000  Uiso   1.00
C247   C     0.49085   0.47158   0.99993   0.00000  Uiso   1.00
C248   C     0.30614   0.52169   0.11345   0.00000  Uiso   1.00
C249   C     0.32561   0.56664   0.14359   0.00000  Uiso   1.00
C250   C     0.30184   0.62262   0.12482   0.00000  Uiso   1.00
C251   C     0.24342   0.39803   0.13982   0.00000  Uiso   1.00
C252   C     0.21014   0.33903   0.19212   0.00000  Uiso   1.00
C253   C     0.13356   0.29091   0.19556   0.00000  Uiso   1.00
H254   H     0.21697   0.48496   0.00291   0.00000  Uiso   1.00
H255   H     0.33801   0.49273   0.92522   0.00000  Uiso   1.00
H256   H     0.20833   0.59635   0.01090   0.00000  Uiso   1.00
H257   H     0.09288   0.36878   0.05943   0.00000  Uiso   1.00
H258   H     0.49062   0.49671   0.85989   0.00000  Uiso   1.00
H259   H     0.21715   0.71519   0.04057   0.00000  Uiso   1.00
H260   H     0.97371   0.23530   0.14290   0.00000  Uiso   1.00
H261   H     0.35875   0.44902   0.16333   0.00000  Uiso   1.00
H262   H     0.48757   0.45481   0.09443   0.00000  Uiso   1.00
H263   H     0.35789   0.55844   0.18012   0.00000  Uiso   1.00
H264   H     0.24244   0.33086   0.22864   0.00000  Uiso   1.00
H265   H     0.61201   0.46594   0.99723   0.00000  Uiso   1.00
H266   H     0.33854   0.68442   0.17792   0.00000  Uiso   1.00
H267   H     0.09510   0.20453   0.28025   0.00000  Uiso   1.00
O268   O     0.63351   0.48581   0.88034   0.00000  Uiso   1.00
O269   O     0.27472   0.77244   0.11740   0.00000  Uiso   1.00
O270   O     0.95533   0.14284   0.25165   0.00000  Uiso   1.00
N271   N     0.50150   0.48865   0.90167   0.00000  Uiso   1.00
N272   N     0.24584   0.69293   0.07059   0.00000  Uiso   1.00
N273   N     0.01823   0.24428   0.16627   0.00000  Uiso   1.00
N274   N     0.56682   0.47210   0.97557   0.00000  Uiso   1.00
N275   N     0.31116   0.67637   0.14449   0.00000  Uiso   1.00
N276   N     0.08355   0.22773   0.24017   0.00000  Uiso   1.00
C277   C     0.71197   0.83227   0.17176   0.00000  Uiso   1.00
C278   C     0.67726   0.86105   0.11758   0.00000  Uiso   1.00
C279   C     0.72395   0.90510   0.05969   0.00000  Uiso   1.00
C280   C     0.68050   0.92560   0.01638   0.00000  Uiso   1.00
C281   C     0.63984   0.97373   0.93010   0.00000  Uiso   1.00
C282   C     0.66958   0.75430   0.19413   0.00000  Uiso   1.00
C283   C     0.70983   0.70860   0.20061   0.00000  Uiso   1.00
C284   C     0.65991   0.63924   0.22176   0.00000  Uiso   1.00
C285   C     0.60733   0.52164   0.25437   0.00000  Uiso   1.00
C286   C     0.67928   0.85271   0.22142   0.00000  Uiso   1.00
C287   C     0.72769   0.88974   0.25085   0.00000  Uiso   1.00
C288   C     0.68594   0.90322   0.29498   0.00000  Uiso   1.00
C289   C     0.64842   0.93842   0.36994   0.00000  Uiso   1.00
C290   C     0.55176   0.79034   0.19781   0.00000  Uiso   1.00
C291   C     0.59024   0.83828   0.13173   0.00000  Uiso   1.00
C292   C     0.54670   0.85872   0.08850   0.00000  Uiso   1.00
C293   C     0.59333   0.90279   0.03056   0.00000  Uiso   1.00
C294   C     0.58256   0.73153   0.20828   0.00000  Uiso   1.00
C295   C     0.53257   0.66222   0.22943   0.00000  Uiso   1.00
C296   C     0.57273   0.61643   0.23593   0.00000  Uiso   1.00
C297   C     0.59226   0.82994   0.23556   0.00000  Uiso   1.00
C298   C     0.55043   0.84336   0.27966   0.00000  Uiso   1.00
C299   C     0.59876   0.88041   0.30915   0.00000  Uiso   1.00
H300   H     0.77972   0.84999   0.16075   0.00000  Uiso   1.00
H301   H     0.79130   0.92271   0.04876   0.00000  Uiso   1.00
H302   H     0.77717   0.72624   0.18967   0.00000  Uiso   1.00
H303   H     0.79502   0.90736   0.23989   0.00000  Uiso   1.00
H304   H     0.76576   0.99327   0.93083   0.00000  Uiso   1.00
H305   H     0.73597   0.57900   0.22796   0.00000  Uiso   1.00
H306   H     0.77362   0.96091   0.33387   0.00000  Uiso   1.00
H307   H     0.48401   0.77261   0.20882   0.00000  Uiso   1.00
H308   H     0.47936   0.84109   0.09946   0.00000  Uiso   1.00
H309   H     0.46524   0.64462   0.24037   0.00000  Uiso   1.00
H310   H     0.48309   0.82573   0.29059   0.00000  Uiso   1.00
H311   H     0.51258   0.92702   0.97198   0.00000  Uiso   1.00
H312   H     0.48279   0.51275   0.26912   0.00000  Uiso   1.00
H313   H     0.52044   0.89466   0.37502   0.00000  Uiso   1.00
O314   O     0.64145   0.00656   0.87859   0.00000  Uiso   1.00
O315   O     0.60236   0.46307   0.26843   0.00000  Uiso   1.00
O316   O     0.65176   0.96413   0.40737   0.00000  Uiso   1.00
N317   N     0.70681   0.96829   0.95552   0.00000  Uiso   1.00
N318   N     0.67896   0.58098   0.23332   0.00000  Uiso   1.00
N319   N     0.71416   0.93802   0.33234   0.00000  Uiso   1.00
N320   N     0.57058   0.93264   0.97767   0.00000  Uiso   1.00
N321   N     0.54273   0.54533   0.25546   0.00000  Uiso   1.00
N322   N     0.57793   0.90237   0.35449   0.00000  Uiso   1.00
C323   C     0.01003   0.82636   0.33923   0.00000  Uiso   1.00
C324   C     0.01508   0.83909   0.39792   0.00000  Uiso   1.00
C325   C     0.95549   0.80260   0.45207   0.00000  Uiso   1.00
C326   C     0.97173   0.82215   0.50058   0.00000  Uiso   1.00
C327   C     0.96846   0.83366   0.59256   0.00000  Uiso   1.00
C328   C     0.08837   0.81380   0.32176   0.00000  Uiso   1.00
C329   C     0.09040   0.75605   0.31185   0.00000  Uiso   1.00
C330   C     0.16833   0.75432   0.29624   0.00000  Uiso   1.00
C331   C     0.27884   0.72660   0.26992   0.00000  Uiso   1.00
C332   C     0.01900   0.89446   0.29108   0.00000  Uiso   1.00
C333   C     0.96271   0.90453   0.25537   0.00000  Uiso   1.00
C334   C     0.98225   0.97071   0.21392   0.00000  Uiso   1.00
C335   C     0.98506   0.06822   0.13998   0.00000  Uiso   1.00
C336   C     0.14482   0.92599   0.32911   0.00000  Uiso   1.00
C337   C     0.08830   0.89320   0.39242   0.00000  Uiso   1.00
C338   C     0.10463   0.91282   0.44086   0.00000  Uiso   1.00
C339   C     0.04507   0.87636   0.49507   0.00000  Uiso   1.00
C340   C     0.16158   0.86791   0.31626   0.00000  Uiso   1.00
C341   C     0.23953   0.86627   0.30065   0.00000  Uiso   1.00
C342   C     0.24167   0.80853   0.29073   0.00000  Uiso   1.00
C343   C     0.09222   0.94857   0.28558   0.00000  Uiso   1.00
C344   C     0.11185   0.01475   0.24417   0.00000  Uiso   1.00
C345   C     0.05560   0.02492   0.20841   0.00000  Uiso   1.00
H346   H     0.95303   0.78423   0.34352   0.00000  Uiso   1.00
H347   H     0.89885   0.76072   0.45631   0.00000  Uiso   1.00
H348   H     0.03373   0.71419   0.31611   0.00000  Uiso   1.00
H349   H     0.90606   0.86264   0.25964   0.00000  Uiso   1.00
H350   H     0.87108   0.75849   0.57894   0.00000  Uiso   1.00
H351   H     0.15548   0.66039   0.28330   0.00000  Uiso   1.00
H352   H     0.88628   0.97344   0.16423   0.00000  Uiso   1.00
H353   H     0.20183   0.96811   0.32482   0.00000  Uiso   1.00
H354   H     0.16129   0.95469   0.43659   0.00000  Uiso   1.00
H355   H     0.29617   0.90816   0.29639   0.00000  Uiso   1.00
H356   H     0.16851   0.05661   0.23993   0.00000  Uiso   1.00
H357   H     0.08409   0.91593   0.56294   0.00000  Uiso   1.00
H358   H     0.36849   0.81782   0.26730   0.00000  Uiso   1.00
H359   H     0.09929   0.13087   0.14823   0.00000  Uiso   1.00
O360   O     0.94644   0.82505   0.64481   0.00000  Uiso   1.00
O361   O     0.31957   0.69635   0.25693   0.00000  Uiso   1.00
O362   O     0.96638   0.10705   0.10072   0.00000  Uiso   1.00
N363   N     0.92676   0.79740   0.55983   0.00000  Uiso   1.00
N364   N     0.19266   0.70567   0.28344   0.00000  Uiso   1.00
N365   N     0.94099   0.99834   0.17211   0.00000  Uiso   1.00
N366   N     0.04138   0.88211   0.55122   0.00000  Uiso   1.00
N367   N     0.30728   0.79039   0.27483   0.00000  Uiso   1.00
N368   N     0.05561   0.08305   0.16350   0.00000  Uiso   1.00
C369   C     0.34761   0.20630   0.70297   0.00000  Uiso   1.00
C370   C     0.43899   0.25364   0.67712   0.00000  Uiso   1.00
C371   C     0.50383   0.25016   0.70573   0.00000  Uiso   1.00
C372   C     0.58301   0.29812   0.67453   0.00000  Uiso   1.00
C373   C     0.72282   0.36405   0.64317   0.00000  Uiso   1.00
C374   C     0.32144   0.17484   0.65655   0.00000  Uiso   1.00
C375   C     0.28743   0.10510   0.66787   0.00000  Uiso   1.00
C376   C     0.26765   0.08672   0.61935   0.00000  Uiso   1.00
C377   C     0.22489   0.03031   0.55606   0.00000  Uiso   1.00
C378   C     0.29976   0.25303   0.70239   0.00000  Uiso   1.00
C379   C     0.24749   0.24903   0.75225   0.00000  Uiso   1.00
C380   C     0.20944   0.29648   0.74232   0.00000  Uiso   1.00
C381   C     0.13303   0.36148   0.75021   0.00000  Uiso   1.00
C382   C     0.37294   0.29766   0.59668   0.00000  Uiso   1.00
C383   C     0.45275   0.30326   0.61939   0.00000  Uiso   1.00
C384   C     0.53186   0.35124   0.58814   0.00000  Uiso   1.00
C385   C     0.59680   0.34783   0.61670   0.00000  Uiso   1.00
C386   C     0.33520   0.22445   0.59882   0.00000  Uiso   1.00
C387   C     0.31546   0.20618   0.55027   0.00000  Uiso   1.00
C388   C     0.28143   0.13644   0.56151   0.00000  Uiso   1.00
C389   C     0.31352   0.30265   0.64466   0.00000  Uiso   1.00
C390   C     0.27553   0.35011   0.63465   0.00000  Uiso   1.00
C391   C     0.22323   0.34619   0.68448   0.00000  Uiso   1.00
H392   H     0.33689   0.16767   0.74791   0.00000  Uiso   1.00
H393   H     0.49315   0.21175   0.75041   0.00000  Uiso   1.00
H394   H     0.27678   0.06671   0.71255   0.00000  Uiso   1.00
H395   H     0.23686   0.21063   0.79692   0.00000  Uiso   1.00
H396   H     0.67247   0.28248   0.72770   0.00000  Uiso   1.00
H397   H     0.21621   0.97667   0.64789   0.00000  Uiso   1.00
H398   H     0.13203   0.28014   0.82579   0.00000  Uiso   1.00
H399   H     0.38365   0.33629   0.55173   0.00000  Uiso   1.00
H400   H     0.54249   0.38963   0.54346   0.00000  Uiso   1.00
H401   H     0.32611   0.24459   0.50560   0.00000  Uiso   1.00
H402   H     0.28619   0.38851   0.58997   0.00000  Uiso   1.00
H403   H     0.71251   0.42686   0.55974   0.00000  Uiso   1.00
H404   H     0.25624   0.12105   0.47992   0.00000  Uiso   1.00
H405   H     0.17207   0.42452   0.65782   0.00000  Uiso   1.00
O406   O     0.79613   0.38670   0.64181   0.00000  Uiso   1.00
O407   O     0.19752   0.98549   0.53710   0.00000  Uiso   1.00
O408   O     0.08708   0.38363   0.77050   0.00000  Uiso   1.00
N409   N     0.66009   0.30915   0.68931   0.00000  Uiso   1.00
N410   N     0.23353   0.02324   0.61469   0.00000  Uiso   1.00
N411   N     0.15481   0.30694   0.78101   0.00000  Uiso   1.00
N412   N     0.68164   0.38684   0.59893   0.00000  Uiso   1.00
N413   N     0.25507   0.10092   0.52431   0.00000  Uiso   1.00
N414   N     0.17635   0.38463   0.69063   0.00000  Uiso   1.00
C415   C     0.49843   0.72280   0.74189   0.00000  Uiso   1.00
C416   C     0.50042   0.76397   0.67659   0.00000  Uiso   1.00
C417   C     0.44295   0.74367   0.64355   0.00000  Uiso   1.00
C418   C     0.45573   0.78862   0.58447   0.00000  Uiso   1.00
C419   C     0.44853   0.84295   0.48688   0.00000  Uiso   1.00
C420   C     0.58200   0.71446   0.74070   0.00000  Uiso   1.00
C421   C     0.59311   0.65253   0.76157   0.00000  Uiso   1.00
C422   C     0.67457   0.65581   0.75646   0.00000  Uiso   1.00
C423   C     0.79402   0.63328   0.75845   0.00000  Uiso   1.00
C424   C     0.49845   0.76941   0.77675   0.00000  Uiso   1.00
C425   C     0.43933   0.75368   0.82794   0.00000  Uiso   1.00
C426   C     0.45045   0.80322   0.85320   0.00000  Uiso   1.00
C427   C     0.44018   0.86601   0.91115   0.00000  Uiso   1.00
C428   C     0.62333   0.83874   0.69574   0.00000  Uiso   1.00
C429   C     0.56827   0.82694   0.65152   0.00000  Uiso   1.00
C430   C     0.58113   0.87194   0.59248   0.00000  Uiso   1.00
C431   C     0.52369   0.85171   0.55936   0.00000  Uiso   1.00
C432   C     0.64984   0.77743   0.71563   0.00000  Uiso   1.00
C433   C     0.73130   0.78081   0.71050   0.00000  Uiso   1.00
C434   C     0.74253   0.71890   0.73135   0.00000  Uiso   1.00
C435   C     0.56629   0.83239   0.75168   0.00000  Uiso   1.00
C436   C     0.57751   0.88196   0.77687   0.00000  Uiso   1.00
C437   C     0.51841   0.86630   0.82809   0.00000  Uiso   1.00
H438   H     0.44561   0.67377   0.76141   0.00000  Uiso   1.00
H439   H     0.39046   0.69492   0.66297   0.00000  Uiso   1.00
H440   H     0.54060   0.60381   0.78097   0.00000  Uiso   1.00
H441   H     0.38684   0.70494   0.84733   0.00000  Uiso   1.00
H442   H     0.35924   0.74614   0.54276   0.00000  Uiso   1.00
H443   H     0.67583   0.55401   0.79160   0.00000  Uiso   1.00
H444   H     0.35159   0.76727   0.93153   0.00000  Uiso   1.00
H445   H     0.67615   0.88777   0.67622   0.00000  Uiso   1.00
H446   H     0.63364   0.92067   0.57310   0.00000  Uiso   1.00
H447   H     0.78378   0.82955   0.69110   0.00000  Uiso   1.00
H448   H     0.63002   0.93068   0.75746   0.00000  Uiso   1.00
H449   H     0.55662   0.92936   0.46981   0.00000  Uiso   1.00
H450   H     0.87321   0.73723   0.71866   0.00000  Uiso   1.00
H451   H     0.54896   0.95050   0.85859   0.00000  Uiso   1.00
O452   O     0.42583   0.85552   0.43998   0.00000  Uiso   1.00
O453   O     0.84117   0.60346   0.76646   0.00000  Uiso   1.00
O454   O     0.41577   0.88325   0.95004   0.00000  Uiso   1.00
N455   N     0.41152   0.78475   0.53975   0.00000  Uiso   1.00
N456   N     0.70751   0.60512   0.77239   0.00000  Uiso   1.00
N457   N     0.40438   0.80450   0.90322   0.00000  Uiso   1.00
N458   N     0.51773   0.88334   0.50050   0.00000  Uiso   1.00
N459   N     0.81372   0.70371   0.73314   0.00000  Uiso   1.00
N460   N     0.51059   0.90309   0.86397   0.00000  Uiso   1.00
C461   C     0.88077   0.31506   0.40687   0.00000  Uiso   1.00
C462   C     0.92984   0.33432   0.45201   0.00000  Uiso   1.00
C463   C     0.00599   0.38821   0.43743   0.00000  Uiso   1.00
C464   C     0.04077   0.39735   0.48529   0.00000  Uiso   1.00
C465   C     0.12307   0.43382   0.54622   0.00000  Uiso   1.00
C466   C     0.86688   0.24005   0.41936   0.00000  Uiso   1.00
C467   C     0.89010   0.21469   0.37733   0.00000  Uiso   1.00
C468   C     0.87186   0.14448   0.39770   0.00000  Uiso   1.00
C469   C     0.85637   0.03458   0.40793   0.00000  Uiso   1.00
C470   C     0.79511   0.31625   0.42523   0.00000  Uiso   1.00
C471   C     0.75796   0.35493   0.38813   0.00000  Uiso   1.00
C472   C     0.67929   0.34885   0.41344   0.00000  Uiso   1.00
C473   C     0.55235   0.35726   0.43279   0.00000  Uiso   1.00
C474   C     0.80711   0.23546   0.51778   0.00000  Uiso   1.00
C475   C     0.88983   0.29108   0.51226   0.00000  Uiso   1.00
C476   C     0.92450   0.30015   0.56015   0.00000  Uiso   1.00
C477   C     0.00069   0.35404   0.54564   0.00000  Uiso   1.00
C478   C     0.82688   0.19682   0.47961   0.00000  Uiso   1.00
C479   C     0.80860   0.12662   0.50004   0.00000  Uiso   1.00
C480   C     0.83178   0.10116   0.45805   0.00000  Uiso   1.00
C481   C     0.75510   0.27301   0.48548   0.00000  Uiso   1.00
C482   C     0.67647   0.26687   0.51085   0.00000  Uiso   1.00
C483   C     0.63921   0.30554   0.47380   0.00000  Uiso   1.00
H484   H     0.91192   0.34871   0.35996   0.00000  Uiso   1.00
H485   H     0.03694   0.42166   0.39080   0.00000  Uiso   1.00
H486   H     0.92105   0.24816   0.33071   0.00000  Uiso   1.00
H487   H     0.78894   0.38838   0.34152   0.00000  Uiso   1.00
H488   H     0.15792   0.48345   0.45156   0.00000  Uiso   1.00
H489   H     0.91354   0.11762   0.32485   0.00000  Uiso   1.00
H490   H     0.63495   0.41330   0.34763   0.00000  Uiso   1.00
H491   H     0.77596   0.20179   0.56469   0.00000  Uiso   1.00
H492   H     0.89352   0.26668   0.60676   0.00000  Uiso   1.00
H493   H     0.77763   0.09318   0.54667   0.00000  Uiso   1.00
H494   H     0.64552   0.23340   0.55747   0.00000  Uiso   1.00
H495   H     0.04152   0.35766   0.62684   0.00000  Uiso   1.00
H496   H     0.79713   0.99182   0.50012   0.00000  Uiso   1.00
H497   H     0.51855   0.28751   0.52291   0.00000  Uiso   1.00
O498   O     0.17952   0.46587   0.56319   0.00000  Uiso   1.00
O499   O     0.85889   0.98592   0.39693   0.00000  Uiso   1.00
O500   O     0.49339   0.37385   0.42682   0.00000  Uiso   1.00
N501   N     0.11438   0.44495   0.48704   0.00000  Uiso   1.00
N502   N     0.88591   0.10292   0.36857   0.00000  Uiso   1.00
N503   N     0.62545   0.37934   0.38986   0.00000  Uiso   1.00
N504   N     0.05175   0.37726   0.58136   0.00000  Uiso   1.00
N505   N     0.82328   0.03523   0.46289   0.00000  Uiso   1.00
N506   N     0.56281   0.31166   0.48418   0.00000  Uiso   1.00
C507   C     0.75134   0.28621   0.06205   0.00000  Uiso   1.00
C508   C     0.65687   0.26392   0.07744   0.00000  Uiso   1.00
C509   C     0.60736   0.24146   0.13484   0.00000  Uiso   1.00
C510   C     0.52222   0.22338   0.13947   0.00000  Uiso   1.00
C511   C     0.38075   0.18809   0.17113   0.00000  Uiso   1.00
C512   C     0.76917   0.24114   0.03022   0.00000  Uiso   1.00
C513   C     0.81408   0.19954   0.04792   0.00000  Uiso   1.00
C514   C     0.82348   0.16229   0.01279   0.00000  Uiso   1.00
C515   C     0.85640   0.09167   0.97111   0.00000  Uiso   1.00
C516   C     0.78470   0.35893   0.01415   0.00000  Uiso   1.00
C517   C     0.84270   0.41637   0.01834   0.00000  Uiso   1.00
C518   C     0.86519   0.47829   0.96967   0.00000  Uiso   1.00
C519   C     0.92223   0.59057   0.90306   0.00000  Uiso   1.00
C520   C     0.68818   0.29405   0.96817   0.00000  Uiso   1.00
C521   C     0.62257   0.26818   0.02645   0.00000  Uiso   1.00
C522   C     0.53748   0.25013   0.03099   0.00000  Uiso   1.00
C523   C     0.48785   0.22765   0.08839   0.00000  Uiso   1.00
C524   C     0.73486   0.24540   0.97923   0.00000  Uiso   1.00
C525   C     0.74420   0.20821   0.94406   0.00000  Uiso   1.00
C526   C     0.78911   0.16655   0.96171   0.00000  Uiso   1.00
C527   C     0.75040   0.36320   0.96317   0.00000  Uiso   1.00
C528   C     0.77281   0.42504   0.91448   0.00000  Uiso   1.00
C529   C     0.83082   0.48256   0.91859   0.00000  Uiso   1.00
H530   H     0.77805   0.28289   0.10174   0.00000  Uiso   1.00
H531   H     0.63393   0.23816   0.17429   0.00000  Uiso   1.00
H532   H     0.84062   0.19625   0.08737   0.00000  Uiso   1.00
H533   H     0.86923   0.41305   0.05780   0.00000  Uiso   1.00
H534   H     0.45901   0.19043   0.23225   0.00000  Uiso   1.00
H535   H     0.89486   0.10208   0.04897   0.00000  Uiso   1.00
H536   H     0.95519   0.55924   0.98660   0.00000  Uiso   1.00
H537   H     0.66148   0.29737   0.92848   0.00000  Uiso   1.00
H538   H     0.51095   0.25343   0.99152   0.00000  Uiso   1.00
H539   H     0.71765   0.21152   0.90461   0.00000  Uiso   1.00
H540   H     0.74626   0.42832   0.87503   0.00000  Uiso   1.00
H541   H     0.35920   0.20282   0.08391   0.00000  Uiso   1.00
H542   H     0.79506   0.11447   0.90062   0.00000  Uiso   1.00
H543   H     0.85538   0.57163   0.83826   0.00000  Uiso   1.00
O544   O     0.31219   0.16744   0.20268   0.00000  Uiso   1.00
O545   O     0.88402   0.05154   0.96222   0.00000  Uiso   1.00
O546   O     0.96316   0.65132   0.88040   0.00000  Uiso   1.00
N547   N     0.45618   0.19939   0.18868   0.00000  Uiso   1.00
N548   N     0.86367   0.11677   0.01733   0.00000  Uiso   1.00
N549   N     0.92008   0.54418   0.95902   0.00000  Uiso   1.00
N550   N     0.40247   0.20605   0.10886   0.00000  Uiso   1.00
N551   N     0.80996   0.12344   0.93751   0.00000  Uiso   1.00
N552   N     0.86637   0.55085   0.87920   0.00000  Uiso   1.00
