data_job_02277
_audit_creation_date              2018-12-19
_audit_creation_method            'Materials Studio'
_symmetry_space_group_name_H-M    'P1'
_symmetry_Int_Tables_number       1
_symmetry_cell_setting            triclinic
loop_
_symmetry_equiv_pos_as_xyz
  x,y,z
_cell_length_a                    11.1742
_cell_length_b                    12.1531
_cell_length_c                    12.5114
_cell_angle_alpha                 95.5949
_cell_angle_beta                  90.8516
_cell_angle_gamma                 86.2588
loop_
_atom_site_label
_atom_site_type_symbol
_atom_site_fract_x
_atom_site_fract_y
_atom_site_fract_z
_atom_site_U_iso_or_equiv
_atom_site_adp_type
_atom_site_occupancy
C1     C     0.80177   0.17816   0.58868   0.00000  Uiso   1.00
C2     C     0.73233   0.24899   0.51162   0.00000  Uiso   1.00
C3     C     0.68722   0.21123   0.41174   0.00000  Uiso   1.00
C4     C     0.62628   0.28911   0.35343   0.00000  Uiso   1.00
C5     C     0.52081   0.38214   0.22762   0.00000  Uiso   1.00
C6     C     0.92060   0.23138   0.61107   0.00000  Uiso   1.00
C7     C     0.03378   0.17879   0.59483   0.00000  Uiso   1.00
C8     C     0.13133   0.24185   0.62025   0.00000  Uiso   1.00
C9     C     0.31815   0.30750   0.64893   0.00000  Uiso   1.00
C10    C     0.73322   0.19491   0.69410   0.00000  Uiso   1.00
C11    C     0.68888   0.11166   0.74768   0.00000  Uiso   1.00
C12    C     0.62869   0.14401   0.84303   0.00000  Uiso   1.00
C13    C     0.52457   0.15304   0.00062   0.00000  Uiso   1.00
C14    C     0.77376   0.38363   0.66274   0.00000  Uiso   1.00
C15    C     0.71712   0.36060   0.55184   0.00000  Uiso   1.00
C16    C     0.65623   0.43856   0.49367   0.00000  Uiso   1.00
C17    C     0.61103   0.40092   0.39372   0.00000  Uiso   1.00
C18    C     0.90539   0.34298   0.65129   0.00000  Uiso   1.00
C19    C     0.00279   0.40612   0.67676   0.00000  Uiso   1.00
C20    C     0.11609   0.35365   0.66055   0.00000  Uiso   1.00
C21    C     0.71800   0.30651   0.73432   0.00000  Uiso   1.00
C22    C     0.65788   0.33900   0.82961   0.00000  Uiso   1.00
C23    C     0.61345   0.25582   0.88333   0.00000  Uiso   1.00
H24    H     0.81363   0.09127   0.55737   0.00000  Uiso   1.00
H25    H     0.69902   0.12485   0.38063   0.00000  Uiso   1.00
H26    H     0.04553   0.09242   0.56371   0.00000  Uiso   1.00
H27    H     0.70067   0.02531   0.71653   0.00000  Uiso   1.00
H28    H     0.56529   0.21132   0.20241   0.00000  Uiso   1.00
H29    H     0.29591   0.14292   0.58847   0.00000  Uiso   1.00
H30    H     0.56872   0.00139   0.91073   0.00000  Uiso   1.00
H31    H     0.76192   0.47052   0.69406   0.00000  Uiso   1.00
H32    H     0.64447   0.52492   0.52482   0.00000  Uiso   1.00
H33    H     0.99098   0.49249   0.70789   0.00000  Uiso   1.00
H34    H     0.64612   0.42537   0.86072   0.00000  Uiso   1.00
H35    H     0.52102   0.53603   0.31944   0.00000  Uiso   1.00
H36    H     0.25164   0.46763   0.70550   0.00000  Uiso   1.00
H37    H     0.52444   0.32610   0.02776   0.00000  Uiso   1.00
O38    O     0.46686   0.40262   0.14712   0.00000  Uiso   1.00
O39    O     0.42541   0.31288   0.65362   0.00000  Uiso   1.00
O40    O     0.47134   0.12720   0.07642   0.00000  Uiso   1.00
N41    N     0.57097   0.28027   0.25319   0.00000  Uiso   1.00
N42    N     0.25406   0.21632   0.61411   0.00000  Uiso   1.00
N43    N     0.57422   0.08400   0.91542   0.00000  Uiso   1.00
N44    N     0.54714   0.45499   0.31616   0.00000  Uiso   1.00
N45    N     0.23023   0.39105   0.67708   0.00000  Uiso   1.00
N46    N     0.55039   0.25873   0.97839   0.00000  Uiso   1.00
C47    C     0.19823   0.82184   0.41132   0.00000  Uiso   1.00
C48    C     0.26767   0.75101   0.48838   0.00000  Uiso   1.00
C49    C     0.31278   0.78877   0.58826   0.00000  Uiso   1.00
C50    C     0.37372   0.71089   0.64657   0.00000  Uiso   1.00
C51    C     0.47919   0.61786   0.77238   0.00000  Uiso   1.00
C52    C     0.07940   0.76862   0.38893   0.00000  Uiso   1.00
C53    C     0.96622   0.82121   0.40517   0.00000  Uiso   1.00
C54    C     0.86867   0.75815   0.37975   0.00000  Uiso   1.00
C55    C     0.68185   0.69250   0.35107   0.00000  Uiso   1.00
C56    C     0.26678   0.80509   0.30590   0.00000  Uiso   1.00
C57    C     0.31112   0.88834   0.25232   0.00000  Uiso   1.00
C58    C     0.37131   0.85599   0.15697   0.00000  Uiso   1.00
C59    C     0.47543   0.84696   0.99938   0.00000  Uiso   1.00
C60    C     0.22624   0.61637   0.33726   0.00000  Uiso   1.00
C61    C     0.28288   0.63940   0.44816   0.00000  Uiso   1.00
C62    C     0.34377   0.56144   0.50633   0.00000  Uiso   1.00
C63    C     0.38897   0.59908   0.60628   0.00000  Uiso   1.00
C64    C     0.09461   0.65702   0.34871   0.00000  Uiso   1.00
C65    C     0.99721   0.59388   0.32324   0.00000  Uiso   1.00
C66    C     0.88391   0.64635   0.33945   0.00000  Uiso   1.00
C67    C     0.28200   0.69349   0.26568   0.00000  Uiso   1.00
C68    C     0.34212   0.66100   0.17039   0.00000  Uiso   1.00
C69    C     0.38655   0.74418   0.11667   0.00000  Uiso   1.00
H70    H     0.18637   0.90873   0.44263   0.00000  Uiso   1.00
H71    H     0.30098   0.87515   0.61937   0.00000  Uiso   1.00
H72    H     0.95447   0.90758   0.43629   0.00000  Uiso   1.00
H73    H     0.29933   0.97469   0.28347   0.00000  Uiso   1.00
H74    H     0.43471   0.78868   0.79759   0.00000  Uiso   1.00
H75    H     0.70409   0.85708   0.41153   0.00000  Uiso   1.00
H76    H     0.43128   0.99861   0.08927   0.00000  Uiso   1.00
H77    H     0.23808   0.52948   0.30594   0.00000  Uiso   1.00
H78    H     0.35553   0.47508   0.47518   0.00000  Uiso   1.00
H79    H     0.00902   0.50751   0.29211   0.00000  Uiso   1.00
H80    H     0.35388   0.57463   0.13928   0.00000  Uiso   1.00
H81    H     0.47898   0.46397   0.68056   0.00000  Uiso   1.00
H82    H     0.74836   0.53237   0.29450   0.00000  Uiso   1.00
H83    H     0.47556   0.67390   0.97224   0.00000  Uiso   1.00
O84    O     0.53314   0.59738   0.85288   0.00000  Uiso   1.00
O85    O     0.57459   0.68712   0.34638   0.00000  Uiso   1.00
O86    O     0.52866   0.87280   0.92358   0.00000  Uiso   1.00
N87    N     0.42903   0.71973   0.74681   0.00000  Uiso   1.00
N88    N     0.74594   0.78368   0.38589   0.00000  Uiso   1.00
N89    N     0.42578   0.91600   0.08458   0.00000  Uiso   1.00
N90    N     0.45286   0.54501   0.68384   0.00000  Uiso   1.00
N91    N     0.76977   0.60895   0.32292   0.00000  Uiso   1.00
N92    N     0.44961   0.74127   0.02161   0.00000  Uiso   1.00
