data_job_06128
_audit_creation_date              2018-12-19
_audit_creation_method            'Materials Studio'
_symmetry_space_group_name_H-M    'P1'
_symmetry_Int_Tables_number       1
_symmetry_cell_setting            triclinic
loop_
_symmetry_equiv_pos_as_xyz
  x,y,z
_cell_length_a                    16.3675
_cell_length_b                    16.3671
_cell_length_c                    16.3667
_cell_angle_alpha                 90.6699
_cell_angle_beta                  90.6625
_cell_angle_gamma                 90.6549
loop_
_atom_site_label
_atom_site_type_symbol
_atom_site_fract_x
_atom_site_fract_y
_atom_site_fract_z
_atom_site_U_iso_or_equiv
_atom_site_adp_type
_atom_site_occupancy
C1     C     0.55923   0.20592   0.07380   0.00000  Uiso   1.00
C2     C     0.47295   0.16976   0.07117   0.00000  Uiso   1.00
C3     C     0.44755   0.09916   0.11008   0.00000  Uiso   1.00
C4     C     0.36608   0.07625   0.10015   0.00000  Uiso   1.00
C5     C     0.24033   0.01307   0.10320   0.00000  Uiso   1.00
C6     C     0.58558   0.21282   0.98506   0.00000  Uiso   1.00
C7     C     0.65491   0.17843   0.95158   0.00000  Uiso   1.00
C8     C     0.66825   0.19177   0.86916   0.00000  Uiso   1.00
C9     C     0.71742   0.19549   0.73855   0.00000  Uiso   1.00
C10    C     0.55094   0.29333   0.10565   0.00000  Uiso   1.00
C11    C     0.59115   0.32664   0.17355   0.00000  Uiso   1.00
C12    C     0.57535   0.40777   0.19265   0.00000  Uiso   1.00
C13    C     0.57073   0.53648   0.24927   0.00000  Uiso   1.00
C14    C     0.45969   0.29078   0.98696   0.00000  Uiso   1.00
C15    C     0.41888   0.21585   0.02400   0.00000  Uiso   1.00
C16    C     0.33742   0.19304   0.01401   0.00000  Uiso   1.00
C17    C     0.31191   0.12242   0.05290   0.00000  Uiso   1.00
C18    C     0.53152   0.25891   0.93789   0.00000  Uiso   1.00
C19    C     0.54477   0.27231   0.85550   0.00000  Uiso   1.00
C20    C     0.61409   0.23795   0.82191   0.00000  Uiso   1.00
C21    C     0.49688   0.33942   0.05849   0.00000  Uiso   1.00
C22    C     0.48101   0.42051   0.07748   0.00000  Uiso   1.00
C23    C     0.52119   0.45394   0.14539   0.00000  Uiso   1.00
H24    H     0.60133   0.17004   0.11052   0.00000  Uiso   1.00
H25    H     0.48942   0.06351   0.14657   0.00000  Uiso   1.00
H26    H     0.69674   0.14277   0.98810   0.00000  Uiso   1.00
H27    H     0.63299   0.29095   0.21004   0.00000  Uiso   1.00
H28    H     0.34150   0.96571   0.16572   0.00000  Uiso   1.00
H29    H     0.77867   0.13286   0.83158   0.00000  Uiso   1.00
H30    H     0.64425   0.44533   0.29958   0.00000  Uiso   1.00
H31    H     0.41759   0.32666   0.95024   0.00000  Uiso   1.00
H32    H     0.29559   0.22872   0.97750   0.00000  Uiso   1.00
H33    H     0.50292   0.30799   0.81902   0.00000  Uiso   1.00
H34    H     0.43917   0.45616   0.04096   0.00000  Uiso   1.00
H35    H     0.18419   0.09980   0.02849   0.00000  Uiso   1.00
H36    H     0.62136   0.26696   0.69435   0.00000  Uiso   1.00
H37    H     0.48694   0.57942   0.16235   0.00000  Uiso   1.00
O38    O     0.18592   0.96549   0.11791   0.00000  Uiso   1.00
O39    O     0.75947   0.18480   0.67953   0.00000  Uiso   1.00
O40    O     0.58311   0.59474   0.29354   0.00000  Uiso   1.00
N41    N     0.32122   0.01072   0.12970   0.00000  Uiso   1.00
N42    N     0.72994   0.16699   0.81729   0.00000  Uiso   1.00
N43    N     0.60428   0.45912   0.25482   0.00000  Uiso   1.00
N44    N     0.23657   0.08287   0.05586   0.00000  Uiso   1.00
N45    N     0.64529   0.23914   0.74345   0.00000  Uiso   1.00
N46    N     0.51963   0.53127   0.18097   0.00000  Uiso   1.00
C47    C     0.07385   0.55922   0.20584   0.00000  Uiso   1.00
C48    C     0.07123   0.47293   0.16967   0.00000  Uiso   1.00
C49    C     0.11014   0.44752   0.09906   0.00000  Uiso   1.00
C50    C     0.10021   0.36604   0.07614   0.00000  Uiso   1.00
C51    C     0.10328   0.24029   0.01294   0.00000  Uiso   1.00
C52    C     0.98511   0.58558   0.21275   0.00000  Uiso   1.00
C53    C     0.95163   0.65490   0.17837   0.00000  Uiso   1.00
C54    C     0.86921   0.66826   0.19172   0.00000  Uiso   1.00
C55    C     0.73860   0.71743   0.19545   0.00000  Uiso   1.00
C56    C     0.10569   0.55094   0.29324   0.00000  Uiso   1.00
C57    C     0.17358   0.59115   0.32655   0.00000  Uiso   1.00
C58    C     0.19267   0.57536   0.40768   0.00000  Uiso   1.00
C59    C     0.24929   0.57075   0.53640   0.00000  Uiso   1.00
C60    C     0.98701   0.45969   0.29069   0.00000  Uiso   1.00
C61    C     0.02406   0.41887   0.21576   0.00000  Uiso   1.00
C62    C     0.01407   0.33741   0.19294   0.00000  Uiso   1.00
C63    C     0.05297   0.31188   0.12231   0.00000  Uiso   1.00
C64    C     0.93794   0.53153   0.25883   0.00000  Uiso   1.00
C65    C     0.85556   0.54478   0.27224   0.00000  Uiso   1.00
C66    C     0.82196   0.61410   0.23789   0.00000  Uiso   1.00
C67    C     0.05853   0.49688   0.33933   0.00000  Uiso   1.00
C68    C     0.07751   0.48103   0.42043   0.00000  Uiso   1.00
C69    C     0.14542   0.52120   0.45385   0.00000  Uiso   1.00
H70    H     0.11056   0.60131   0.16996   0.00000  Uiso   1.00
H71    H     0.14663   0.48938   0.06341   0.00000  Uiso   1.00
H72    H     0.98814   0.69673   0.14271   0.00000  Uiso   1.00
H73    H     0.21007   0.63298   0.29087   0.00000  Uiso   1.00
H74    H     0.16579   0.34145   0.96559   0.00000  Uiso   1.00
H75    H     0.83162   0.77867   0.13282   0.00000  Uiso   1.00
H76    H     0.29959   0.64425   0.44525   0.00000  Uiso   1.00
H77    H     0.95029   0.41760   0.32657   0.00000  Uiso   1.00
H78    H     0.97757   0.29558   0.22861   0.00000  Uiso   1.00
H79    H     0.81908   0.50294   0.30791   0.00000  Uiso   1.00
H80    H     0.04100   0.43919   0.45607   0.00000  Uiso   1.00
H81    H     0.02857   0.18416   0.09967   0.00000  Uiso   1.00
H82    H     0.69440   0.62139   0.26691   0.00000  Uiso   1.00
H83    H     0.16237   0.48697   0.57933   0.00000  Uiso   1.00
O84    O     0.11800   0.18586   0.96535   0.00000  Uiso   1.00
O85    O     0.67958   0.75949   0.18477   0.00000  Uiso   1.00
O86    O     0.29355   0.58313   0.59466   0.00000  Uiso   1.00
N87    N     0.12977   0.32117   0.01059   0.00000  Uiso   1.00
N88    N     0.81734   0.72994   0.16694   0.00000  Uiso   1.00
N89    N     0.25483   0.60429   0.45904   0.00000  Uiso   1.00
N90    N     0.05593   0.23654   0.08274   0.00000  Uiso   1.00
N91    N     0.74350   0.64531   0.23909   0.00000  Uiso   1.00
N92    N     0.18100   0.51966   0.53119   0.00000  Uiso   1.00
C93    C     0.20601   0.07384   0.55923   0.00000  Uiso   1.00
C94    C     0.16985   0.07121   0.47294   0.00000  Uiso   1.00
C95    C     0.09924   0.11013   0.44755   0.00000  Uiso   1.00
C96    C     0.07632   0.10019   0.36606   0.00000  Uiso   1.00
C97    C     0.01314   0.10325   0.24031   0.00000  Uiso   1.00
C98    C     0.21292   0.98511   0.58559   0.00000  Uiso   1.00
C99    C     0.17854   0.95163   0.65491   0.00000  Uiso   1.00
C100   C     0.19190   0.86921   0.66825   0.00000  Uiso   1.00
C101   C     0.19564   0.73861   0.71741   0.00000  Uiso   1.00
C102   C     0.29340   0.10568   0.55096   0.00000  Uiso   1.00
C103   C     0.32671   0.17358   0.59117   0.00000  Uiso   1.00
C104   C     0.40783   0.19266   0.57538   0.00000  Uiso   1.00
C105   C     0.53654   0.24926   0.57077   0.00000  Uiso   1.00
C106   C     0.29087   0.98699   0.45969   0.00000  Uiso   1.00
C107   C     0.21594   0.02403   0.41888   0.00000  Uiso   1.00
C108   C     0.19312   0.01403   0.33741   0.00000  Uiso   1.00
C109   C     0.12250   0.05293   0.31189   0.00000  Uiso   1.00
C110   C     0.25901   0.93793   0.53152   0.00000  Uiso   1.00
C111   C     0.27242   0.85554   0.54477   0.00000  Uiso   1.00
C112   C     0.23807   0.82195   0.61408   0.00000  Uiso   1.00
C113   C     0.33950   0.05850   0.49688   0.00000  Uiso   1.00
C114   C     0.42059   0.07748   0.48103   0.00000  Uiso   1.00
C115   C     0.45401   0.14540   0.52121   0.00000  Uiso   1.00
H116   H     0.17012   0.11056   0.60133   0.00000  Uiso   1.00
H117   H     0.06358   0.14663   0.48941   0.00000  Uiso   1.00
H118   H     0.14288   0.98816   0.69674   0.00000  Uiso   1.00
H119   H     0.29102   0.21007   0.63301   0.00000  Uiso   1.00
H120   H     0.96577   0.16578   0.34149   0.00000  Uiso   1.00
H121   H     0.13300   0.83165   0.77866   0.00000  Uiso   1.00
H122   H     0.44539   0.29959   0.64429   0.00000  Uiso   1.00
H123   H     0.32675   0.95026   0.41759   0.00000  Uiso   1.00
H124   H     0.22880   0.97752   0.29558   0.00000  Uiso   1.00
H125   H     0.30810   0.81905   0.50291   0.00000  Uiso   1.00
H126   H     0.45624   0.04096   0.43918   0.00000  Uiso   1.00
H127   H     0.09987   0.02852   0.18417   0.00000  Uiso   1.00
H128   H     0.26710   0.69439   0.62135   0.00000  Uiso   1.00
H129   H     0.57948   0.16233   0.48697   0.00000  Uiso   1.00
O130   O     0.96555   0.11796   0.18589   0.00000  Uiso   1.00
O131   O     0.18495   0.67960   0.75946   0.00000  Uiso   1.00
O132   O     0.59479   0.29352   0.58315   0.00000  Uiso   1.00
N133   N     0.01078   0.12975   0.32120   0.00000  Uiso   1.00
N134   N     0.16712   0.81735   0.72993   0.00000  Uiso   1.00
N135   N     0.45918   0.25482   0.60432   0.00000  Uiso   1.00
N136   N     0.08294   0.05589   0.23655   0.00000  Uiso   1.00
N137   N     0.23928   0.74350   0.64528   0.00000  Uiso   1.00
N138   N     0.53134   0.18097   0.51966   0.00000  Uiso   1.00
C139   C     0.44077   0.79408   0.92620   0.00000  Uiso   1.00
C140   C     0.52705   0.83024   0.92883   0.00000  Uiso   1.00
C141   C     0.55245   0.90084   0.88992   0.00000  Uiso   1.00
C142   C     0.63392   0.92375   0.89985   0.00000  Uiso   1.00
C143   C     0.75967   0.98693   0.89680   0.00000  Uiso   1.00
C144   C     0.41442   0.78718   0.01494   0.00000  Uiso   1.00
C145   C     0.34509   0.82157   0.04842   0.00000  Uiso   1.00
C146   C     0.33175   0.80823   0.13084   0.00000  Uiso   1.00
C147   C     0.28258   0.80451   0.26145   0.00000  Uiso   1.00
C148   C     0.44906   0.70667   0.89435   0.00000  Uiso   1.00
C149   C     0.40885   0.67336   0.82645   0.00000  Uiso   1.00
C150   C     0.42465   0.59223   0.80735   0.00000  Uiso   1.00
C151   C     0.42927   0.46352   0.75073   0.00000  Uiso   1.00
C152   C     0.54031   0.70922   0.01304   0.00000  Uiso   1.00
C153   C     0.58112   0.78415   0.97600   0.00000  Uiso   1.00
C154   C     0.66258   0.80696   0.98599   0.00000  Uiso   1.00
C155   C     0.68809   0.87758   0.94710   0.00000  Uiso   1.00
C156   C     0.46848   0.74109   0.06211   0.00000  Uiso   1.00
C157   C     0.45523   0.72769   0.14450   0.00000  Uiso   1.00
C158   C     0.38591   0.76205   0.17810   0.00000  Uiso   1.00
C159   C     0.50313   0.66058   0.94151   0.00000  Uiso   1.00
C160   C     0.51899   0.57949   0.92252   0.00000  Uiso   1.00
C161   C     0.47881   0.54606   0.85461   0.00000  Uiso   1.00
H162   H     0.39867   0.82996   0.88948   0.00000  Uiso   1.00
H163   H     0.51058   0.93649   0.85343   0.00000  Uiso   1.00
H164   H     0.30326   0.85723   0.01190   0.00000  Uiso   1.00
H165   H     0.36701   0.70905   0.78996   0.00000  Uiso   1.00
H166   H     0.65850   0.03429   0.83428   0.00000  Uiso   1.00
H167   H     0.22133   0.86714   0.16842   0.00000  Uiso   1.00
H168   H     0.35575   0.55467   0.70042   0.00000  Uiso   1.00
H169   H     0.58241   0.67334   0.04976   0.00000  Uiso   1.00
H170   H     0.70441   0.77128   0.02250   0.00000  Uiso   1.00
H171   H     0.49708   0.69201   0.18098   0.00000  Uiso   1.00
H172   H     0.56083   0.54384   0.95904   0.00000  Uiso   1.00
H173   H     0.81581   0.90020   0.97151   0.00000  Uiso   1.00
H174   H     0.37864   0.73304   0.30565   0.00000  Uiso   1.00
H175   H     0.51306   0.42058   0.83765   0.00000  Uiso   1.00
O176   O     0.81408   0.03451   0.88209   0.00000  Uiso   1.00
O177   O     0.24053   0.81520   0.32047   0.00000  Uiso   1.00
O178   O     0.41689   0.40526   0.70646   0.00000  Uiso   1.00
N179   N     0.67878   0.98928   0.87030   0.00000  Uiso   1.00
N180   N     0.27006   0.83301   0.18271   0.00000  Uiso   1.00
N181   N     0.39572   0.54088   0.74518   0.00000  Uiso   1.00
N182   N     0.76343   0.91713   0.94414   0.00000  Uiso   1.00
N183   N     0.35471   0.76086   0.25655   0.00000  Uiso   1.00
N184   N     0.48037   0.46873   0.81903   0.00000  Uiso   1.00
C185   C     0.92615   0.44078   0.79416   0.00000  Uiso   1.00
C186   C     0.92878   0.52707   0.83033   0.00000  Uiso   1.00
C187   C     0.88986   0.55248   0.90094   0.00000  Uiso   1.00
C188   C     0.89979   0.63396   0.92386   0.00000  Uiso   1.00
C189   C     0.89672   0.75971   0.98706   0.00000  Uiso   1.00
C190   C     0.01489   0.41442   0.78725   0.00000  Uiso   1.00
C191   C     0.04837   0.34510   0.82163   0.00000  Uiso   1.00
C192   C     0.13079   0.33175   0.80828   0.00000  Uiso   1.00
C193   C     0.26140   0.28257   0.80455   0.00000  Uiso   1.00
C194   C     0.89431   0.44906   0.70676   0.00000  Uiso   1.00
C195   C     0.82642   0.40885   0.67345   0.00000  Uiso   1.00
C196   C     0.80733   0.42464   0.59232   0.00000  Uiso   1.00
C197   C     0.75072   0.42925   0.46360   0.00000  Uiso   1.00
C198   C     0.01299   0.54031   0.70931   0.00000  Uiso   1.00
C199   C     0.97594   0.58113   0.78424   0.00000  Uiso   1.00
C200   C     0.98593   0.66259   0.80706   0.00000  Uiso   1.00
C201   C     0.94703   0.68812   0.87769   0.00000  Uiso   1.00
C202   C     0.06206   0.46847   0.74117   0.00000  Uiso   1.00
C203   C     0.14444   0.45522   0.72776   0.00000  Uiso   1.00
C204   C     0.17804   0.38590   0.76211   0.00000  Uiso   1.00
C205   C     0.94147   0.50312   0.66067   0.00000  Uiso   1.00
C206   C     0.92249   0.51897   0.57957   0.00000  Uiso   1.00
C207   C     0.85458   0.47880   0.54615   0.00000  Uiso   1.00
H208   H     0.88944   0.39869   0.83004   0.00000  Uiso   1.00
H209   H     0.85337   0.51062   0.93659   0.00000  Uiso   1.00
H210   H     0.01186   0.30327   0.85729   0.00000  Uiso   1.00
H211   H     0.78993   0.36702   0.70913   0.00000  Uiso   1.00
H212   H     0.83421   0.65855   0.03441   0.00000  Uiso   1.00
H213   H     0.16838   0.22133   0.86718   0.00000  Uiso   1.00
H214   H     0.70041   0.35575   0.55475   0.00000  Uiso   1.00
H215   H     0.04971   0.58240   0.67343   0.00000  Uiso   1.00
H216   H     0.02243   0.70442   0.77139   0.00000  Uiso   1.00
H217   H     0.18092   0.49706   0.69209   0.00000  Uiso   1.00
H218   H     0.95900   0.56081   0.54393   0.00000  Uiso   1.00
H219   H     0.97143   0.81584   0.90033   0.00000  Uiso   1.00
H220   H     0.30560   0.37861   0.73309   0.00000  Uiso   1.00
H221   H     0.83763   0.51303   0.42067   0.00000  Uiso   1.00
O222   O     0.88201   0.81414   0.03465   0.00000  Uiso   1.00
O223   O     0.32042   0.24051   0.81523   0.00000  Uiso   1.00
O224   O     0.70645   0.41687   0.40534   0.00000  Uiso   1.00
N225   N     0.87023   0.67883   0.98941   0.00000  Uiso   1.00
N226   N     0.18266   0.27006   0.83306   0.00000  Uiso   1.00
N227   N     0.74517   0.39571   0.54096   0.00000  Uiso   1.00
N228   N     0.94407   0.76346   0.91726   0.00000  Uiso   1.00
N229   N     0.25650   0.35469   0.76091   0.00000  Uiso   1.00
N230   N     0.81900   0.48034   0.46881   0.00000  Uiso   1.00
C231   C     0.79399   0.92616   0.44077   0.00000  Uiso   1.00
C232   C     0.83016   0.92879   0.52706   0.00000  Uiso   1.00
C233   C     0.90076   0.88987   0.55245   0.00000  Uiso   1.00
C234   C     0.92368   0.89981   0.63394   0.00000  Uiso   1.00
C235   C     0.98686   0.89675   0.75969   0.00000  Uiso   1.00
C236   C     0.78708   0.01489   0.41441   0.00000  Uiso   1.00
C237   C     0.82146   0.04837   0.34509   0.00000  Uiso   1.00
C238   C     0.80811   0.13079   0.33175   0.00000  Uiso   1.00
C239   C     0.80437   0.26139   0.28259   0.00000  Uiso   1.00
C240   C     0.70660   0.89432   0.44904   0.00000  Uiso   1.00
C241   C     0.67329   0.82642   0.40883   0.00000  Uiso   1.00
C242   C     0.59217   0.80734   0.42462   0.00000  Uiso   1.00
C243   C     0.46346   0.75074   0.42923   0.00000  Uiso   1.00
C244   C     0.70913   0.01301   0.54031   0.00000  Uiso   1.00
C245   C     0.78406   0.97597   0.58112   0.00000  Uiso   1.00
C246   C     0.80688   0.98597   0.66259   0.00000  Uiso   1.00
C247   C     0.87750   0.94707   0.68811   0.00000  Uiso   1.00
C248   C     0.74099   0.06207   0.46848   0.00000  Uiso   1.00
C249   C     0.72758   0.14446   0.45523   0.00000  Uiso   1.00
C250   C     0.76193   0.17805   0.38592   0.00000  Uiso   1.00
C251   C     0.66050   0.94150   0.50312   0.00000  Uiso   1.00
C252   C     0.57941   0.92252   0.51897   0.00000  Uiso   1.00
C253   C     0.54599   0.85460   0.47879   0.00000  Uiso   1.00
H254   H     0.82988   0.88944   0.39867   0.00000  Uiso   1.00
H255   H     0.93642   0.85337   0.51059   0.00000  Uiso   1.00
H256   H     0.85712   0.01184   0.30326   0.00000  Uiso   1.00
H257   H     0.70898   0.78993   0.36699   0.00000  Uiso   1.00
H258   H     0.03423   0.83422   0.65851   0.00000  Uiso   1.00
H259   H     0.86700   0.16835   0.22134   0.00000  Uiso   1.00
H260   H     0.55461   0.70041   0.35571   0.00000  Uiso   1.00
H261   H     0.67325   0.04974   0.58241   0.00000  Uiso   1.00
H262   H     0.77120   0.02248   0.70442   0.00000  Uiso   1.00
H263   H     0.69190   0.18095   0.49709   0.00000  Uiso   1.00
H264   H     0.54376   0.95904   0.56082   0.00000  Uiso   1.00
H265   H     0.90013   0.97148   0.81583   0.00000  Uiso   1.00
H266   H     0.73290   0.30561   0.37865   0.00000  Uiso   1.00
H267   H     0.42052   0.83767   0.51303   0.00000  Uiso   1.00
O268   O     0.03445   0.88204   0.81411   0.00000  Uiso   1.00
O269   O     0.81505   0.32040   0.24054   0.00000  Uiso   1.00
O270   O     0.40521   0.70648   0.41685   0.00000  Uiso   1.00
N271   N     0.98922   0.87025   0.67880   0.00000  Uiso   1.00
N272   N     0.83288   0.18265   0.27007   0.00000  Uiso   1.00
N273   N     0.54082   0.74518   0.39568   0.00000  Uiso   1.00
N274   N     0.91706   0.94411   0.76345   0.00000  Uiso   1.00
N275   N     0.76073   0.25650   0.35472   0.00000  Uiso   1.00
N276   N     0.46867   0.81903   0.48034   0.00000  Uiso   1.00
