data_job_05217
_audit_creation_date              2018-12-19
_audit_creation_method            'Materials Studio'
_symmetry_space_group_name_H-M    'P1'
_symmetry_Int_Tables_number       1
_symmetry_cell_setting            triclinic
loop_
_symmetry_equiv_pos_as_xyz
  x,y,z
_cell_length_a                    12.0366
_cell_length_b                    12.0366
_cell_length_c                    18.1919
_cell_angle_alpha                 90.0000
_cell_angle_beta                  90.0000
_cell_angle_gamma                 90.0000
loop_
_atom_site_label
_atom_site_type_symbol
_atom_site_fract_x
_atom_site_fract_y
_atom_site_fract_z
_atom_site_U_iso_or_equiv
_atom_site_adp_type
_atom_site_occupancy
C1     C     0.64003   0.82916   0.16234   0.00000  Uiso   1.00
C2     C     0.51555   0.85271   0.16295   0.00000  Uiso   1.00
C3     C     0.44428   0.84173   0.10343   0.00000  Uiso   1.00
C4     C     0.33323   0.86735   0.11519   0.00000  Uiso   1.00
C5     C     0.14577   0.89859   0.10565   0.00000  Uiso   1.00
C6     C     0.69611   0.93580   0.18826   0.00000  Uiso   1.00
C7     C     0.77666   0.99468   0.15002   0.00000  Uiso   1.00
C8     C     0.81761   0.09023   0.18309   0.00000  Uiso   1.00
C9     C     0.91053   0.25043   0.21287   0.00000  Uiso   1.00
C10    C     0.66014   0.74353   0.22267   0.00000  Uiso   1.00
C11    C     0.71047   0.64075   0.21337   0.00000  Uiso   1.00
C12    C     0.72116   0.57444   0.27542   0.00000  Uiso   1.00
C13    C     0.75823   0.43612   0.35862   0.00000  Uiso   1.00
C14    C     0.56955   0.89417   0.28908   0.00000  Uiso   1.00
C15    C     0.47727   0.88802   0.23179   0.00000  Uiso   1.00
C16    C     0.36629   0.91365   0.24364   0.00000  Uiso   1.00
C17    C     0.29487   0.90271   0.18415   0.00000  Uiso   1.00
C18    C     0.65783   0.97111   0.25709   0.00000  Uiso   1.00
C19    C     0.69867   0.06660   0.29023   0.00000  Uiso   1.00
C20    C     0.77925   0.12560   0.25205   0.00000  Uiso   1.00
C21    C     0.62185   0.77884   0.29151   0.00000  Uiso   1.00
C22    C     0.63247   0.71267   0.35358   0.00000  Uiso   1.00
C23    C     0.68280   0.60981   0.34438   0.00000  Uiso   1.00
H24    H     0.66985   0.80168   0.10875   0.00000  Uiso   1.00
H25    H     0.47395   0.81442   0.05016   0.00000  Uiso   1.00
H26    H     0.80628   0.96733   0.09675   0.00000  Uiso   1.00
H27    H     0.74009   0.61346   0.16009   0.00000  Uiso   1.00
H28    H     0.23988   0.84415   0.01555   0.00000  Uiso   1.00
H29    H     0.94064   0.16655   0.11380   0.00000  Uiso   1.00
H30    H     0.80108   0.42035   0.24736   0.00000  Uiso   1.00
H31    H     0.53974   0.92166   0.34267   0.00000  Uiso   1.00
H32    H     0.33669   0.94097   0.29692   0.00000  Uiso   1.00
H33    H     0.66903   0.09389   0.34351   0.00000  Uiso   1.00
H34    H     0.60284   0.74002   0.40684   0.00000  Uiso   1.00
H35    H     0.12848   0.94687   0.21583   0.00000  Uiso   1.00
H36    H     0.82925   0.26927   0.31408   0.00000  Uiso   1.00
H37    H     0.68968   0.52308   0.44764   0.00000  Uiso   1.00
O38    O     0.05296   0.90609   0.08137   0.00000  Uiso   1.00
O39    O     0.97236   0.32905   0.21027   0.00000  Uiso   1.00
O40    O     0.78924   0.35006   0.38550   0.00000  Uiso   1.00
N41    N     0.24152   0.86565   0.06897   0.00000  Uiso   1.00
N42    N     0.89668   0.16709   0.16082   0.00000  Uiso   1.00
N43    N     0.76623   0.46947   0.28569   0.00000  Uiso   1.00
N44    N     0.18157   0.92092   0.17674   0.00000  Uiso   1.00
N45    N     0.83674   0.22236   0.26859   0.00000  Uiso   1.00
N46    N     0.70628   0.52474   0.39346   0.00000  Uiso   1.00
C47    C     0.35997   0.17084   0.66234   0.00000  Uiso   1.00
C48    C     0.48445   0.14729   0.66295   0.00000  Uiso   1.00
C49    C     0.55572   0.15827   0.60343   0.00000  Uiso   1.00
C50    C     0.66677   0.13265   0.61519   0.00000  Uiso   1.00
C51    C     0.85423   0.10141   0.60565   0.00000  Uiso   1.00
C52    C     0.30389   0.06420   0.68826   0.00000  Uiso   1.00
C53    C     0.22334   0.00532   0.65002   0.00000  Uiso   1.00
C54    C     0.18239   0.90977   0.68309   0.00000  Uiso   1.00
C55    C     0.08947   0.74957   0.71287   0.00000  Uiso   1.00
C56    C     0.33986   0.25647   0.72267   0.00000  Uiso   1.00
C57    C     0.28953   0.35925   0.71337   0.00000  Uiso   1.00
C58    C     0.27884   0.42556   0.77542   0.00000  Uiso   1.00
C59    C     0.24177   0.56388   0.85862   0.00000  Uiso   1.00
C60    C     0.43045   0.10583   0.78908   0.00000  Uiso   1.00
C61    C     0.52273   0.11198   0.73179   0.00000  Uiso   1.00
C62    C     0.63371   0.08635   0.74364   0.00000  Uiso   1.00
C63    C     0.70513   0.09729   0.68415   0.00000  Uiso   1.00
C64    C     0.34217   0.02889   0.75709   0.00000  Uiso   1.00
C65    C     0.30133   0.93340   0.79023   0.00000  Uiso   1.00
C66    C     0.22075   0.87440   0.75205   0.00000  Uiso   1.00
C67    C     0.37815   0.22116   0.79151   0.00000  Uiso   1.00
C68    C     0.36753   0.28733   0.85358   0.00000  Uiso   1.00
C69    C     0.31720   0.39019   0.84438   0.00000  Uiso   1.00
H70    H     0.33015   0.19832   0.60875   0.00000  Uiso   1.00
H71    H     0.52605   0.18558   0.55016   0.00000  Uiso   1.00
H72    H     0.19372   0.03267   0.59675   0.00000  Uiso   1.00
H73    H     0.25991   0.38654   0.66009   0.00000  Uiso   1.00
H74    H     0.76012   0.15585   0.51555   0.00000  Uiso   1.00
H75    H     0.05936   0.83345   0.61380   0.00000  Uiso   1.00
H76    H     0.19892   0.57965   0.74736   0.00000  Uiso   1.00
H77    H     0.46026   0.07834   0.84267   0.00000  Uiso   1.00
H78    H     0.66331   0.05903   0.79692   0.00000  Uiso   1.00
H79    H     0.33097   0.90611   0.84351   0.00000  Uiso   1.00
H80    H     0.39716   0.25998   0.90684   0.00000  Uiso   1.00
H81    H     0.87152   0.05313   0.71583   0.00000  Uiso   1.00
H82    H     0.17075   0.73073   0.81408   0.00000  Uiso   1.00
H83    H     0.31032   0.47692   0.94764   0.00000  Uiso   1.00
O84    O     0.94704   0.09391   0.58137   0.00000  Uiso   1.00
O85    O     0.02764   0.67095   0.71027   0.00000  Uiso   1.00
O86    O     0.21076   0.64994   0.88550   0.00000  Uiso   1.00
N87    N     0.75848   0.13435   0.56897   0.00000  Uiso   1.00
N88    N     0.10332   0.83291   0.66082   0.00000  Uiso   1.00
N89    N     0.23377   0.53053   0.78569   0.00000  Uiso   1.00
N90    N     0.81843   0.07908   0.67674   0.00000  Uiso   1.00
N91    N     0.16326   0.77764   0.76859   0.00000  Uiso   1.00
N92    N     0.29372   0.47526   0.89346   0.00000  Uiso   1.00
C93    C     0.17084   0.64003   0.41234   0.00000  Uiso   1.00
C94    C     0.14729   0.51555   0.41295   0.00000  Uiso   1.00
C95    C     0.15827   0.44428   0.35343   0.00000  Uiso   1.00
C96    C     0.13265   0.33323   0.36519   0.00000  Uiso   1.00
C97    C     0.10141   0.14577   0.35565   0.00000  Uiso   1.00
C98    C     0.06420   0.69611   0.43826   0.00000  Uiso   1.00
C99    C     0.00532   0.77666   0.40002   0.00000  Uiso   1.00
C100   C     0.90977   0.81761   0.43309   0.00000  Uiso   1.00
C101   C     0.74957   0.91053   0.46287   0.00000  Uiso   1.00
C102   C     0.25647   0.66014   0.47267   0.00000  Uiso   1.00
C103   C     0.35925   0.71047   0.46337   0.00000  Uiso   1.00
C104   C     0.42556   0.72116   0.52542   0.00000  Uiso   1.00
C105   C     0.56388   0.75823   0.60862   0.00000  Uiso   1.00
C106   C     0.10583   0.56955   0.53908   0.00000  Uiso   1.00
C107   C     0.11198   0.47727   0.48179   0.00000  Uiso   1.00
C108   C     0.08635   0.36629   0.49364   0.00000  Uiso   1.00
C109   C     0.09729   0.29487   0.43415   0.00000  Uiso   1.00
C110   C     0.02889   0.65783   0.50709   0.00000  Uiso   1.00
C111   C     0.93340   0.69867   0.54023   0.00000  Uiso   1.00
C112   C     0.87440   0.77925   0.50205   0.00000  Uiso   1.00
C113   C     0.22116   0.62185   0.54151   0.00000  Uiso   1.00
C114   C     0.28733   0.63247   0.60358   0.00000  Uiso   1.00
C115   C     0.39019   0.68280   0.59438   0.00000  Uiso   1.00
H116   H     0.19832   0.66985   0.35875   0.00000  Uiso   1.00
H117   H     0.18558   0.47395   0.30016   0.00000  Uiso   1.00
H118   H     0.03267   0.80628   0.34675   0.00000  Uiso   1.00
H119   H     0.38654   0.74009   0.41009   0.00000  Uiso   1.00
H120   H     0.15585   0.23988   0.26555   0.00000  Uiso   1.00
H121   H     0.83345   0.94064   0.36380   0.00000  Uiso   1.00
H122   H     0.57965   0.80108   0.49736   0.00000  Uiso   1.00
H123   H     0.07834   0.53974   0.59267   0.00000  Uiso   1.00
H124   H     0.05903   0.33669   0.54692   0.00000  Uiso   1.00
H125   H     0.90611   0.66903   0.59351   0.00000  Uiso   1.00
H126   H     0.25998   0.60284   0.65684   0.00000  Uiso   1.00
H127   H     0.05313   0.12848   0.46583   0.00000  Uiso   1.00
H128   H     0.73073   0.82925   0.56408   0.00000  Uiso   1.00
H129   H     0.47692   0.68968   0.69764   0.00000  Uiso   1.00
O130   O     0.09391   0.05296   0.33137   0.00000  Uiso   1.00
O131   O     0.67095   0.97236   0.46027   0.00000  Uiso   1.00
O132   O     0.64994   0.78924   0.63550   0.00000  Uiso   1.00
N133   N     0.13435   0.24152   0.31897   0.00000  Uiso   1.00
N134   N     0.83291   0.89668   0.41082   0.00000  Uiso   1.00
N135   N     0.53053   0.76623   0.53569   0.00000  Uiso   1.00
N136   N     0.07908   0.18157   0.42674   0.00000  Uiso   1.00
N137   N     0.77764   0.83674   0.51859   0.00000  Uiso   1.00
N138   N     0.47526   0.70628   0.64346   0.00000  Uiso   1.00
C139   C     0.82916   0.35997   0.91234   0.00000  Uiso   1.00
C140   C     0.85271   0.48445   0.91295   0.00000  Uiso   1.00
C141   C     0.84173   0.55572   0.85343   0.00000  Uiso   1.00
C142   C     0.86735   0.66677   0.86519   0.00000  Uiso   1.00
C143   C     0.89859   0.85423   0.85565   0.00000  Uiso   1.00
C144   C     0.93580   0.30389   0.93826   0.00000  Uiso   1.00
C145   C     0.99468   0.22334   0.90002   0.00000  Uiso   1.00
C146   C     0.09023   0.18239   0.93309   0.00000  Uiso   1.00
C147   C     0.25043   0.08947   0.96287   0.00000  Uiso   1.00
C148   C     0.74353   0.33986   0.97267   0.00000  Uiso   1.00
C149   C     0.64075   0.28953   0.96337   0.00000  Uiso   1.00
C150   C     0.57444   0.27884   0.02542   0.00000  Uiso   1.00
C151   C     0.43612   0.24177   0.10862   0.00000  Uiso   1.00
C152   C     0.89417   0.43045   0.03908   0.00000  Uiso   1.00
C153   C     0.88802   0.52273   0.98179   0.00000  Uiso   1.00
C154   C     0.91365   0.63371   0.99364   0.00000  Uiso   1.00
C155   C     0.90271   0.70513   0.93415   0.00000  Uiso   1.00
C156   C     0.97111   0.34217   0.00709   0.00000  Uiso   1.00
C157   C     0.06660   0.30133   0.04023   0.00000  Uiso   1.00
C158   C     0.12560   0.22075   0.00205   0.00000  Uiso   1.00
C159   C     0.77884   0.37815   0.04151   0.00000  Uiso   1.00
C160   C     0.71267   0.36753   0.10358   0.00000  Uiso   1.00
C161   C     0.60981   0.31720   0.09438   0.00000  Uiso   1.00
H162   H     0.80168   0.33015   0.85875   0.00000  Uiso   1.00
H163   H     0.81442   0.52605   0.80016   0.00000  Uiso   1.00
H164   H     0.96733   0.19372   0.84675   0.00000  Uiso   1.00
H165   H     0.61346   0.25991   0.91009   0.00000  Uiso   1.00
H166   H     0.84415   0.76012   0.76555   0.00000  Uiso   1.00
H167   H     0.16655   0.05936   0.86380   0.00000  Uiso   1.00
H168   H     0.42035   0.19892   0.99736   0.00000  Uiso   1.00
H169   H     0.92166   0.46026   0.09267   0.00000  Uiso   1.00
H170   H     0.94097   0.66331   0.04692   0.00000  Uiso   1.00
H171   H     0.09389   0.33097   0.09351   0.00000  Uiso   1.00
H172   H     0.74002   0.39716   0.15684   0.00000  Uiso   1.00
H173   H     0.94687   0.87152   0.96583   0.00000  Uiso   1.00
H174   H     0.26927   0.17075   0.06408   0.00000  Uiso   1.00
H175   H     0.52308   0.31032   0.19764   0.00000  Uiso   1.00
O176   O     0.90609   0.94704   0.83137   0.00000  Uiso   1.00
O177   O     0.32905   0.02764   0.96027   0.00000  Uiso   1.00
O178   O     0.35006   0.21076   0.13550   0.00000  Uiso   1.00
N179   N     0.86565   0.75848   0.81897   0.00000  Uiso   1.00
N180   N     0.16709   0.10332   0.91082   0.00000  Uiso   1.00
N181   N     0.46947   0.23377   0.03569   0.00000  Uiso   1.00
N182   N     0.92092   0.81843   0.92674   0.00000  Uiso   1.00
N183   N     0.22236   0.16326   0.01859   0.00000  Uiso   1.00
N184   N     0.52474   0.29372   0.14346   0.00000  Uiso   1.00
