data_job_06568
_audit_creation_date              2018-12-19
_audit_creation_method            'Materials Studio'
_symmetry_space_group_name_H-M    'P1'
_symmetry_Int_Tables_number       1
_symmetry_cell_setting            triclinic
loop_
_symmetry_equiv_pos_as_xyz
  x,y,z
_cell_length_a                    21.3484
_cell_length_b                    19.0980
_cell_length_c                    21.3716
_cell_angle_alpha                 66.8099
_cell_angle_beta                  67.9012
_cell_angle_gamma                 67.6207
loop_
_atom_site_label
_atom_site_type_symbol
_atom_site_fract_x
_atom_site_fract_y
_atom_site_fract_z
_atom_site_U_iso_or_equiv
_atom_site_adp_type
_atom_site_occupancy
C1     C     0.62971   0.11663   0.77271   0.00000  Uiso   1.00
C2     C     0.58079   0.14775   0.83509   0.00000  Uiso   1.00
C3     C     0.50950   0.15323   0.86214   0.00000  Uiso   1.00
C4     C     0.47397   0.18332   0.91942   0.00000  Uiso   1.00
C5     C     0.39275   0.22807   0.01184   0.00000  Uiso   1.00
C6     C     0.66284   0.18269   0.71975   0.00000  Uiso   1.00
C7     C     0.66054   0.21754   0.64982   0.00000  Uiso   1.00
C8     C     0.69408   0.27704   0.61001   0.00000  Uiso   1.00
C9     C     0.74028   0.37599   0.52334   0.00000  Uiso   1.00
C10    C     0.68913   0.04940   0.80002   0.00000  Uiso   1.00
C11    C     0.70895   0.97217   0.79755   0.00000  Uiso   1.00
C12    C     0.76465   0.91945   0.82530   0.00000  Uiso   1.00
C13    C     0.85167   0.81144   0.86326   0.00000  Uiso   1.00
C14    C     0.69339   0.16032   0.82634   0.00000  Uiso   1.00
C15    C     0.61538   0.17148   0.86422   0.00000  Uiso   1.00
C16    C     0.57996   0.20157   0.92148   0.00000  Uiso   1.00
C17    C     0.50862   0.20709   0.94861   0.00000  Uiso   1.00
C18    C     0.69743   0.20642   0.74888   0.00000  Uiso   1.00
C19    C     0.73099   0.26587   0.70916   0.00000  Uiso   1.00
C20    C     0.72874   0.30081   0.63919   0.00000  Uiso   1.00
C21    C     0.72372   0.07312   0.82915   0.00000  Uiso   1.00
C22    C     0.77940   0.02051   0.85690   0.00000  Uiso   1.00
C23    C     0.79930   0.94322   0.85448   0.00000  Uiso   1.00
H24    H     0.60278   0.09816   0.75002   0.00000  Uiso   1.00
H25    H     0.48275   0.13487   0.83957   0.00000  Uiso   1.00
H26    H     0.63377   0.19916   0.62729   0.00000  Uiso   1.00
H27    H     0.68217   0.95383   0.77500   0.00000  Uiso   1.00
H28    H     0.36492   0.18606   0.95169   0.00000  Uiso   1.00
H29    H     0.68338   0.32160   0.50407   0.00000  Uiso   1.00
H30    H     0.78545   0.80428   0.81555   0.00000  Uiso   1.00
H31    H     0.72032   0.17879   0.84902   0.00000  Uiso   1.00
H32    H     0.60674   0.21993   0.94401   0.00000  Uiso   1.00
H33    H     0.75776   0.28422   0.73172   0.00000  Uiso   1.00
H34    H     0.80616   0.03889   0.87944   0.00000  Uiso   1.00
H35    H     0.46555   0.25510   0.03646   0.00000  Uiso   1.00
H36    H     0.78401   0.39064   0.58883   0.00000  Uiso   1.00
H37    H     0.88608   0.87332   0.90032   0.00000  Uiso   1.00
O38    O     0.33839   0.24621   0.05476   0.00000  Uiso   1.00
O39    O     0.75620   0.42402   0.46750   0.00000  Uiso   1.00
O40    O     0.89011   0.74531   0.87616   0.00000  Uiso   1.00
N41    N     0.40420   0.19665   0.95862   0.00000  Uiso   1.00
N42    N     0.70192   0.32338   0.54012   0.00000  Uiso   1.00
N43    N     0.79736   0.83973   0.83131   0.00000  Uiso   1.00
N44    N     0.45834   0.23380   0.00423   0.00000  Uiso   1.00
N45    N     0.75607   0.36053   0.58573   0.00000  Uiso   1.00
N46    N     0.85151   0.87688   0.87692   0.00000  Uiso   1.00
C47    C     0.98239   0.39680   0.09049   0.00000  Uiso   1.00
C48    C     0.02424   0.38788   0.13867   0.00000  Uiso   1.00
C49    C     0.07116   0.31877   0.16667   0.00000  Uiso   1.00
C50    C     0.10419   0.32280   0.20958   0.00000  Uiso   1.00
C51    C     0.17119   0.29820   0.28224   0.00000  Uiso   1.00
C52    C     0.90535   0.42829   0.12694   0.00000  Uiso   1.00
C53    C     0.85231   0.39316   0.14507   0.00000  Uiso   1.00
C54    C     0.78524   0.43123   0.17811   0.00000  Uiso   1.00
C55    C     0.66765   0.46940   0.23250   0.00000  Uiso   1.00
C56    C     0.00059   0.46336   0.02397   0.00000  Uiso   1.00
C57    C     0.02761   0.45772   0.95552   0.00000  Uiso   1.00
C58    C     0.04072   0.52532   0.90185   0.00000  Uiso   1.00
C59    C     0.07102   0.61793   0.79637   0.00000  Uiso   1.00
C60    C     0.95761   0.52687   0.11689   0.00000  Uiso   1.00
C61    C     0.01078   0.45853   0.15301   0.00000  Uiso   1.00
C62    C     0.04374   0.46267   0.19589   0.00000  Uiso   1.00
C63    C     0.09070   0.39358   0.22395   0.00000  Uiso   1.00
C64    C     0.89189   0.49894   0.14128   0.00000  Uiso   1.00
C65    C     0.82489   0.53707   0.17429   0.00000  Uiso   1.00
C66    C     0.77176   0.50201   0.19247   0.00000  Uiso   1.00
C67    C     0.98713   0.53401   0.03831   0.00000  Uiso   1.00
C68    C     0.00020   0.60163   0.98474   0.00000  Uiso   1.00
C69    C     0.02724   0.59610   0.91622   0.00000  Uiso   1.00
H70    H     0.99287   0.34180   0.07933   0.00000  Uiso   1.00
H71    H     0.08156   0.26410   0.15557   0.00000  Uiso   1.00
H72    H     0.86274   0.33849   0.13396   0.00000  Uiso   1.00
H73    H     0.03802   0.40304   0.94444   0.00000  Uiso   1.00
H74    H     0.17394   0.20911   0.24644   0.00000  Uiso   1.00
H75    H     0.71253   0.36599   0.20087   0.00000  Uiso   1.00
H76    H     0.08215   0.50210   0.80122   0.00000  Uiso   1.00
H77    H     0.94712   0.58188   0.12806   0.00000  Uiso   1.00
H78    H     0.03331   0.51735   0.20698   0.00000  Uiso   1.00
H79    H     0.81449   0.59174   0.18537   0.00000  Uiso   1.00
H80    H     0.98977   0.65629   0.99585   0.00000  Uiso   1.00
H81    H     0.13477   0.41466   0.28817   0.00000  Uiso   1.00
H82    H     0.67337   0.57154   0.24259   0.00000  Uiso   1.00
H83    H     0.04299   0.70764   0.84295   0.00000  Uiso   1.00
O84    O     0.21186   0.26510   0.31836   0.00000  Uiso   1.00
O85    O     0.60652   0.47092   0.25855   0.00000  Uiso   1.00
O86    O     0.09145   0.64949   0.73423   0.00000  Uiso   1.00
N87    N     0.15290   0.26635   0.24542   0.00000  Uiso   1.00
N88    N     0.72152   0.41301   0.20282   0.00000  Uiso   1.00
N89    N     0.06707   0.54026   0.82918   0.00000  Uiso   1.00
N90    N     0.13183   0.37695   0.26787   0.00000  Uiso   1.00
N91    N     0.70045   0.52361   0.22527   0.00000  Uiso   1.00
N92    N     0.04599   0.65087   0.85164   0.00000  Uiso   1.00
C93    C     0.36107   0.72263   0.41449   0.00000  Uiso   1.00
C94    C     0.40533   0.78138   0.37524   0.00000  Uiso   1.00
C95    C     0.41371   0.82615   0.30488   0.00000  Uiso   1.00
C96    C     0.45639   0.87647   0.27883   0.00000  Uiso   1.00
C97    C     0.52012   0.96686   0.21136   0.00000  Uiso   1.00
C98    C     0.41059   0.64381   0.44410   0.00000  Uiso   1.00
C99    C     0.42338   0.57292   0.43164   0.00000  Uiso   1.00
C100   C     0.47049   0.50744   0.46358   0.00000  Uiso   1.00
C101   C     0.54235   0.38424   0.50305   0.00000  Uiso   1.00
C102   C     0.30902   0.74936   0.47818   0.00000  Uiso   1.00
C103   C     0.23641   0.76719   0.49439   0.00000  Uiso   1.00
C104   C     0.19800   0.79055   0.55502   0.00000  Uiso   1.00
C105   C     0.11215   0.83123   0.64741   0.00000  Uiso   1.00
C106   C     0.42198   0.73237   0.49336   0.00000  Uiso   1.00
C107   C     0.43842   0.78667   0.41808   0.00000  Uiso   1.00
C108   C     0.48110   0.83693   0.39214   0.00000  Uiso   1.00
C109   C     0.48954   0.88178   0.32175   0.00000  Uiso   1.00
C110   C     0.44368   0.64910   0.48694   0.00000  Uiso   1.00
C111   C     0.49078   0.58370   0.51890   0.00000  Uiso   1.00
C112   C     0.50364   0.51274   0.50649   0.00000  Uiso   1.00
C113   C     0.34211   0.75465   0.52102   0.00000  Uiso   1.00
C114   C     0.30380   0.77798   0.58165   0.00000  Uiso   1.00
C115   C     0.23114   0.79585   0.59794   0.00000  Uiso   1.00
H116   H     0.33531   0.71850   0.38114   0.00000  Uiso   1.00
H117   H     0.38810   0.82204   0.27174   0.00000  Uiso   1.00
H118   H     0.39776   0.56884   0.39849   0.00000  Uiso   1.00
H119   H     0.21082   0.76309   0.46122   0.00000  Uiso   1.00
H120   H     0.46124   0.93913   0.16934   0.00000  Uiso   1.00
H121   H     0.48160   0.40526   0.43662   0.00000  Uiso   1.00
H122   H     0.08739   0.81486   0.56890   0.00000  Uiso   1.00
H123   H     0.44774   0.73649   0.52672   0.00000  Uiso   1.00
H124   H     0.50670   0.84102   0.42530   0.00000  Uiso   1.00
H125   H     0.51637   0.58782   0.55206   0.00000  Uiso   1.00
H126   H     0.32942   0.78207   0.61479   0.00000  Uiso   1.00
H127   H     0.55750   0.95454   0.29397   0.00000  Uiso   1.00
H128   H     0.57786   0.42066   0.56126   0.00000  Uiso   1.00
H129   H     0.18366   0.83027   0.69354   0.00000  Uiso   1.00
O130   O     0.54614   0.01525   0.16231   0.00000  Uiso   1.00
O131   O     0.57285   0.31483   0.51299   0.00000  Uiso   1.00
O132   O     0.05566   0.85222   0.68653   0.00000  Uiso   1.00
N133   N     0.47579   0.92843   0.21259   0.00000  Uiso   1.00
N134   N     0.49484   0.42929   0.46248   0.00000  Uiso   1.00
N135   N     0.12629   0.81221   0.58616   0.00000  Uiso   1.00
N136   N     0.52759   0.93672   0.27966   0.00000  Uiso   1.00
N137   N     0.54664   0.43758   0.52954   0.00000  Uiso   1.00
N138   N     0.17808   0.82050   0.65322   0.00000  Uiso   1.00
C139   C     0.21130   0.12619   0.57516   0.00000  Uiso   1.00
C140   C     0.13912   0.17735   0.60419   0.00000  Uiso   1.00
C141   C     0.07975   0.19857   0.58139   0.00000  Uiso   1.00
C142   C     0.01873   0.24571   0.61469   0.00000  Uiso   1.00
C143   C     0.90687   0.32130   0.65155   0.00000  Uiso   1.00
C144   C     0.23038   0.05727   0.63829   0.00000  Uiso   1.00
C145   C     0.24774   0.97755   0.64417   0.00000  Uiso   1.00
C146   C     0.26355   0.92361   0.70617   0.00000  Uiso   1.00
C147   C     0.29343   0.81279   0.79596   0.00000  Uiso   1.00
C148   C     0.26250   0.17545   0.55130   0.00000  Uiso   1.00
C149   C     0.30689   0.19507   0.48404   0.00000  Uiso   1.00
C150   C     0.34975   0.24062   0.47280   0.00000  Uiso   1.00
C151   C     0.42949   0.31329   0.42752   0.00000  Uiso   1.00
C152   C     0.20852   0.17216   0.67482   0.00000  Uiso   1.00
C153   C     0.13761   0.20231   0.65832   0.00000  Uiso   1.00
C154   C     0.07667   0.24943   0.69165   0.00000  Uiso   1.00
C155   C     0.01721   0.27072   0.66891   0.00000  Uiso   1.00
C156   C     0.22886   0.08224   0.69242   0.00000  Uiso   1.00
C157   C     0.24466   0.02840   0.75443   0.00000  Uiso   1.00
C158   C     0.26204   0.94862   0.76040   0.00000  Uiso   1.00
C159   C     0.26098   0.20042   0.60543   0.00000  Uiso   1.00
C160   C     0.30380   0.24593   0.59430   0.00000  Uiso   1.00
C161   C     0.34824   0.26562   0.52703   0.00000  Uiso   1.00
H162   H     0.21248   0.10675   0.53302   0.00000  Uiso   1.00
H163   H     0.08094   0.17924   0.53950   0.00000  Uiso   1.00
H164   H     0.24892   0.95825   0.60227   0.00000  Uiso   1.00
H165   H     0.30804   0.17575   0.44216   0.00000  Uiso   1.00
H166   H     0.93443   0.27058   0.57058   0.00000  Uiso   1.00
H167   H     0.28864   0.80461   0.70292   0.00000  Uiso   1.00
H168   H     0.41332   0.26325   0.36530   0.00000  Uiso   1.00
H169   H     0.20734   0.19159   0.71696   0.00000  Uiso   1.00
H170   H     0.07551   0.26874   0.73354   0.00000  Uiso   1.00
H171   H     0.24349   0.04774   0.79631   0.00000  Uiso   1.00
H172   H     0.30261   0.26524   0.63620   0.00000  Uiso   1.00
H173   H     0.93002   0.34322   0.72807   0.00000  Uiso   1.00
H174   H     0.28423   0.87725   0.86040   0.00000  Uiso   1.00
H175   H     0.40891   0.33589   0.52279   0.00000  Uiso   1.00
O176   O     0.84559   0.35609   0.65693   0.00000  Uiso   1.00
O177   O     0.31031   0.74476   0.83054   0.00000  Uiso   1.00
O178   O     0.47388   0.34648   0.38759   0.00000  Uiso   1.00
N179   N     0.95149   0.27710   0.60536   0.00000  Uiso   1.00
N180   N     0.28264   0.84145   0.72909   0.00000  Uiso   1.00
N181   N     0.39922   0.27022   0.41345   0.00000  Uiso   1.00
N182   N     0.94911   0.31619   0.69011   0.00000  Uiso   1.00
N183   N     0.28027   0.88054   0.81384   0.00000  Uiso   1.00
N184   N     0.39685   0.30930   0.49820   0.00000  Uiso   1.00
C185   C     0.52581   0.48805   0.98083   0.00000  Uiso   1.00
C186   C     0.56241   0.55304   0.95450   0.00000  Uiso   1.00
C187   C     0.61655   0.56570   0.89347   0.00000  Uiso   1.00
C188   C     0.64298   0.62829   0.87859   0.00000  Uiso   1.00
C189   C     0.70386   0.72191   0.83091   0.00000  Uiso   1.00
C190   C     0.44775   0.53007   0.98883   0.00000  Uiso   1.00
C191   C     0.40549   0.52340   0.95666   0.00000  Uiso   1.00
C192   C     0.33539   0.56665   0.97069   0.00000  Uiso   1.00
C193   C     0.21826   0.62456   0.97635   0.00000  Uiso   1.00
C194   C     0.53344   0.44180   0.05543   0.00000  Uiso   1.00
C195   C     0.56321   0.36091   0.07926   0.00000  Uiso   1.00
C196   C     0.56525   0.32984   0.14936   0.00000  Uiso   1.00
C197   C     0.58116   0.25070   0.25841   0.00000  Uiso   1.00
C198   C     0.47647   0.57670   0.06295   0.00000  Uiso   1.00
C199   C     0.53561   0.60119   0.99911   0.00000  Uiso   1.00
C200   C     0.56196   0.66378   0.98433   0.00000  Uiso   1.00
C201   C     0.61613   0.67653   0.92328   0.00000  Uiso   1.00
C202   C     0.42095   0.57822   0.03344   0.00000  Uiso   1.00
C203   C     0.35090   0.62149   0.04752   0.00000  Uiso   1.00
C204   C     0.30854   0.61489   0.01538   0.00000  Uiso   1.00
C205   C     0.50665   0.48995   0.10003   0.00000  Uiso   1.00
C206   C     0.50863   0.45900   0.17011   0.00000  Uiso   1.00
C207   C     0.53840   0.37808   0.19405   0.00000  Uiso   1.00
H208   H     0.54667   0.45057   0.94610   0.00000  Uiso   1.00
H209   H     0.63727   0.52843   0.85896   0.00000  Uiso   1.00
H210   H     0.42624   0.48613   0.92215   0.00000  Uiso   1.00
H211   H     0.58394   0.32367   0.04473   0.00000  Uiso   1.00
H212   H     0.72588   0.63600   0.78200   0.00000  Uiso   1.00
H213   H     0.28091   0.54680   0.91527   0.00000  Uiso   1.00
H214   H     0.61346   0.20422   0.17374   0.00000  Uiso   1.00
H215   H     0.45560   0.61420   0.09768   0.00000  Uiso   1.00
H216   H     0.54121   0.70104   0.01885   0.00000  Uiso   1.00
H217   H     0.33018   0.65874   0.08204   0.00000  Uiso   1.00
H218   H     0.48788   0.49628   0.20462   0.00000  Uiso   1.00
H219   H     0.64792   0.77610   0.91178   0.00000  Uiso   1.00
H220   H     0.20294   0.68689   0.04504   0.00000  Uiso   1.00
H221   H     0.53549   0.34432   0.30351   0.00000  Uiso   1.00
O222   O     0.74484   0.76024   0.79229   0.00000  Uiso   1.00
O223   O     0.16105   0.64320   0.96714   0.00000  Uiso   1.00
O224   O     0.59735   0.19374   0.30624   0.00000  Uiso   1.00
N225   N     0.69580   0.65705   0.82337   0.00000  Uiso   1.00
N226   N     0.27977   0.57366   0.94795   0.00000  Uiso   1.00
N227   N     0.59066   0.25337   0.18961   0.00000  Uiso   1.00
N228   N     0.65384   0.73243   0.89320   0.00000  Uiso   1.00
N229   N     0.23782   0.64904   0.01779   0.00000  Uiso   1.00
N230   N     0.54871   0.32875   0.25944   0.00000  Uiso   1.00
C231   C     0.84285   0.91438   0.33654   0.00000  Uiso   1.00
C232   C     0.90977   0.87636   0.36133   0.00000  Uiso   1.00
C233   C     0.91937   0.81251   0.42070   0.00000  Uiso   1.00
C234   C     0.98446   0.78647   0.43434   0.00000  Uiso   1.00
C235   C     0.08024   0.72185   0.47953   0.00000  Uiso   1.00
C236   C     0.86441   0.91112   0.26092   0.00000  Uiso   1.00
C237   C     0.83586   0.87651   0.23587   0.00000  Uiso   1.00
C238   C     0.86276   0.87974   0.16498   0.00000  Uiso   1.00
C239   C     0.88808   0.86914   0.05427   0.00000  Uiso   1.00
C240   C     0.82191   0.00177   0.33161   0.00000  Uiso   1.00
C241   C     0.75761   0.04339   0.36599   0.00000  Uiso   1.00
C242   C     0.74872   0.12295   0.35460   0.00000  Uiso   1.00
C243   C     0.70804   0.25309   0.35365   0.00000  Uiso   1.00
C244   C     0.94140   0.98168   0.25517   0.00000  Uiso   1.00
C245   C     0.96330   0.91291   0.31713   0.00000  Uiso   1.00
C246   C     0.02839   0.88696   0.33068   0.00000  Uiso   1.00
C247   C     0.03808   0.82309   0.39006   0.00000  Uiso   1.00
C248   C     0.91794   0.94767   0.21672   0.00000  Uiso   1.00
C249   C     0.94488   0.95097   0.14585   0.00000  Uiso   1.00
C250   C     0.91638   0.91636   0.12070   0.00000  Uiso   1.00
C251   C     0.87543   0.03833   0.28741   0.00000  Uiso   1.00
C252   C     0.86664   0.11784   0.27596   0.00000  Uiso   1.00
C253   C     0.80234   0.15957   0.31032   0.00000  Uiso   1.00
H254   H     0.80118   0.88592   0.37094   0.00000  Uiso   1.00
H255   H     0.87793   0.78423   0.45489   0.00000  Uiso   1.00
H256   H     0.79443   0.84823   0.27009   0.00000  Uiso   1.00
H257   H     0.71620   0.01508   0.40018   0.00000  Uiso   1.00
H258   H     0.98664   0.68759   0.52845   0.00000  Uiso   1.00
H259   H     0.81056   0.82256   0.13878   0.00000  Uiso   1.00
H260   H     0.64558   0.17440   0.41311   0.00000  Uiso   1.00
H261   H     0.98307   0.01014   0.22076   0.00000  Uiso   1.00
H262   H     0.06980   0.91526   0.29646   0.00000  Uiso   1.00
H263   H     0.98630   0.97926   0.11166   0.00000  Uiso   1.00
H264   H     0.90807   0.14611   0.24176   0.00000  Uiso   1.00
H265   H     0.14237   0.79394   0.39987   0.00000  Uiso   1.00
H266   H     0.96628   0.92891   0.01019   0.00000  Uiso   1.00
H267   H     0.80131   0.28074   0.28453   0.00000  Uiso   1.00
O268   O     0.11829   0.67610   0.51666   0.00000  Uiso   1.00
O269   O     0.88726   0.85319   0.00542   0.00000  Uiso   1.00
O270   O     0.67083   0.31478   0.36534   0.00000  Uiso   1.00
N271   N     0.01138   0.72565   0.48781   0.00000  Uiso   1.00
N272   N     0.84676   0.85183   0.12349   0.00000  Uiso   1.00
N273   N     0.69252   0.18077   0.37995   0.00000  Uiso   1.00
N274   N     0.09518   0.78288   0.41862   0.00000  Uiso   1.00
N275   N     0.93056   0.90905   0.05430   0.00000  Uiso   1.00
N276   N     0.77632   0.23799   0.31076   0.00000  Uiso   1.00
C277   C     0.65515   0.79710   0.09147   0.00000  Uiso   1.00
C278   C     0.69102   0.72560   0.06309   0.00000  Uiso   1.00
C279   C     0.75615   0.71272   0.01453   0.00000  Uiso   1.00
C280   C     0.77980   0.64367   0.99528   0.00000  Uiso   1.00
C281   C     0.84161   0.54087   0.94693   0.00000  Uiso   1.00
C282   C     0.64012   0.76399   0.17163   0.00000  Uiso   1.00
C283   C     0.66246   0.78339   0.21433   0.00000  Uiso   1.00
C284   C     0.64325   0.74666   0.28645   0.00000  Uiso   1.00
C285   C     0.62600   0.70350   0.40662   0.00000  Uiso   1.00
C286   C     0.58371   0.83337   0.07543   0.00000  Uiso   1.00
C287   C     0.55861   0.91111   0.03727   0.00000  Uiso   1.00
C288   C     0.49189   0.93279   0.02841   0.00000  Uiso   1.00
C289   C     0.38705   0.99735   0.99922   0.00000  Uiso   1.00
C290   C     0.58130   0.69738   0.14361   0.00000  Uiso   1.00
C291   C     0.65091   0.67144   0.09141   0.00000  Uiso   1.00
C292   C     0.67445   0.60239   0.07222   0.00000  Uiso   1.00
C293   C     0.73962   0.58940   0.02365   0.00000  Uiso   1.00
C294   C     0.60001   0.70982   0.19995   0.00000  Uiso   1.00
C295   C     0.58076   0.67306   0.27202   0.00000  Uiso   1.00
C296   C     0.60307   0.69239   0.31483   0.00000  Uiso   1.00
C297   C     0.54360   0.77920   0.10375   0.00000  Uiso   1.00
C298   C     0.47691   0.80077   0.09496   0.00000  Uiso   1.00
C299   C     0.45171   0.87852   0.05679   0.00000  Uiso   1.00
H300   H     0.68638   0.83927   0.06943   0.00000  Uiso   1.00
H301   H     0.78718   0.75465   0.99263   0.00000  Uiso   1.00
H302   H     0.69350   0.82532   0.19240   0.00000  Uiso   1.00
H303   H     0.58966   0.95301   0.01536   0.00000  Uiso   1.00
H304   H     0.88127   0.63693   0.92000   0.00000  Uiso   1.00
H305   H     0.68371   0.78596   0.34123   0.00000  Uiso   1.00
H306   H     0.46474   0.05522   0.96791   0.00000  Uiso   1.00
H307   H     0.55008   0.65520   0.16567   0.00000  Uiso   1.00
H308   H     0.64340   0.56048   0.09415   0.00000  Uiso   1.00
H309   H     0.54972   0.63114   0.29392   0.00000  Uiso   1.00
H310   H     0.44588   0.75883   0.11688   0.00000  Uiso   1.00
H311   H     0.76457   0.47933   0.00240   0.00000  Uiso   1.00
H312   H     0.56701   0.62836   0.42363   0.00000  Uiso   1.00
H313   H     0.34805   0.89762   0.05031   0.00000  Uiso   1.00
O314   O     0.88678   0.49913   0.91244   0.00000  Uiso   1.00
O315   O     0.62758   0.69465   0.46507   0.00000  Uiso   1.00
O316   O     0.34031   0.04792   0.97528   0.00000  Uiso   1.00
N317   N     0.84099   0.61285   0.94920   0.00000  Uiso   1.00
N318   N     0.65629   0.75217   0.34302   0.00000  Uiso   1.00
N319   N     0.45157   0.00391   0.99401   0.00000  Uiso   1.00
N320   N     0.77820   0.52804   0.99354   0.00000  Uiso   1.00
N321   N     0.59350   0.66736   0.38736   0.00000  Uiso   1.00
N322   N     0.38878   0.91911   0.03835   0.00000  Uiso   1.00
C323   C     0.30169   0.46997   0.78211   0.00000  Uiso   1.00
C324   C     0.29954   0.47269   0.71065   0.00000  Uiso   1.00
C325   C     0.26131   0.53551   0.66687   0.00000  Uiso   1.00
C326   C     0.26634   0.52645   0.60365   0.00000  Uiso   1.00
C327   C     0.25669   0.54124   0.49552   0.00000  Uiso   1.00
C328   C     0.37898   0.45302   0.77704   0.00000  Uiso   1.00
C329   C     0.40753   0.49929   0.78909   0.00000  Uiso   1.00
C330   C     0.47943   0.47366   0.78177   0.00000  Uiso   1.00
C331   C     0.59308   0.45788   0.77676   0.00000  Uiso   1.00
C332   C     0.27927   0.39665   0.83504   0.00000  Uiso   1.00
C333   C     0.22399   0.39552   0.89587   0.00000  Uiso   1.00
C334   C     0.21196   0.32243   0.93738   0.00000  Uiso   1.00
C335   C     0.17080   0.21913   0.02243   0.00000  Uiso   1.00
C336   C     0.37862   0.34218   0.74769   0.00000  Uiso   1.00
C337   C     0.34133   0.40328   0.69195   0.00000  Uiso   1.00
C338   C     0.34642   0.39412   0.62879   0.00000  Uiso   1.00
C339   C     0.30820   0.45691   0.58492   0.00000  Uiso   1.00
C340   C     0.42076   0.38361   0.75834   0.00000  Uiso   1.00
C341   C     0.49264   0.35790   0.75101   0.00000  Uiso   1.00
C342   C     0.52129   0.40412   0.76304   0.00000  Uiso   1.00
C343   C     0.32105   0.32723   0.81634   0.00000  Uiso   1.00
C344   C     0.30911   0.25413   0.85778   0.00000  Uiso   1.00
C345   C     0.25382   0.25289   0.91866   0.00000  Uiso   1.00
H346   H     0.26916   0.52401   0.79666   0.00000  Uiso   1.00
H347   H     0.22898   0.58922   0.68135   0.00000  Uiso   1.00
H348   H     0.37518   0.55300   0.80356   0.00000  Uiso   1.00
H349   H     0.19167   0.44924   0.91032   0.00000  Uiso   1.00
H350   H     0.20289   0.63091   0.54526   0.00000  Uiso   1.00
H351   H     0.51114   0.55452   0.80296   0.00000  Uiso   1.00
H352   H     0.12418   0.33574   0.02808   0.00000  Uiso   1.00
H353   H     0.41115   0.28814   0.73313   0.00000  Uiso   1.00
H354   H     0.37876   0.34040   0.61433   0.00000  Uiso   1.00
H355   H     0.52496   0.30418   0.73654   0.00000  Uiso   1.00
H356   H     0.34145   0.20043   0.84330   0.00000  Uiso   1.00
H357   H     0.32446   0.42896   0.49086   0.00000  Uiso   1.00
H358   H     0.63271   0.35257   0.74857   0.00000  Uiso   1.00
H359   H     0.24575   0.13379   0.97368   0.00000  Uiso   1.00
O360   O     0.23982   0.56857   0.44104   0.00000  Uiso   1.00
O361   O     0.64423   0.46835   0.77916   0.00000  Uiso   1.00
O362   O     0.13655   0.18132   0.07450   0.00000  Uiso   1.00
N363   N     0.23593   0.57620   0.54876   0.00000  Uiso   1.00
N364   N     0.52413   0.50479   0.78969   0.00000  Uiso   1.00
N365   N     0.16237   0.30025   0.00017   0.00000  Uiso   1.00
N366   N     0.30135   0.46753   0.51949   0.00000  Uiso   1.00
N367   N     0.58955   0.39612   0.76042   0.00000  Uiso   1.00
N368   N     0.22778   0.19158   0.97090   0.00000  Uiso   1.00
C369   C     0.07378   0.11912   0.42005   0.00000  Uiso   1.00
C370   C     0.02888   0.06100   0.45596   0.00000  Uiso   1.00
C371   C     0.02131   0.01171   0.52486   0.00000  Uiso   1.00
C372   C     0.97785   0.96287   0.54784   0.00000  Uiso   1.00
C373   C     0.91337   0.87258   0.61036   0.00000  Uiso   1.00
C374   C     0.02438   0.19998   0.39443   0.00000  Uiso   1.00
C375   C     0.01302   0.26755   0.41159   0.00000  Uiso   1.00
C376   C     0.96577   0.33571   0.38277   0.00000  Uiso   1.00
C377   C     0.89433   0.46120   0.34972   0.00000  Uiso   1.00
C378   C     0.12441   0.09701   0.35376   0.00000  Uiso   1.00
C379   C     0.19716   0.07801   0.33671   0.00000  Uiso   1.00
C380   C     0.23413   0.05949   0.27363   0.00000  Uiso   1.00
C381   C     0.31801   0.02511   0.17744   0.00000  Uiso   1.00
C382   C     0.01006   0.12003   0.33832   0.00000  Uiso   1.00
C383   C     0.99427   0.06150   0.41156   0.00000  Uiso   1.00
C384   C     0.95081   0.01272   0.43444   0.00000  Uiso   1.00
C385   C     0.94318   0.96336   0.50337   0.00000  Uiso   1.00
C386   C     0.98976   0.20048   0.35004   0.00000  Uiso   1.00
C387   C     0.94252   0.26856   0.32117   0.00000  Uiso   1.00
C388   C     0.93109   0.33620   0.33829   0.00000  Uiso   1.00
C389   C     0.08980   0.09750   0.30936   0.00000  Uiso   1.00
C390   C     0.12666   0.07902   0.24629   0.00000  Uiso   1.00
C391   C     0.19946   0.05999   0.22916   0.00000  Uiso   1.00
H392   H     0.10073   0.11874   0.45461   0.00000  Uiso   1.00
H393   H     0.04810   0.01135   0.55920   0.00000  Uiso   1.00
H394   H     0.03982   0.26715   0.44594   0.00000  Uiso   1.00
H395   H     0.22393   0.07764   0.37108   0.00000  Uiso   1.00
H396   H     0.97447   0.89253   0.65559   0.00000  Uiso   1.00
H397   H     0.95702   0.43190   0.41677   0.00000  Uiso   1.00
H398   H     0.34526   0.03228   0.25889   0.00000  Uiso   1.00
H399   H     0.98311   0.12042   0.30375   0.00000  Uiso   1.00
H400   H     0.92403   0.01312   0.40007   0.00000  Uiso   1.00
H401   H     0.91575   0.26892   0.28682   0.00000  Uiso   1.00
H402   H     0.09986   0.07941   0.21195   0.00000  Uiso   1.00
H403   H     0.87377   0.89396   0.52644   0.00000  Uiso   1.00
H404   H     0.85633   0.43334   0.28761   0.00000  Uiso   1.00
H405   H     0.24456   0.03372   0.12974   0.00000  Uiso   1.00
O406   O     0.88736   0.82265   0.65711   0.00000  Uiso   1.00
O407   O     0.86448   0.53028   0.34377   0.00000  Uiso   1.00
O408   O     0.37384   0.00599   0.13665   0.00000  Uiso   1.00
N409   N     0.95889   0.90758   0.61197   0.00000  Uiso   1.00
N410   N     0.94257   0.41186   0.38870   0.00000  Uiso   1.00
N411   N     0.30554   0.03827   0.24109   0.00000  Uiso   1.00
N412   N     0.90471   0.90835   0.54248   0.00000  Uiso   1.00
N413   N     0.88838   0.41263   0.31920   0.00000  Uiso   1.00
N414   N     0.25135   0.03904   0.17159   0.00000  Uiso   1.00
C415   C     0.20238   0.58578   0.29654   0.00000  Uiso   1.00
C416   C     0.23768   0.52949   0.25101   0.00000  Uiso   1.00
C417   C     0.30022   0.47010   0.25368   0.00000  Uiso   1.00
C418   C     0.32379   0.42498   0.20766   0.00000  Uiso   1.00
C419   C     0.38434   0.33551   0.14408   0.00000  Uiso   1.00
C420   C     0.19355   0.66918   0.24528   0.00000  Uiso   1.00
C421   C     0.21898   0.72724   0.24314   0.00000  Uiso   1.00
C422   C     0.20538   0.79972   0.19230   0.00000  Uiso   1.00
C423   C     0.19739   0.92714   0.11986   0.00000  Uiso   1.00
C424   C     0.12837   0.57614   0.33407   0.00000  Uiso   1.00
C425   C     0.09900   0.55598   0.40659   0.00000  Uiso   1.00
C426   C     0.03052   0.55014   0.43051   0.00000  Uiso   1.00
C427   C     0.92133   0.53309   0.49594   0.00000  Uiso   1.00
C428   C     0.13300   0.61127   0.21007   0.00000  Uiso   1.00
C429   C     0.19999   0.54334   0.20404   0.00000  Uiso   1.00
C430   C     0.22346   0.49831   0.15801   0.00000  Uiso   1.00
C431   C     0.28603   0.43885   0.16061   0.00000  Uiso   1.00
C432   C     0.15586   0.68303   0.19831   0.00000  Uiso   1.00
C433   C     0.14222   0.75545   0.14747   0.00000  Uiso   1.00
C434   C     0.16763   0.81360   0.14525   0.00000  Uiso   1.00
C435   C     0.09068   0.58998   0.28711   0.00000  Uiso   1.00
C436   C     0.02223   0.58419   0.31092   0.00000  Uiso   1.00
C437   C     0.99276   0.56402   0.38346   0.00000  Uiso   1.00
H438   H     0.23172   0.57500   0.33310   0.00000  Uiso   1.00
H439   H     0.32938   0.45940   0.29003   0.00000  Uiso   1.00
H440   H     0.24814   0.71651   0.27949   0.00000  Uiso   1.00
H441   H     0.12818   0.54527   0.44292   0.00000  Uiso   1.00
H442   H     0.42104   0.33737   0.22154   0.00000  Uiso   1.00
H443   H     0.24973   0.87950   0.19934   0.00000  Uiso   1.00
H444   H     0.99676   0.51841   0.54396   0.00000  Uiso   1.00
H445   H     0.10365   0.62206   0.17351   0.00000  Uiso   1.00
H446   H     0.19428   0.50904   0.12167   0.00000  Uiso   1.00
H447   H     0.11305   0.76615   0.11114   0.00000  Uiso   1.00
H448   H     0.99309   0.59491   0.27456   0.00000  Uiso   1.00
H449   H     0.31140   0.37766   0.08490   0.00000  Uiso   1.00
H450   H     0.14008   0.91979   0.06270   0.00000  Uiso   1.00
H451   H     0.88712   0.55870   0.40731   0.00000  Uiso   1.00
O452   O     0.42816   0.28233   0.12198   0.00000  Uiso   1.00
O453   O     0.20339   0.99359   0.09287   0.00000  Uiso   1.00
O454   O     0.87151   0.51984   0.54500   0.00000  Uiso   1.00
N455   N     0.38279   0.36235   0.19650   0.00000  Uiso   1.00
N456   N     0.22263   0.86920   0.17574   0.00000  Uiso   1.00
N457   N     0.98612   0.53164   0.49793   0.00000  Uiso   1.00
N458   N     0.32379   0.38403   0.12298   0.00000  Uiso   1.00
N459   N     0.16363   0.89088   0.10221   0.00000  Uiso   1.00
N460   N     0.92712   0.55332   0.42440   0.00000  Uiso   1.00
C461   C     0.88625   0.19270   0.02311   0.00000  Uiso   1.00
C462   C     0.83113   0.14678   0.06384   0.00000  Uiso   1.00
C463   C     0.79386   0.13768   0.13425   0.00000  Uiso   1.00
C464   C     0.74577   0.09348   0.16176   0.00000  Uiso   1.00
C465   C     0.66179   0.02729   0.23133   0.00000  Uiso   1.00
C466   C     0.95291   0.13444   0.99392   0.00000  Uiso   1.00
C467   C     0.01804   0.11498   0.00552   0.00000  Uiso   1.00
C468   C     0.07246   0.06039   0.97417   0.00000  Uiso   1.00
C469   C     0.17755   0.97509   0.93513   0.00000  Uiso   1.00
C470   C     0.86159   0.25415   0.95926   0.00000  Uiso   1.00
C471   C     0.84995   0.33536   0.94172   0.00000  Uiso   1.00
C472   C     0.82751   0.38157   0.88118   0.00000  Uiso   1.00
C473   C     0.79082   0.48215   0.78833   0.00000  Uiso   1.00
C474   C     0.86710   0.13037   0.94678   0.00000  Uiso   1.00
C475   C     0.82073   0.11292   0.02238   0.00000  Uiso   1.00
C476   C     0.77267   0.06872   0.04979   0.00000  Uiso   1.00
C477   C     0.73534   0.05956   0.12023   0.00000  Uiso   1.00
C478   C     0.94251   0.10058   0.95246   0.00000  Uiso   1.00
C479   C     0.99685   0.04602   0.92107   0.00000  Uiso   1.00
C480   C     0.06204   0.02647   0.93263   0.00000  Uiso   1.00
C481   C     0.85119   0.22030   0.91780   0.00000  Uiso   1.00
C482   C     0.82876   0.26639   0.85727   0.00000  Uiso   1.00
C483   C     0.81709   0.34765   0.83964   0.00000  Uiso   1.00
H484   H     0.89435   0.21905   0.05539   0.00000  Uiso   1.00
H485   H     0.80193   0.16389   0.16632   0.00000  Uiso   1.00
H486   H     0.02607   0.14119   0.03761   0.00000  Uiso   1.00
H487   H     0.85801   0.36154   0.97382   0.00000  Uiso   1.00
H488   H     0.69490   0.08777   0.27103   0.00000  Uiso   1.00
H489   H     0.16751   0.03994   0.99961   0.00000  Uiso   1.00
H490   H     0.81313   0.50458   0.86510   0.00000  Uiso   1.00
H491   H     0.85900   0.10400   0.91449   0.00000  Uiso   1.00
H492   H     0.76464   0.04253   0.01770   0.00000  Uiso   1.00
H493   H     0.98878   0.01983   0.88898   0.00000  Uiso   1.00
H494   H     0.82072   0.24017   0.82520   0.00000  Uiso   1.00
H495   H     0.66463   0.98926   0.15040   0.00000  Uiso   1.00
H496   H     0.13725   0.94144   0.87898   0.00000  Uiso   1.00
H497   H     0.78286   0.40607   0.74447   0.00000  Uiso   1.00
O498   O     0.61835   0.00013   0.28115   0.00000  Uiso   1.00
O499   O     0.23840   0.93739   0.92505   0.00000  Uiso   1.00
O500   O     0.77345   0.54698   0.74858   0.00000  Uiso   1.00
N501   N     0.70072   0.07304   0.22847   0.00000  Uiso   1.00
N502   N     0.14258   0.02831   0.97472   0.00000  Uiso   1.00
N503   N     0.81128   0.46270   0.84896   0.00000  Uiso   1.00
N504   N     0.68443   0.02003   0.16356   0.00000  Uiso   1.00
N505   N     0.12629   0.97531   0.90981   0.00000  Uiso   1.00
N506   N     0.79499   0.40970   0.78405   0.00000  Uiso   1.00
C507   C     0.59754   0.90409   0.66074   0.00000  Uiso   1.00
C508   C     0.56454   0.93559   0.59944   0.00000  Uiso   1.00
C509   C     0.55348   0.01254   0.55484   0.00000  Uiso   1.00
C510   C     0.52256   0.02960   0.50195   0.00000  Uiso   1.00
C511   C     0.47420   0.08733   0.40800   0.00000  Uiso   1.00
C512   C     0.54405   0.87005   0.72602   0.00000  Uiso   1.00
C513   C     0.51577   0.89189   0.78784   0.00000  Uiso   1.00
C514   C     0.46760   0.85377   0.84149   0.00000  Uiso   1.00
C515   C     0.38746   0.80970   0.94407   0.00000  Uiso   1.00
C516   C     0.65988   0.83363   0.64674   0.00000  Uiso   1.00
C517   C     0.72899   0.82482   0.64193   0.00000  Uiso   1.00
C518   C     0.77834   0.75603   0.62885   0.00000  Uiso   1.00
C519   C     0.87804   0.65540   0.60835   0.00000  Uiso   1.00
C520   C     0.56229   0.79756   0.64611   0.00000  Uiso   1.00
C521   C     0.54540   0.87772   0.59150   0.00000  Uiso   1.00
C522   C     0.51448   0.89467   0.53865   0.00000  Uiso   1.00
C523   C     0.50338   0.97163   0.49398   0.00000  Uiso   1.00
C524   C     0.52490   0.81219   0.71807   0.00000  Uiso   1.00
C525   C     0.47677   0.77402   0.77165   0.00000  Uiso   1.00
C526   C     0.44841   0.79580   0.83353   0.00000  Uiso   1.00
C527   C     0.64073   0.77576   0.63879   0.00000  Uiso   1.00
C528   C     0.68998   0.70696   0.62573   0.00000  Uiso   1.00
C529   C     0.75915   0.69806   0.62090   0.00000  Uiso   1.00
H530   H     0.61245   0.94914   0.66693   0.00000  Uiso   1.00
H531   H     0.56830   0.05731   0.56101   0.00000  Uiso   1.00
H532   H     0.53060   0.93667   0.79397   0.00000  Uiso   1.00
H533   H     0.74378   0.86962   0.64808   0.00000  Uiso   1.00
H534   H     0.51089   0.15172   0.44010   0.00000  Uiso   1.00
H535   H     0.43141   0.89732   0.93131   0.00000  Uiso   1.00
H536   H     0.88095   0.75593   0.62367   0.00000  Uiso   1.00
H537   H     0.54739   0.75250   0.63993   0.00000  Uiso   1.00
H538   H     0.49967   0.84988   0.53252   0.00000  Uiso   1.00
H539   H     0.46197   0.72924   0.76548   0.00000  Uiso   1.00
H540   H     0.67515   0.66219   0.61959   0.00000  Uiso   1.00
H541   H     0.45518   0.98337   0.41697   0.00000  Uiso   1.00
H542   H     0.37570   0.72897   0.90819   0.00000  Uiso   1.00
H543   H     0.82524   0.58758   0.60054   0.00000  Uiso   1.00
O544   O     0.45280   0.13516   0.35838   0.00000  Uiso   1.00
O545   O     0.34853   0.80139   0.00284   0.00000  Uiso   1.00
O546   O     0.93832   0.61589   0.59922   0.00000  Uiso   1.00
N547   N     0.50434   0.09873   0.44938   0.00000  Uiso   1.00
N548   N     0.43002   0.86089   0.90864   0.00000  Uiso   1.00
N549   N     0.85030   0.72870   0.62104   0.00000  Uiso   1.00
N550   N     0.47437   0.00814   0.43694   0.00000  Uiso   1.00
N551   N     0.40005   0.77030   0.89620   0.00000  Uiso   1.00
N552   N     0.82033   0.63811   0.60859   0.00000  Uiso   1.00
