data_job_00949
_audit_creation_date              2018-12-19
_audit_creation_method            'Materials Studio'
_symmetry_space_group_name_H-M    'P1'
_symmetry_Int_Tables_number       1
_symmetry_cell_setting            triclinic
loop_
_symmetry_equiv_pos_as_xyz
  x,y,z
_cell_length_a                    39.1359
_cell_length_b                    7.8747
_cell_length_c                    17.2045
_cell_angle_alpha                 90.0000
_cell_angle_beta                  94.9174
_cell_angle_gamma                 90.0000
loop_
_atom_site_label
_atom_site_type_symbol
_atom_site_fract_x
_atom_site_fract_y
_atom_site_fract_z
_atom_site_U_iso_or_equiv
_atom_site_adp_type
_atom_site_occupancy
C1     C     0.39563   0.89204   0.22954   0.00000  Uiso   1.00
C2     C     0.36761   0.94262   0.16673   0.00000  Uiso   1.00
C3     C     0.33881   0.84703   0.14290   0.00000  Uiso   1.00
C4     C     0.31621   0.91550   0.08458   0.00000  Uiso   1.00
C5     C     0.27181   0.96991   0.99207   0.00000  Uiso   1.00
C6     C     0.42920   0.89766   0.19072   0.00000  Uiso   1.00
C7     C     0.45219   0.76427   0.18708   0.00000  Uiso   1.00
C8     C     0.48144   0.79490   0.14895   0.00000  Uiso   1.00
C9     C     0.53267   0.77955   0.09375   0.00000  Uiso   1.00
C10    C     0.39766   0.03563   0.28922   0.00000  Uiso   1.00
C11    C     0.39413   0.01825   0.36841   0.00000  Uiso   1.00
C12    C     0.39684   0.16505   0.41322   0.00000  Uiso   1.00
C13    C     0.39909   0.36392   0.51095   0.00000  Uiso   1.00
C14    C     0.40671   0.18361   0.16832   0.00000  Uiso   1.00
C15    C     0.37363   0.10099   0.13348   0.00000  Uiso   1.00
C16    C     0.35107   0.16963   0.07517   0.00000  Uiso   1.00
C17    C     0.32224   0.07416   0.05127   0.00000  Uiso   1.00
C18    C     0.43522   0.05602   0.15747   0.00000  Uiso   1.00
C19    C     0.46445   0.08686   0.11935   0.00000  Uiso   1.00
C20    C     0.48747   0.95355   0.11564   0.00000  Uiso   1.00
C21    C     0.40368   0.19401   0.25597   0.00000  Uiso   1.00
C22    C     0.40639   0.34085   0.30067   0.00000  Uiso   1.00
C23    C     0.40287   0.32370   0.37991   0.00000  Uiso   1.00
H24    H     0.39094   0.76874   0.25543   0.00000  Uiso   1.00
H25    H     0.33416   0.72447   0.16864   0.00000  Uiso   1.00
H26    H     0.44752   0.64173   0.21282   0.00000  Uiso   1.00
H27    H     0.38947   0.89568   0.39412   0.00000  Uiso   1.00
H28    H     0.27387   0.74521   0.05775   0.00000  Uiso   1.00
H29    H     0.51291   0.57076   0.15091   0.00000  Uiso   1.00
H30    H     0.39050   0.10626   0.53322   0.00000  Uiso   1.00
H31    H     0.41140   0.30691   0.14244   0.00000  Uiso   1.00
H32    H     0.35574   0.29219   0.04945   0.00000  Uiso   1.00
H33    H     0.46910   0.20944   0.09363   0.00000  Uiso   1.00
H34    H     0.41105   0.46339   0.27492   0.00000  Uiso   1.00
H35    H     0.29139   0.20598   0.96100   0.00000  Uiso   1.00
H36    H     0.53043   0.03154   0.05417   0.00000  Uiso   1.00
H37    H     0.40801   0.56704   0.43648   0.00000  Uiso   1.00
O38    O     0.24565   0.95617   0.95023   0.00000  Uiso   1.00
O39    O     0.55926   0.72731   0.07248   0.00000  Uiso   1.00
O40    O     0.39866   0.42987   0.57405   0.00000  Uiso   1.00
N41    N     0.28563   0.85569   0.04775   0.00000  Uiso   1.00
N42    N     0.50911   0.69258   0.13484   0.00000  Uiso   1.00
N43    N     0.39468   0.19322   0.49227   0.00000  Uiso   1.00
N44    N     0.29505   0.10363   0.99569   0.00000  Uiso   1.00
N45    N     0.51854   0.94052   0.08279   0.00000  Uiso   1.00
N46    N     0.40410   0.44116   0.44022   0.00000  Uiso   1.00
C47    C     0.89563   0.39204   0.22954   0.00000  Uiso   1.00
C48    C     0.86761   0.44262   0.16673   0.00000  Uiso   1.00
C49    C     0.83881   0.34703   0.14290   0.00000  Uiso   1.00
C50    C     0.81621   0.41550   0.08458   0.00000  Uiso   1.00
C51    C     0.77181   0.46991   0.99207   0.00000  Uiso   1.00
C52    C     0.92920   0.39766   0.19072   0.00000  Uiso   1.00
C53    C     0.95219   0.26427   0.18708   0.00000  Uiso   1.00
C54    C     0.98144   0.29490   0.14895   0.00000  Uiso   1.00
C55    C     0.03267   0.27955   0.09375   0.00000  Uiso   1.00
C56    C     0.89766   0.53563   0.28922   0.00000  Uiso   1.00
C57    C     0.89413   0.51825   0.36841   0.00000  Uiso   1.00
C58    C     0.89684   0.66505   0.41322   0.00000  Uiso   1.00
C59    C     0.89909   0.86392   0.51095   0.00000  Uiso   1.00
C60    C     0.90671   0.68361   0.16832   0.00000  Uiso   1.00
C61    C     0.87363   0.60099   0.13348   0.00000  Uiso   1.00
C62    C     0.85107   0.66963   0.07517   0.00000  Uiso   1.00
C63    C     0.82224   0.57416   0.05127   0.00000  Uiso   1.00
C64    C     0.93522   0.55602   0.15747   0.00000  Uiso   1.00
C65    C     0.96445   0.58686   0.11935   0.00000  Uiso   1.00
C66    C     0.98747   0.45355   0.11564   0.00000  Uiso   1.00
C67    C     0.90368   0.69401   0.25597   0.00000  Uiso   1.00
C68    C     0.90639   0.84085   0.30067   0.00000  Uiso   1.00
C69    C     0.90287   0.82370   0.37991   0.00000  Uiso   1.00
H70    H     0.89094   0.26874   0.25543   0.00000  Uiso   1.00
H71    H     0.83416   0.22447   0.16864   0.00000  Uiso   1.00
H72    H     0.94752   0.14173   0.21282   0.00000  Uiso   1.00
H73    H     0.88947   0.39568   0.39412   0.00000  Uiso   1.00
H74    H     0.77387   0.24521   0.05775   0.00000  Uiso   1.00
H75    H     0.01291   0.07076   0.15091   0.00000  Uiso   1.00
H76    H     0.89050   0.60626   0.53322   0.00000  Uiso   1.00
H77    H     0.91140   0.80691   0.14244   0.00000  Uiso   1.00
H78    H     0.85574   0.79219   0.04945   0.00000  Uiso   1.00
H79    H     0.96910   0.70944   0.09363   0.00000  Uiso   1.00
H80    H     0.91105   0.96339   0.27492   0.00000  Uiso   1.00
H81    H     0.79139   0.70598   0.96100   0.00000  Uiso   1.00
H82    H     0.03043   0.53154   0.05417   0.00000  Uiso   1.00
H83    H     0.90801   0.06704   0.43648   0.00000  Uiso   1.00
O84    O     0.74565   0.45617   0.95023   0.00000  Uiso   1.00
O85    O     0.05926   0.22731   0.07248   0.00000  Uiso   1.00
O86    O     0.89866   0.92987   0.57405   0.00000  Uiso   1.00
N87    N     0.78563   0.35569   0.04775   0.00000  Uiso   1.00
N88    N     0.00911   0.19258   0.13484   0.00000  Uiso   1.00
N89    N     0.89468   0.69322   0.49227   0.00000  Uiso   1.00
N90    N     0.79505   0.60363   0.99569   0.00000  Uiso   1.00
N91    N     0.01854   0.44052   0.08279   0.00000  Uiso   1.00
N92    N     0.90410   0.94116   0.44022   0.00000  Uiso   1.00
C93    C     0.60437   0.89204   0.27046   0.00000  Uiso   1.00
C94    C     0.63239   0.94262   0.33327   0.00000  Uiso   1.00
C95    C     0.66119   0.84703   0.35710   0.00000  Uiso   1.00
C96    C     0.68379   0.91550   0.41542   0.00000  Uiso   1.00
C97    C     0.72819   0.96991   0.50793   0.00000  Uiso   1.00
C98    C     0.57080   0.89766   0.30928   0.00000  Uiso   1.00
C99    C     0.54781   0.76427   0.31292   0.00000  Uiso   1.00
C100   C     0.51856   0.79490   0.35105   0.00000  Uiso   1.00
C101   C     0.46733   0.77955   0.40625   0.00000  Uiso   1.00
C102   C     0.60234   0.03563   0.21078   0.00000  Uiso   1.00
C103   C     0.60587   0.01825   0.13159   0.00000  Uiso   1.00
C104   C     0.60316   0.16505   0.08678   0.00000  Uiso   1.00
C105   C     0.60091   0.36392   0.98905   0.00000  Uiso   1.00
C106   C     0.59329   0.18361   0.33168   0.00000  Uiso   1.00
C107   C     0.62637   0.10099   0.36652   0.00000  Uiso   1.00
C108   C     0.64893   0.16963   0.42483   0.00000  Uiso   1.00
C109   C     0.67776   0.07416   0.44873   0.00000  Uiso   1.00
C110   C     0.56478   0.05602   0.34253   0.00000  Uiso   1.00
C111   C     0.53555   0.08686   0.38065   0.00000  Uiso   1.00
C112   C     0.51253   0.95355   0.38436   0.00000  Uiso   1.00
C113   C     0.59632   0.19401   0.24403   0.00000  Uiso   1.00
C114   C     0.59361   0.34085   0.19933   0.00000  Uiso   1.00
C115   C     0.59713   0.32370   0.12009   0.00000  Uiso   1.00
H116   H     0.60906   0.76874   0.24457   0.00000  Uiso   1.00
H117   H     0.66584   0.72447   0.33136   0.00000  Uiso   1.00
H118   H     0.55248   0.64173   0.28718   0.00000  Uiso   1.00
H119   H     0.61053   0.89568   0.10588   0.00000  Uiso   1.00
H120   H     0.72613   0.74521   0.44225   0.00000  Uiso   1.00
H121   H     0.48709   0.57076   0.34909   0.00000  Uiso   1.00
H122   H     0.60950   0.10626   0.96678   0.00000  Uiso   1.00
H123   H     0.58860   0.30691   0.35756   0.00000  Uiso   1.00
H124   H     0.64426   0.29219   0.45055   0.00000  Uiso   1.00
H125   H     0.53090   0.20944   0.40637   0.00000  Uiso   1.00
H126   H     0.58895   0.46339   0.22508   0.00000  Uiso   1.00
H127   H     0.70861   0.20598   0.53900   0.00000  Uiso   1.00
H128   H     0.46957   0.03154   0.44583   0.00000  Uiso   1.00
H129   H     0.59199   0.56704   0.06352   0.00000  Uiso   1.00
O130   O     0.75435   0.95617   0.54977   0.00000  Uiso   1.00
O131   O     0.44074   0.72731   0.42752   0.00000  Uiso   1.00
O132   O     0.60134   0.42987   0.92595   0.00000  Uiso   1.00
N133   N     0.71437   0.85569   0.45225   0.00000  Uiso   1.00
N134   N     0.49089   0.69258   0.36516   0.00000  Uiso   1.00
N135   N     0.60532   0.19322   0.00773   0.00000  Uiso   1.00
N136   N     0.70495   0.10363   0.50431   0.00000  Uiso   1.00
N137   N     0.48146   0.94052   0.41721   0.00000  Uiso   1.00
N138   N     0.59590   0.44116   0.05978   0.00000  Uiso   1.00
C139   C     0.10437   0.39204   0.27046   0.00000  Uiso   1.00
C140   C     0.13239   0.44262   0.33327   0.00000  Uiso   1.00
C141   C     0.16119   0.34703   0.35710   0.00000  Uiso   1.00
C142   C     0.18379   0.41550   0.41542   0.00000  Uiso   1.00
C143   C     0.22819   0.46991   0.50793   0.00000  Uiso   1.00
C144   C     0.07080   0.39766   0.30928   0.00000  Uiso   1.00
C145   C     0.04781   0.26427   0.31292   0.00000  Uiso   1.00
C146   C     0.01856   0.29490   0.35105   0.00000  Uiso   1.00
C147   C     0.96733   0.27955   0.40625   0.00000  Uiso   1.00
C148   C     0.10234   0.53563   0.21078   0.00000  Uiso   1.00
C149   C     0.10587   0.51825   0.13159   0.00000  Uiso   1.00
C150   C     0.10316   0.66505   0.08678   0.00000  Uiso   1.00
C151   C     0.10091   0.86392   0.98905   0.00000  Uiso   1.00
C152   C     0.09329   0.68361   0.33168   0.00000  Uiso   1.00
C153   C     0.12637   0.60099   0.36652   0.00000  Uiso   1.00
C154   C     0.14893   0.66963   0.42483   0.00000  Uiso   1.00
C155   C     0.17776   0.57416   0.44873   0.00000  Uiso   1.00
C156   C     0.06478   0.55602   0.34253   0.00000  Uiso   1.00
C157   C     0.03555   0.58686   0.38065   0.00000  Uiso   1.00
C158   C     0.01253   0.45355   0.38436   0.00000  Uiso   1.00
C159   C     0.09632   0.69401   0.24403   0.00000  Uiso   1.00
C160   C     0.09361   0.84085   0.19933   0.00000  Uiso   1.00
C161   C     0.09713   0.82370   0.12009   0.00000  Uiso   1.00
H162   H     0.10906   0.26874   0.24457   0.00000  Uiso   1.00
H163   H     0.16584   0.22447   0.33136   0.00000  Uiso   1.00
H164   H     0.05248   0.14173   0.28718   0.00000  Uiso   1.00
H165   H     0.11053   0.39568   0.10588   0.00000  Uiso   1.00
H166   H     0.22613   0.24521   0.44225   0.00000  Uiso   1.00
H167   H     0.98709   0.07076   0.34909   0.00000  Uiso   1.00
H168   H     0.10950   0.60626   0.96678   0.00000  Uiso   1.00
H169   H     0.08860   0.80691   0.35756   0.00000  Uiso   1.00
H170   H     0.14426   0.79219   0.45055   0.00000  Uiso   1.00
H171   H     0.03090   0.70944   0.40637   0.00000  Uiso   1.00
H172   H     0.08895   0.96339   0.22508   0.00000  Uiso   1.00
H173   H     0.20861   0.70598   0.53900   0.00000  Uiso   1.00
H174   H     0.96957   0.53154   0.44583   0.00000  Uiso   1.00
H175   H     0.09199   0.06704   0.06352   0.00000  Uiso   1.00
O176   O     0.25435   0.45617   0.54977   0.00000  Uiso   1.00
O177   O     0.94074   0.22731   0.42752   0.00000  Uiso   1.00
O178   O     0.10134   0.92987   0.92595   0.00000  Uiso   1.00
N179   N     0.21437   0.35569   0.45225   0.00000  Uiso   1.00
N180   N     0.99089   0.19258   0.36516   0.00000  Uiso   1.00
N181   N     0.10532   0.69322   0.00773   0.00000  Uiso   1.00
N182   N     0.20495   0.60363   0.50431   0.00000  Uiso   1.00
N183   N     0.98146   0.44052   0.41721   0.00000  Uiso   1.00
N184   N     0.09590   0.94116   0.05978   0.00000  Uiso   1.00
C185   C     0.60437   0.10796   0.77046   0.00000  Uiso   1.00
C186   C     0.63239   0.05738   0.83327   0.00000  Uiso   1.00
C187   C     0.66119   0.15297   0.85710   0.00000  Uiso   1.00
C188   C     0.68379   0.08450   0.91542   0.00000  Uiso   1.00
C189   C     0.72819   0.03009   0.00793   0.00000  Uiso   1.00
C190   C     0.57080   0.10234   0.80928   0.00000  Uiso   1.00
C191   C     0.54781   0.23573   0.81292   0.00000  Uiso   1.00
C192   C     0.51856   0.20510   0.85105   0.00000  Uiso   1.00
C193   C     0.46733   0.22045   0.90625   0.00000  Uiso   1.00
C194   C     0.60234   0.96437   0.71078   0.00000  Uiso   1.00
C195   C     0.60587   0.98175   0.63159   0.00000  Uiso   1.00
C196   C     0.60316   0.83495   0.58678   0.00000  Uiso   1.00
C197   C     0.60091   0.63608   0.48905   0.00000  Uiso   1.00
C198   C     0.59329   0.81639   0.83168   0.00000  Uiso   1.00
C199   C     0.62637   0.89901   0.86652   0.00000  Uiso   1.00
C200   C     0.64893   0.83037   0.92483   0.00000  Uiso   1.00
C201   C     0.67776   0.92584   0.94873   0.00000  Uiso   1.00
C202   C     0.56478   0.94398   0.84253   0.00000  Uiso   1.00
C203   C     0.53555   0.91314   0.88065   0.00000  Uiso   1.00
C204   C     0.51253   0.04645   0.88436   0.00000  Uiso   1.00
C205   C     0.59632   0.80599   0.74403   0.00000  Uiso   1.00
C206   C     0.59361   0.65915   0.69933   0.00000  Uiso   1.00
C207   C     0.59713   0.67630   0.62009   0.00000  Uiso   1.00
H208   H     0.60906   0.23126   0.74457   0.00000  Uiso   1.00
H209   H     0.66584   0.27553   0.83136   0.00000  Uiso   1.00
H210   H     0.55248   0.35827   0.78718   0.00000  Uiso   1.00
H211   H     0.61053   0.10432   0.60588   0.00000  Uiso   1.00
H212   H     0.72613   0.25479   0.94225   0.00000  Uiso   1.00
H213   H     0.48709   0.42924   0.84909   0.00000  Uiso   1.00
H214   H     0.60950   0.89374   0.46678   0.00000  Uiso   1.00
H215   H     0.58860   0.69309   0.85756   0.00000  Uiso   1.00
H216   H     0.64426   0.70781   0.95055   0.00000  Uiso   1.00
H217   H     0.53090   0.79056   0.90637   0.00000  Uiso   1.00
H218   H     0.58895   0.53661   0.72508   0.00000  Uiso   1.00
H219   H     0.70861   0.79402   0.03900   0.00000  Uiso   1.00
H220   H     0.46957   0.96846   0.94583   0.00000  Uiso   1.00
H221   H     0.59199   0.43296   0.56352   0.00000  Uiso   1.00
O222   O     0.75435   0.04383   0.04977   0.00000  Uiso   1.00
O223   O     0.44074   0.27269   0.92752   0.00000  Uiso   1.00
O224   O     0.60134   0.57013   0.42595   0.00000  Uiso   1.00
N225   N     0.71437   0.14431   0.95225   0.00000  Uiso   1.00
N226   N     0.49089   0.30742   0.86516   0.00000  Uiso   1.00
N227   N     0.60532   0.80678   0.50773   0.00000  Uiso   1.00
N228   N     0.70495   0.89637   0.00431   0.00000  Uiso   1.00
N229   N     0.48146   0.05948   0.91721   0.00000  Uiso   1.00
N230   N     0.59590   0.55884   0.55978   0.00000  Uiso   1.00
C231   C     0.10437   0.60796   0.77046   0.00000  Uiso   1.00
C232   C     0.13239   0.55738   0.83327   0.00000  Uiso   1.00
C233   C     0.16119   0.65297   0.85710   0.00000  Uiso   1.00
C234   C     0.18379   0.58450   0.91542   0.00000  Uiso   1.00
C235   C     0.22819   0.53009   0.00793   0.00000  Uiso   1.00
C236   C     0.07080   0.60234   0.80928   0.00000  Uiso   1.00
C237   C     0.04781   0.73573   0.81292   0.00000  Uiso   1.00
C238   C     0.01856   0.70510   0.85105   0.00000  Uiso   1.00
C239   C     0.96733   0.72045   0.90625   0.00000  Uiso   1.00
C240   C     0.10234   0.46437   0.71078   0.00000  Uiso   1.00
C241   C     0.10587   0.48175   0.63159   0.00000  Uiso   1.00
C242   C     0.10316   0.33495   0.58678   0.00000  Uiso   1.00
C243   C     0.10091   0.13608   0.48905   0.00000  Uiso   1.00
C244   C     0.09329   0.31639   0.83168   0.00000  Uiso   1.00
C245   C     0.12637   0.39901   0.86652   0.00000  Uiso   1.00
C246   C     0.14893   0.33037   0.92483   0.00000  Uiso   1.00
C247   C     0.17776   0.42584   0.94873   0.00000  Uiso   1.00
C248   C     0.06478   0.44398   0.84253   0.00000  Uiso   1.00
C249   C     0.03555   0.41314   0.88065   0.00000  Uiso   1.00
C250   C     0.01253   0.54645   0.88436   0.00000  Uiso   1.00
C251   C     0.09632   0.30599   0.74403   0.00000  Uiso   1.00
C252   C     0.09361   0.15915   0.69933   0.00000  Uiso   1.00
C253   C     0.09713   0.17630   0.62009   0.00000  Uiso   1.00
H254   H     0.10906   0.73126   0.74457   0.00000  Uiso   1.00
H255   H     0.16584   0.77553   0.83136   0.00000  Uiso   1.00
H256   H     0.05248   0.85827   0.78718   0.00000  Uiso   1.00
H257   H     0.11053   0.60432   0.60588   0.00000  Uiso   1.00
H258   H     0.22613   0.75479   0.94225   0.00000  Uiso   1.00
H259   H     0.98709   0.92924   0.84909   0.00000  Uiso   1.00
H260   H     0.10950   0.39374   0.46678   0.00000  Uiso   1.00
H261   H     0.08860   0.19309   0.85756   0.00000  Uiso   1.00
H262   H     0.14426   0.20781   0.95055   0.00000  Uiso   1.00
H263   H     0.03090   0.29056   0.90637   0.00000  Uiso   1.00
H264   H     0.08895   0.03661   0.72508   0.00000  Uiso   1.00
H265   H     0.20861   0.29402   0.03900   0.00000  Uiso   1.00
H266   H     0.96957   0.46846   0.94583   0.00000  Uiso   1.00
H267   H     0.09199   0.93296   0.56352   0.00000  Uiso   1.00
O268   O     0.25435   0.54383   0.04977   0.00000  Uiso   1.00
O269   O     0.94074   0.77269   0.92752   0.00000  Uiso   1.00
O270   O     0.10134   0.07013   0.42595   0.00000  Uiso   1.00
N271   N     0.21437   0.64431   0.95225   0.00000  Uiso   1.00
N272   N     0.99089   0.80742   0.86516   0.00000  Uiso   1.00
N273   N     0.10532   0.30678   0.50773   0.00000  Uiso   1.00
N274   N     0.20495   0.39637   0.00431   0.00000  Uiso   1.00
N275   N     0.98146   0.55948   0.91721   0.00000  Uiso   1.00
N276   N     0.09590   0.05884   0.55978   0.00000  Uiso   1.00
C277   C     0.39563   0.10796   0.72954   0.00000  Uiso   1.00
C278   C     0.36761   0.05738   0.66673   0.00000  Uiso   1.00
C279   C     0.33881   0.15297   0.64290   0.00000  Uiso   1.00
C280   C     0.31621   0.08450   0.58458   0.00000  Uiso   1.00
C281   C     0.27181   0.03009   0.49207   0.00000  Uiso   1.00
C282   C     0.42920   0.10234   0.69072   0.00000  Uiso   1.00
C283   C     0.45219   0.23573   0.68708   0.00000  Uiso   1.00
C284   C     0.48144   0.20510   0.64895   0.00000  Uiso   1.00
C285   C     0.53267   0.22045   0.59375   0.00000  Uiso   1.00
C286   C     0.39766   0.96437   0.78922   0.00000  Uiso   1.00
C287   C     0.39413   0.98175   0.86841   0.00000  Uiso   1.00
C288   C     0.39684   0.83495   0.91322   0.00000  Uiso   1.00
C289   C     0.39909   0.63608   0.01095   0.00000  Uiso   1.00
C290   C     0.40671   0.81639   0.66832   0.00000  Uiso   1.00
C291   C     0.37363   0.89901   0.63348   0.00000  Uiso   1.00
C292   C     0.35107   0.83037   0.57517   0.00000  Uiso   1.00
C293   C     0.32224   0.92584   0.55127   0.00000  Uiso   1.00
C294   C     0.43522   0.94398   0.65747   0.00000  Uiso   1.00
C295   C     0.46445   0.91314   0.61935   0.00000  Uiso   1.00
C296   C     0.48747   0.04645   0.61564   0.00000  Uiso   1.00
C297   C     0.40368   0.80599   0.75597   0.00000  Uiso   1.00
C298   C     0.40639   0.65915   0.80067   0.00000  Uiso   1.00
C299   C     0.40287   0.67630   0.87991   0.00000  Uiso   1.00
H300   H     0.39094   0.23126   0.75543   0.00000  Uiso   1.00
H301   H     0.33416   0.27553   0.66864   0.00000  Uiso   1.00
H302   H     0.44752   0.35827   0.71282   0.00000  Uiso   1.00
H303   H     0.38947   0.10432   0.89412   0.00000  Uiso   1.00
H304   H     0.27387   0.25479   0.55775   0.00000  Uiso   1.00
H305   H     0.51291   0.42924   0.65091   0.00000  Uiso   1.00
H306   H     0.39050   0.89374   0.03322   0.00000  Uiso   1.00
H307   H     0.41140   0.69309   0.64244   0.00000  Uiso   1.00
H308   H     0.35574   0.70781   0.54945   0.00000  Uiso   1.00
H309   H     0.46910   0.79056   0.59363   0.00000  Uiso   1.00
H310   H     0.41105   0.53661   0.77492   0.00000  Uiso   1.00
H311   H     0.29139   0.79402   0.46100   0.00000  Uiso   1.00
H312   H     0.53043   0.96846   0.55417   0.00000  Uiso   1.00
H313   H     0.40801   0.43296   0.93648   0.00000  Uiso   1.00
O314   O     0.24565   0.04383   0.45023   0.00000  Uiso   1.00
O315   O     0.55926   0.27269   0.57248   0.00000  Uiso   1.00
O316   O     0.39866   0.57013   0.07405   0.00000  Uiso   1.00
N317   N     0.28563   0.14431   0.54775   0.00000  Uiso   1.00
N318   N     0.50911   0.30742   0.63484   0.00000  Uiso   1.00
N319   N     0.39468   0.80678   0.99227   0.00000  Uiso   1.00
N320   N     0.29505   0.89637   0.49569   0.00000  Uiso   1.00
N321   N     0.51854   0.05948   0.58279   0.00000  Uiso   1.00
N322   N     0.40410   0.55884   0.94022   0.00000  Uiso   1.00
C323   C     0.89563   0.60796   0.72954   0.00000  Uiso   1.00
C324   C     0.86761   0.55738   0.66673   0.00000  Uiso   1.00
C325   C     0.83881   0.65297   0.64290   0.00000  Uiso   1.00
C326   C     0.81621   0.58450   0.58458   0.00000  Uiso   1.00
C327   C     0.77181   0.53009   0.49207   0.00000  Uiso   1.00
C328   C     0.92920   0.60234   0.69072   0.00000  Uiso   1.00
C329   C     0.95219   0.73573   0.68708   0.00000  Uiso   1.00
C330   C     0.98144   0.70510   0.64895   0.00000  Uiso   1.00
C331   C     0.03267   0.72045   0.59375   0.00000  Uiso   1.00
C332   C     0.89766   0.46437   0.78922   0.00000  Uiso   1.00
C333   C     0.89413   0.48175   0.86841   0.00000  Uiso   1.00
C334   C     0.89684   0.33495   0.91322   0.00000  Uiso   1.00
C335   C     0.89909   0.13608   0.01095   0.00000  Uiso   1.00
C336   C     0.90671   0.31639   0.66832   0.00000  Uiso   1.00
C337   C     0.87363   0.39901   0.63348   0.00000  Uiso   1.00
C338   C     0.85107   0.33037   0.57517   0.00000  Uiso   1.00
C339   C     0.82224   0.42584   0.55127   0.00000  Uiso   1.00
C340   C     0.93522   0.44398   0.65747   0.00000  Uiso   1.00
C341   C     0.96445   0.41314   0.61935   0.00000  Uiso   1.00
C342   C     0.98747   0.54645   0.61564   0.00000  Uiso   1.00
C343   C     0.90368   0.30599   0.75597   0.00000  Uiso   1.00
C344   C     0.90639   0.15915   0.80067   0.00000  Uiso   1.00
C345   C     0.90287   0.17630   0.87991   0.00000  Uiso   1.00
H346   H     0.89094   0.73126   0.75543   0.00000  Uiso   1.00
H347   H     0.83416   0.77553   0.66864   0.00000  Uiso   1.00
H348   H     0.94752   0.85827   0.71282   0.00000  Uiso   1.00
H349   H     0.88947   0.60432   0.89412   0.00000  Uiso   1.00
H350   H     0.77387   0.75479   0.55775   0.00000  Uiso   1.00
H351   H     0.01291   0.92924   0.65091   0.00000  Uiso   1.00
H352   H     0.89050   0.39374   0.03322   0.00000  Uiso   1.00
H353   H     0.91140   0.19309   0.64244   0.00000  Uiso   1.00
H354   H     0.85574   0.20781   0.54945   0.00000  Uiso   1.00
H355   H     0.96910   0.29056   0.59363   0.00000  Uiso   1.00
H356   H     0.91105   0.03661   0.77492   0.00000  Uiso   1.00
H357   H     0.79139   0.29402   0.46100   0.00000  Uiso   1.00
H358   H     0.03043   0.46846   0.55417   0.00000  Uiso   1.00
H359   H     0.90801   0.93296   0.93648   0.00000  Uiso   1.00
O360   O     0.74565   0.54383   0.45023   0.00000  Uiso   1.00
O361   O     0.05926   0.77269   0.57248   0.00000  Uiso   1.00
O362   O     0.89866   0.07013   0.07405   0.00000  Uiso   1.00
N363   N     0.78563   0.64431   0.54775   0.00000  Uiso   1.00
N364   N     0.00911   0.80742   0.63484   0.00000  Uiso   1.00
N365   N     0.89468   0.30678   0.99227   0.00000  Uiso   1.00
N366   N     0.79505   0.39637   0.49569   0.00000  Uiso   1.00
N367   N     0.01854   0.55948   0.58279   0.00000  Uiso   1.00
N368   N     0.90410   0.05884   0.94022   0.00000  Uiso   1.00
