data_job_06237
_audit_creation_date              2018-12-19
_audit_creation_method            'Materials Studio'
_symmetry_space_group_name_H-M    'P1'
_symmetry_Int_Tables_number       1
_symmetry_cell_setting            triclinic
loop_
_symmetry_equiv_pos_as_xyz
  x,y,z
_cell_length_a                    16.6407
_cell_length_b                    15.3460
_cell_length_c                    14.8736
_cell_angle_alpha                 82.7386
_cell_angle_beta                  81.7761
_cell_angle_gamma                 82.4909
loop_
_atom_site_label
_atom_site_type_symbol
_atom_site_fract_x
_atom_site_fract_y
_atom_site_fract_z
_atom_site_U_iso_or_equiv
_atom_site_adp_type
_atom_site_occupancy
C1     C     0.67648   0.97278   0.63799   0.00000  Uiso   1.00
C2     C     0.64247   0.05748   0.58416   0.00000  Uiso   1.00
C3     C     0.63799   0.06922   0.49088   0.00000  Uiso   1.00
C4     C     0.60486   0.15169   0.45455   0.00000  Uiso   1.00
C5     C     0.55630   0.27286   0.36258   0.00000  Uiso   1.00
C6     C     0.74379   0.99824   0.68579   0.00000  Uiso   1.00
C7     C     0.82450   0.96016   0.67796   0.00000  Uiso   1.00
C8     C     0.87666   0.99275   0.72720   0.00000  Uiso   1.00
C9     C     0.98539   0.02190   0.79306   0.00000  Uiso   1.00
C10    C     0.60830   0.94867   0.71350   0.00000  Uiso   1.00
C11    C     0.57510   0.86890   0.72900   0.00000  Uiso   1.00
C12    C     0.51320   0.85975   0.80159   0.00000  Uiso   1.00
C13    C     0.41156   0.81193   0.91047   0.00000  Uiso   1.00
C14    C     0.62560   0.09837   0.73937   0.00000  Uiso   1.00
C15    C     0.61484   0.12570   0.63922   0.00000  Uiso   1.00
C16    C     0.58170   0.20817   0.60303   0.00000  Uiso   1.00
C17    C     0.57717   0.22003   0.50971   0.00000  Uiso   1.00
C18    C     0.71616   0.06646   0.74085   0.00000  Uiso   1.00
C19    C     0.76821   0.09911   0.79012   0.00000  Uiso   1.00
C20    C     0.84897   0.06109   0.78236   0.00000  Uiso   1.00
C21    C     0.58066   0.01689   0.76856   0.00000  Uiso   1.00
C22    C     0.51881   0.00786   0.84115   0.00000  Uiso   1.00
C23    C     0.48551   0.92809   0.85675   0.00000  Uiso   1.00
H24    H     0.69799   0.91967   0.59513   0.00000  Uiso   1.00
H25    H     0.65939   0.01641   0.44829   0.00000  Uiso   1.00
H26    H     0.84587   0.90736   0.63536   0.00000  Uiso   1.00
H27    H     0.59650   0.81612   0.68638   0.00000  Uiso   1.00
H28    H     0.60443   0.15377   0.30976   0.00000  Uiso   1.00
H29    H     0.99762   0.92381   0.70423   0.00000  Uiso   1.00
H30    H     0.47179   0.73141   0.81182   0.00000  Uiso   1.00
H31    H     0.60408   0.15148   0.78223   0.00000  Uiso   1.00
H32    H     0.56032   0.26095   0.64566   0.00000  Uiso   1.00
H33    H     0.74680   0.15190   0.83272   0.00000  Uiso   1.00
H34    H     0.49743   0.06066   0.88374   0.00000  Uiso   1.00
H35    H     0.52402   0.35225   0.46995   0.00000  Uiso   1.00
H36    H     0.91721   0.12228   0.86442   0.00000  Uiso   1.00
H37    H     0.39138   0.92989   0.97201   0.00000  Uiso   1.00
O38    O     0.53716   0.32085   0.29663   0.00000  Uiso   1.00
O39    O     0.05300   0.01914   0.81417   0.00000  Uiso   1.00
O40    O     0.36313   0.76672   0.95532   0.00000  Uiso   1.00
N41    N     0.59150   0.18545   0.36621   0.00000  Uiso   1.00
N42    N     0.95911   0.97046   0.73500   0.00000  Uiso   1.00
N43    N     0.46752   0.79058   0.83560   0.00000  Uiso   1.00
N44    N     0.54823   0.29225   0.45241   0.00000  Uiso   1.00
N45    N     0.91584   0.07726   0.82120   0.00000  Uiso   1.00
N46    N     0.42425   0.89737   0.92180   0.00000  Uiso   1.00
C47    C     0.64845   0.67889   0.97427   0.00000  Uiso   1.00
C48    C     0.59952   0.64212   0.06235   0.00000  Uiso   1.00
C49    C     0.51585   0.63751   0.07582   0.00000  Uiso   1.00
C50    C     0.48263   0.60164   0.16133   0.00000  Uiso   1.00
C51    C     0.39923   0.54917   0.28753   0.00000  Uiso   1.00
C52    C     0.69234   0.75150   0.00018   0.00000  Uiso   1.00
C53    C     0.68673   0.83886   0.96136   0.00000  Uiso   1.00
C54    C     0.73166   0.89506   0.99453   0.00000  Uiso   1.00
C55    C     0.79242   0.01239   0.02416   0.00000  Uiso   1.00
C56    C     0.71500   0.60501   0.94795   0.00000  Uiso   1.00
C57    C     0.72846   0.56921   0.86522   0.00000  Uiso   1.00
C58    C     0.79248   0.50209   0.85441   0.00000  Uiso   1.00
C59    C     0.88842   0.39198   0.80295   0.00000  Uiso   1.00
C60    C     0.73823   0.62337   0.10217   0.00000  Uiso   1.00
C61    C     0.64829   0.61196   0.13182   0.00000  Uiso   1.00
C62    C     0.61519   0.57608   0.21733   0.00000  Uiso   1.00
C63    C     0.53148   0.57142   0.23092   0.00000  Uiso   1.00
C64    C     0.74111   0.72135   0.06964   0.00000  Uiso   1.00
C65    C     0.78607   0.77743   0.10287   0.00000  Uiso   1.00
C66    C     0.78052   0.86485   0.06413   0.00000  Uiso   1.00
C67    C     0.76377   0.57485   0.01742   0.00000  Uiso   1.00
C68    C     0.82779   0.50778   0.00673   0.00000  Uiso   1.00
C69    C     0.84134   0.47188   0.92400   0.00000  Uiso   1.00
H70    H     0.61048   0.70237   0.92019   0.00000  Uiso   1.00
H71    H     0.47813   0.66086   0.02204   0.00000  Uiso   1.00
H72    H     0.64899   0.86217   0.90760   0.00000  Uiso   1.00
H73    H     0.69071   0.59257   0.81148   0.00000  Uiso   1.00
H74    H     0.35290   0.60157   0.16561   0.00000  Uiso   1.00
H75    H     0.71319   0.02604   0.92429   0.00000  Uiso   1.00
H76    H     0.80116   0.45753   0.72158   0.00000  Uiso   1.00
H77    H     0.77620   0.59989   0.15626   0.00000  Uiso   1.00
H78    H     0.65294   0.55275   0.27107   0.00000  Uiso   1.00
H79    H     0.82380   0.75407   0.15663   0.00000  Uiso   1.00
H80    H     0.86552   0.48446   0.06050   0.00000  Uiso   1.00
H81    H     0.49478   0.51383   0.36774   0.00000  Uiso   1.00
H82    H     0.85507   0.93830   0.12640   0.00000  Uiso   1.00
H83    H     0.94304   0.36978   0.92371   0.00000  Uiso   1.00
O84    O     0.33976   0.52857   0.33795   0.00000  Uiso   1.00
O85    O     0.81246   0.08544   0.02132   0.00000  Uiso   1.00
O86    O     0.92787   0.33957   0.75539   0.00000  Uiso   1.00
N87    N     0.40321   0.58738   0.19742   0.00000  Uiso   1.00
N88    N     0.74005   0.98423   0.97180   0.00000  Uiso   1.00
N89    N     0.82231   0.45273   0.78228   0.00000  Uiso   1.00
N90    N     0.47955   0.54016   0.30618   0.00000  Uiso   1.00
N91    N     0.81639   0.93701   0.08056   0.00000  Uiso   1.00
N92    N     0.89865   0.40552   0.89104   0.00000  Uiso   1.00
C93    C     0.97345   0.64186   0.67985   0.00000  Uiso   1.00
C94    C     0.05160   0.58878   0.64035   0.00000  Uiso   1.00
C95    C     0.06229   0.49829   0.63500   0.00000  Uiso   1.00
C96    C     0.13840   0.46219   0.59655   0.00000  Uiso   1.00
C97    C     0.25017   0.37177   0.54012   0.00000  Uiso   1.00
C98    C     0.99727   0.68912   0.75462   0.00000  Uiso   1.00
C99    C     0.96227   0.68300   0.84534   0.00000  Uiso   1.00
C100   C     0.99264   0.73139   0.90308   0.00000  Uiso   1.00
C101   C     0.02002   0.79680   0.02405   0.00000  Uiso   1.00
C102   C     0.95108   0.71403   0.60430   0.00000  Uiso   1.00
C103   C     0.87724   0.72888   0.56863   0.00000  Uiso   1.00
C104   C     0.86872   0.79825   0.49981   0.00000  Uiso   1.00
C105   C     0.82438   0.90233   0.38737   0.00000  Uiso   1.00
C106   C     0.08961   0.73869   0.62107   0.00000  Uiso   1.00
C107   C     0.11469   0.64137   0.60843   0.00000  Uiso   1.00
C108   C     0.19081   0.60541   0.56997   0.00000  Uiso   1.00
C109   C     0.20161   0.51488   0.56456   0.00000  Uiso   1.00
C110   C     0.06036   0.74171   0.72270   0.00000  Uiso   1.00
C111   C     0.09079   0.79013   0.78032   0.00000  Uiso   1.00
C112   C     0.05585   0.78408   0.87110   0.00000  Uiso   1.00
C113   C     0.01418   0.76662   0.57237   0.00000  Uiso   1.00
C114   C     0.00576   0.83600   0.50360   0.00000  Uiso   1.00
C115   C     0.93192   0.85094   0.46783   0.00000  Uiso   1.00
H116   H     0.92432   0.60092   0.70471   0.00000  Uiso   1.00
H117   H     0.01345   0.45761   0.65972   0.00000  Uiso   1.00
H118   H     0.91344   0.64231   0.87003   0.00000  Uiso   1.00
H119   H     0.82842   0.68816   0.59335   0.00000  Uiso   1.00
H120   H     0.14009   0.32191   0.59580   0.00000  Uiso   1.00
H121   H     0.92920   0.71138   0.03923   0.00000  Uiso   1.00
H122   H     0.74993   0.80808   0.45581   0.00000  Uiso   1.00
H123   H     0.13873   0.77963   0.59622   0.00000  Uiso   1.00
H124   H     0.23963   0.64613   0.54527   0.00000  Uiso   1.00
H125   H     0.13962   0.83082   0.75559   0.00000  Uiso   1.00
H126   H     0.05460   0.87668   0.47891   0.00000  Uiso   1.00
H127   H     0.32367   0.47491   0.50291   0.00000  Uiso   1.00
H128   H     0.11277   0.86439   0.94635   0.00000  Uiso   1.00
H129   H     0.93350   0.96109   0.36293   0.00000  Uiso   1.00
O130   O     0.29439   0.30736   0.51783   0.00000  Uiso   1.00
O131   O     0.01769   0.81834   0.09959   0.00000  Uiso   1.00
O132   O     0.78250   0.94520   0.33416   0.00000  Uiso   1.00
N133   N     0.16944   0.37624   0.58091   0.00000  Uiso   1.00
N134   N     0.97228   0.74036   0.99550   0.00000  Uiso   1.00
N135   N     0.80467   0.83079   0.45007   0.00000  Uiso   1.00
N136   N     0.26823   0.45857   0.53093   0.00000  Uiso   1.00
N137   N     0.07106   0.82270   0.94552   0.00000  Uiso   1.00
N138   N     0.90345   0.91312   0.40009   0.00000  Uiso   1.00
C139   C     0.32352   0.02722   0.36201   0.00000  Uiso   1.00
C140   C     0.35753   0.94252   0.41584   0.00000  Uiso   1.00
C141   C     0.36201   0.93078   0.50912   0.00000  Uiso   1.00
C142   C     0.39514   0.84831   0.54545   0.00000  Uiso   1.00
C143   C     0.44370   0.72714   0.63742   0.00000  Uiso   1.00
C144   C     0.25621   0.00176   0.31421   0.00000  Uiso   1.00
C145   C     0.17550   0.03984   0.32204   0.00000  Uiso   1.00
C146   C     0.12334   0.00725   0.27280   0.00000  Uiso   1.00
C147   C     0.01461   0.97810   0.20694   0.00000  Uiso   1.00
C148   C     0.39170   0.05133   0.28650   0.00000  Uiso   1.00
C149   C     0.42490   0.13110   0.27100   0.00000  Uiso   1.00
C150   C     0.48680   0.14025   0.19841   0.00000  Uiso   1.00
C151   C     0.58844   0.18807   0.08953   0.00000  Uiso   1.00
C152   C     0.37440   0.90163   0.26063   0.00000  Uiso   1.00
C153   C     0.38516   0.87430   0.36078   0.00000  Uiso   1.00
C154   C     0.41830   0.79183   0.39697   0.00000  Uiso   1.00
C155   C     0.42283   0.77997   0.49029   0.00000  Uiso   1.00
C156   C     0.28384   0.93354   0.25915   0.00000  Uiso   1.00
C157   C     0.23179   0.90089   0.20988   0.00000  Uiso   1.00
C158   C     0.15103   0.93891   0.21764   0.00000  Uiso   1.00
C159   C     0.41934   0.98311   0.23144   0.00000  Uiso   1.00
C160   C     0.48119   0.99214   0.15885   0.00000  Uiso   1.00
C161   C     0.51449   0.07191   0.14325   0.00000  Uiso   1.00
H162   H     0.30201   0.08033   0.40487   0.00000  Uiso   1.00
H163   H     0.34061   0.98359   0.55171   0.00000  Uiso   1.00
H164   H     0.15413   0.09264   0.36464   0.00000  Uiso   1.00
H165   H     0.40350   0.18387   0.31362   0.00000  Uiso   1.00
H166   H     0.39557   0.84623   0.69024   0.00000  Uiso   1.00
H167   H     0.00238   0.07619   0.29577   0.00000  Uiso   1.00
H168   H     0.52821   0.26859   0.18818   0.00000  Uiso   1.00
H169   H     0.39592   0.84852   0.21777   0.00000  Uiso   1.00
H170   H     0.43968   0.73905   0.35434   0.00000  Uiso   1.00
H171   H     0.25320   0.84810   0.16728   0.00000  Uiso   1.00
H172   H     0.50257   0.93934   0.11626   0.00000  Uiso   1.00
H173   H     0.47598   0.64775   0.53005   0.00000  Uiso   1.00
H174   H     0.08279   0.87772   0.13558   0.00000  Uiso   1.00
H175   H     0.60862   0.07011   0.02799   0.00000  Uiso   1.00
O176   O     0.46284   0.67915   0.70337   0.00000  Uiso   1.00
O177   O     0.94700   0.98086   0.18583   0.00000  Uiso   1.00
O178   O     0.63688   0.23328   0.04468   0.00000  Uiso   1.00
N179   N     0.40850   0.81455   0.63379   0.00000  Uiso   1.00
N180   N     0.04089   0.02954   0.26500   0.00000  Uiso   1.00
N181   N     0.53248   0.20942   0.16440   0.00000  Uiso   1.00
N182   N     0.45177   0.70775   0.54759   0.00000  Uiso   1.00
N183   N     0.08416   0.92274   0.17880   0.00000  Uiso   1.00
N184   N     0.57575   0.10263   0.07820   0.00000  Uiso   1.00
C185   C     0.35155   0.32111   0.02573   0.00000  Uiso   1.00
C186   C     0.40048   0.35788   0.93765   0.00000  Uiso   1.00
C187   C     0.48415   0.36249   0.92418   0.00000  Uiso   1.00
C188   C     0.51737   0.39836   0.83867   0.00000  Uiso   1.00
C189   C     0.60077   0.45083   0.71247   0.00000  Uiso   1.00
C190   C     0.30766   0.24850   0.99982   0.00000  Uiso   1.00
C191   C     0.31327   0.16114   0.03864   0.00000  Uiso   1.00
C192   C     0.26834   0.10494   0.00547   0.00000  Uiso   1.00
C193   C     0.20758   0.98761   0.97584   0.00000  Uiso   1.00
C194   C     0.28500   0.39499   0.05205   0.00000  Uiso   1.00
C195   C     0.27154   0.43079   0.13478   0.00000  Uiso   1.00
C196   C     0.20752   0.49791   0.14559   0.00000  Uiso   1.00
C197   C     0.11158   0.60802   0.19705   0.00000  Uiso   1.00
C198   C     0.26177   0.37663   0.89783   0.00000  Uiso   1.00
C199   C     0.35171   0.38804   0.86818   0.00000  Uiso   1.00
C200   C     0.38481   0.42392   0.78267   0.00000  Uiso   1.00
C201   C     0.46852   0.42858   0.76908   0.00000  Uiso   1.00
C202   C     0.25889   0.27865   0.93036   0.00000  Uiso   1.00
C203   C     0.21393   0.22257   0.89713   0.00000  Uiso   1.00
C204   C     0.21948   0.13515   0.93587   0.00000  Uiso   1.00
C205   C     0.23623   0.42515   0.98258   0.00000  Uiso   1.00
C206   C     0.17221   0.49222   0.99327   0.00000  Uiso   1.00
C207   C     0.15866   0.52812   0.07600   0.00000  Uiso   1.00
H208   H     0.38952   0.29763   0.07981   0.00000  Uiso   1.00
H209   H     0.52187   0.33914   0.97796   0.00000  Uiso   1.00
H210   H     0.35101   0.13783   0.09240   0.00000  Uiso   1.00
H211   H     0.30929   0.40743   0.18852   0.00000  Uiso   1.00
H212   H     0.64710   0.39843   0.83439   0.00000  Uiso   1.00
H213   H     0.28681   0.97396   0.07571   0.00000  Uiso   1.00
H214   H     0.19884   0.54247   0.27842   0.00000  Uiso   1.00
H215   H     0.22380   0.40011   0.84374   0.00000  Uiso   1.00
H216   H     0.34706   0.44725   0.72893   0.00000  Uiso   1.00
H217   H     0.17620   0.24593   0.84337   0.00000  Uiso   1.00
H218   H     0.13448   0.51554   0.93950   0.00000  Uiso   1.00
H219   H     0.50522   0.48617   0.63226   0.00000  Uiso   1.00
H220   H     0.14493   0.06170   0.87360   0.00000  Uiso   1.00
H221   H     0.05696   0.63022   0.07629   0.00000  Uiso   1.00
O222   O     0.66024   0.47143   0.66205   0.00000  Uiso   1.00
O223   O     0.18754   0.91456   0.97868   0.00000  Uiso   1.00
O224   O     0.07213   0.66043   0.24461   0.00000  Uiso   1.00
N225   N     0.59679   0.41262   0.80258   0.00000  Uiso   1.00
N226   N     0.25995   0.01577   0.02820   0.00000  Uiso   1.00
N227   N     0.17769   0.54727   0.21772   0.00000  Uiso   1.00
N228   N     0.52045   0.45984   0.69382   0.00000  Uiso   1.00
N229   N     0.18361   0.06299   0.91944   0.00000  Uiso   1.00
N230   N     0.10135   0.59448   0.10896   0.00000  Uiso   1.00
C231   C     0.02655   0.35814   0.32015   0.00000  Uiso   1.00
C232   C     0.94840   0.41122   0.35965   0.00000  Uiso   1.00
C233   C     0.93771   0.50171   0.36500   0.00000  Uiso   1.00
C234   C     0.86160   0.53781   0.40345   0.00000  Uiso   1.00
C235   C     0.74983   0.62823   0.45988   0.00000  Uiso   1.00
C236   C     0.00273   0.31088   0.24537   0.00000  Uiso   1.00
C237   C     0.03773   0.31700   0.15466   0.00000  Uiso   1.00
C238   C     0.00736   0.26861   0.09692   0.00000  Uiso   1.00
C239   C     0.97998   0.20320   0.97595   0.00000  Uiso   1.00
C240   C     0.04892   0.28597   0.39570   0.00000  Uiso   1.00
C241   C     0.12276   0.27112   0.43137   0.00000  Uiso   1.00
C242   C     0.13128   0.20175   0.50019   0.00000  Uiso   1.00
C243   C     0.17562   0.09767   0.61263   0.00000  Uiso   1.00
C244   C     0.91039   0.26131   0.37893   0.00000  Uiso   1.00
C245   C     0.88531   0.35863   0.39157   0.00000  Uiso   1.00
C246   C     0.80919   0.39459   0.43003   0.00000  Uiso   1.00
C247   C     0.79839   0.48512   0.43544   0.00000  Uiso   1.00
C248   C     0.93964   0.25829   0.27730   0.00000  Uiso   1.00
C249   C     0.90921   0.20987   0.21968   0.00000  Uiso   1.00
C250   C     0.94415   0.21592   0.12890   0.00000  Uiso   1.00
C251   C     0.98582   0.23337   0.42763   0.00000  Uiso   1.00
C252   C     0.99424   0.16400   0.49640   0.00000  Uiso   1.00
C253   C     0.06808   0.14906   0.53217   0.00000  Uiso   1.00
H254   H     0.07568   0.39908   0.29529   0.00000  Uiso   1.00
H255   H     0.98655   0.54239   0.34028   0.00000  Uiso   1.00
H256   H     0.08656   0.35769   0.12997   0.00000  Uiso   1.00
H257   H     0.17158   0.31184   0.40665   0.00000  Uiso   1.00
H258   H     0.85991   0.67809   0.40420   0.00000  Uiso   1.00
H259   H     0.07080   0.28862   0.96077   0.00000  Uiso   1.00
H260   H     0.25007   0.19192   0.54419   0.00000  Uiso   1.00
H261   H     0.86127   0.22036   0.40378   0.00000  Uiso   1.00
H262   H     0.76037   0.35387   0.45473   0.00000  Uiso   1.00
H263   H     0.86038   0.16918   0.24441   0.00000  Uiso   1.00
H264   H     0.94540   0.12332   0.52109   0.00000  Uiso   1.00
H265   H     0.67633   0.52509   0.49708   0.00000  Uiso   1.00
H266   H     0.88723   0.13561   0.05365   0.00000  Uiso   1.00
H267   H     0.06650   0.03891   0.63707   0.00000  Uiso   1.00
O268   O     0.70561   0.69264   0.48217   0.00000  Uiso   1.00
O269   O     0.98231   0.18166   0.90041   0.00000  Uiso   1.00
O270   O     0.21750   0.05480   0.66584   0.00000  Uiso   1.00
N271   N     0.83056   0.62376   0.41909   0.00000  Uiso   1.00
N272   N     0.02772   0.25964   0.00450   0.00000  Uiso   1.00
N273   N     0.19533   0.16921   0.54993   0.00000  Uiso   1.00
N274   N     0.73178   0.54143   0.46907   0.00000  Uiso   1.00
N275   N     0.92894   0.17730   0.05448   0.00000  Uiso   1.00
N276   N     0.09655   0.08688   0.59991   0.00000  Uiso   1.00
