data_job_02218
_audit_creation_date              2018-12-19
_audit_creation_method            'Materials Studio'
_symmetry_space_group_name_H-M    'P1'
_symmetry_Int_Tables_number       1
_symmetry_cell_setting            triclinic
loop_
_symmetry_equiv_pos_as_xyz
  x,y,z
_cell_length_a                    11.7721
_cell_length_b                    17.5230
_cell_length_c                    26.4642
_cell_angle_alpha                 90.0000
_cell_angle_beta                  90.0000
_cell_angle_gamma                 90.0000
loop_
_atom_site_label
_atom_site_type_symbol
_atom_site_fract_x
_atom_site_fract_y
_atom_site_fract_z
_atom_site_U_iso_or_equiv
_atom_site_adp_type
_atom_site_occupancy
C1     C     0.52417   0.08499   0.90399   0.00000  Uiso   1.00
C2     C     0.53764   0.15529   0.87055   0.00000  Uiso   1.00
C3     C     0.57838   0.22583   0.88604   0.00000  Uiso   1.00
C4     C     0.58418   0.28287   0.84972   0.00000  Uiso   1.00
C5     C     0.61016   0.39402   0.80541   0.00000  Uiso   1.00
C6     C     0.39985   0.06139   0.89976   0.00000  Uiso   1.00
C7     C     0.32477   0.05298   0.93981   0.00000  Uiso   1.00
C8     C     0.21458   0.03096   0.92807   0.00000  Uiso   1.00
C9     C     0.02668   0.99629   0.92912   0.00000  Uiso   1.00
C10    C     0.59242   0.02176   0.87859   0.00000  Uiso   1.00
C11    C     0.67922   0.98000   0.90083   0.00000  Uiso   1.00
C12    C     0.73114   0.92461   0.87127   0.00000  Uiso   1.00
C13    C     0.84223   0.82840   0.83943   0.00000  Uiso   1.00
C14    C     0.46201   0.06085   0.81195   0.00000  Uiso   1.00
C15    C     0.50386   0.14217   0.82056   0.00000  Uiso   1.00
C16    C     0.50960   0.19912   0.78421   0.00000  Uiso   1.00
C17    C     0.55036   0.26973   0.79963   0.00000  Uiso   1.00
C18    C     0.36608   0.04828   0.84977   0.00000  Uiso   1.00
C19    C     0.25599   0.02627   0.83798   0.00000  Uiso   1.00
C20    C     0.18075   0.01783   0.87799   0.00000  Uiso   1.00
C21    C     0.55865   0.00865   0.82859   0.00000  Uiso   1.00
C22    C     0.61044   0.95330   0.79899   0.00000  Uiso   1.00
C23    C     0.69731   0.91147   0.82118   0.00000  Uiso   1.00
H24    H     0.55046   0.09520   0.94292   0.00000  Uiso   1.00
H25    H     0.60450   0.23595   0.92473   0.00000  Uiso   1.00
H26    H     0.35093   0.06312   0.97849   0.00000  Uiso   1.00
H27    H     0.70533   0.99017   0.93952   0.00000  Uiso   1.00
H28    H     0.64948   0.38623   0.88253   0.00000  Uiso   1.00
H29    H     0.11482   0.02178   0.99589   0.00000  Uiso   1.00
H30    H     0.86215   0.86793   0.91370   0.00000  Uiso   1.00
H31    H     0.43571   0.05064   0.77303   0.00000  Uiso   1.00
H32    H     0.48346   0.18895   0.74552   0.00000  Uiso   1.00
H33    H     0.22989   0.01612   0.79928   0.00000  Uiso   1.00
H34    H     0.58429   0.94317   0.76031   0.00000  Uiso   1.00
H35    H     0.55124   0.34809   0.73708   0.00000  Uiso   1.00
H36    H     0.01658   0.98363   0.85044   0.00000  Uiso   1.00
H37    H     0.76391   0.82979   0.76825   0.00000  Uiso   1.00
O38    O     0.63381   0.45895   0.79478   0.00000  Uiso   1.00
O39    O     0.93236   0.98080   0.94350   0.00000  Uiso   1.00
O40    O     0.91284   0.77896   0.83567   0.00000  Uiso   1.00
N41    N     0.61983   0.35827   0.85207   0.00000  Uiso   1.00
N42    N     0.11995   0.01754   0.95805   0.00000  Uiso   1.00
N43    N     0.81862   0.87369   0.88122   0.00000  Uiso   1.00
N44    N     0.56697   0.33774   0.77380   0.00000  Uiso   1.00
N45    N     0.06709   0.99701   0.87979   0.00000  Uiso   1.00
N46    N     0.76575   0.85317   0.80295   0.00000  Uiso   1.00
C47    C     0.97583   0.41501   0.90399   0.00000  Uiso   1.00
C48    C     0.96236   0.34471   0.87055   0.00000  Uiso   1.00
C49    C     0.92162   0.27417   0.88604   0.00000  Uiso   1.00
C50    C     0.91582   0.21713   0.84972   0.00000  Uiso   1.00
C51    C     0.88984   0.10598   0.80541   0.00000  Uiso   1.00
C52    C     0.10015   0.43861   0.89976   0.00000  Uiso   1.00
C53    C     0.17523   0.44702   0.93981   0.00000  Uiso   1.00
C54    C     0.28542   0.46904   0.92807   0.00000  Uiso   1.00
C55    C     0.47332   0.50371   0.92912   0.00000  Uiso   1.00
C56    C     0.90758   0.47824   0.87859   0.00000  Uiso   1.00
C57    C     0.82078   0.52000   0.90083   0.00000  Uiso   1.00
C58    C     0.76886   0.57539   0.87127   0.00000  Uiso   1.00
C59    C     0.65777   0.67160   0.83943   0.00000  Uiso   1.00
C60    C     0.03799   0.43915   0.81195   0.00000  Uiso   1.00
C61    C     0.99614   0.35783   0.82056   0.00000  Uiso   1.00
C62    C     0.99040   0.30088   0.78421   0.00000  Uiso   1.00
C63    C     0.94964   0.23027   0.79963   0.00000  Uiso   1.00
C64    C     0.13392   0.45172   0.84977   0.00000  Uiso   1.00
C65    C     0.24401   0.47373   0.83798   0.00000  Uiso   1.00
C66    C     0.31925   0.48217   0.87799   0.00000  Uiso   1.00
C67    C     0.94135   0.49135   0.82859   0.00000  Uiso   1.00
C68    C     0.88956   0.54670   0.79899   0.00000  Uiso   1.00
C69    C     0.80269   0.58853   0.82118   0.00000  Uiso   1.00
H70    H     0.94954   0.40480   0.94292   0.00000  Uiso   1.00
H71    H     0.89550   0.26405   0.92473   0.00000  Uiso   1.00
H72    H     0.14907   0.43688   0.97849   0.00000  Uiso   1.00
H73    H     0.79467   0.50983   0.93952   0.00000  Uiso   1.00
H74    H     0.85052   0.11377   0.88253   0.00000  Uiso   1.00
H75    H     0.38518   0.47822   0.99589   0.00000  Uiso   1.00
H76    H     0.63785   0.63207   0.91370   0.00000  Uiso   1.00
H77    H     0.06429   0.44936   0.77303   0.00000  Uiso   1.00
H78    H     0.01654   0.31105   0.74552   0.00000  Uiso   1.00
H79    H     0.27011   0.48388   0.79928   0.00000  Uiso   1.00
H80    H     0.91571   0.55683   0.76031   0.00000  Uiso   1.00
H81    H     0.94876   0.15191   0.73708   0.00000  Uiso   1.00
H82    H     0.48342   0.51637   0.85044   0.00000  Uiso   1.00
H83    H     0.73609   0.67021   0.76825   0.00000  Uiso   1.00
O84    O     0.86619   0.04105   0.79478   0.00000  Uiso   1.00
O85    O     0.56764   0.51920   0.94350   0.00000  Uiso   1.00
O86    O     0.58716   0.72104   0.83567   0.00000  Uiso   1.00
N87    N     0.88017   0.14173   0.85207   0.00000  Uiso   1.00
N88    N     0.38005   0.48246   0.95805   0.00000  Uiso   1.00
N89    N     0.68138   0.62631   0.88122   0.00000  Uiso   1.00
N90    N     0.93303   0.16226   0.77380   0.00000  Uiso   1.00
N91    N     0.43291   0.50299   0.87979   0.00000  Uiso   1.00
N92    N     0.73425   0.64683   0.80295   0.00000  Uiso   1.00
C93    C     0.47583   0.58499   0.59601   0.00000  Uiso   1.00
C94    C     0.46236   0.65529   0.62945   0.00000  Uiso   1.00
C95    C     0.42162   0.72583   0.61396   0.00000  Uiso   1.00
C96    C     0.41582   0.78287   0.65028   0.00000  Uiso   1.00
C97    C     0.38984   0.89402   0.69459   0.00000  Uiso   1.00
C98    C     0.60015   0.56139   0.60024   0.00000  Uiso   1.00
C99    C     0.67523   0.55298   0.56019   0.00000  Uiso   1.00
C100   C     0.78542   0.53096   0.57193   0.00000  Uiso   1.00
C101   C     0.97332   0.49629   0.57088   0.00000  Uiso   1.00
C102   C     0.40758   0.52176   0.62141   0.00000  Uiso   1.00
C103   C     0.32078   0.48000   0.59917   0.00000  Uiso   1.00
C104   C     0.26886   0.42461   0.62873   0.00000  Uiso   1.00
C105   C     0.15777   0.32840   0.66057   0.00000  Uiso   1.00
C106   C     0.53799   0.56085   0.68805   0.00000  Uiso   1.00
C107   C     0.49614   0.64217   0.67944   0.00000  Uiso   1.00
C108   C     0.49040   0.69912   0.71579   0.00000  Uiso   1.00
C109   C     0.44964   0.76973   0.70037   0.00000  Uiso   1.00
C110   C     0.63392   0.54828   0.65023   0.00000  Uiso   1.00
C111   C     0.74401   0.52627   0.66202   0.00000  Uiso   1.00
C112   C     0.81925   0.51783   0.62201   0.00000  Uiso   1.00
C113   C     0.44135   0.50865   0.67141   0.00000  Uiso   1.00
C114   C     0.38956   0.45330   0.70101   0.00000  Uiso   1.00
C115   C     0.30269   0.41147   0.67882   0.00000  Uiso   1.00
H116   H     0.44954   0.59520   0.55708   0.00000  Uiso   1.00
H117   H     0.39550   0.73595   0.57527   0.00000  Uiso   1.00
H118   H     0.64907   0.56312   0.52151   0.00000  Uiso   1.00
H119   H     0.29467   0.49017   0.56048   0.00000  Uiso   1.00
H120   H     0.35052   0.88623   0.61747   0.00000  Uiso   1.00
H121   H     0.88518   0.52178   0.50411   0.00000  Uiso   1.00
H122   H     0.13785   0.36793   0.58630   0.00000  Uiso   1.00
H123   H     0.56429   0.55064   0.72697   0.00000  Uiso   1.00
H124   H     0.51654   0.68895   0.75448   0.00000  Uiso   1.00
H125   H     0.77011   0.51612   0.70072   0.00000  Uiso   1.00
H126   H     0.41571   0.44317   0.73969   0.00000  Uiso   1.00
H127   H     0.44876   0.84809   0.76292   0.00000  Uiso   1.00
H128   H     0.98342   0.48363   0.64956   0.00000  Uiso   1.00
H129   H     0.23609   0.32979   0.73175   0.00000  Uiso   1.00
O130   O     0.36619   0.95895   0.70522   0.00000  Uiso   1.00
O131   O     0.06764   0.48080   0.55650   0.00000  Uiso   1.00
O132   O     0.08716   0.27896   0.66433   0.00000  Uiso   1.00
N133   N     0.38017   0.85827   0.64793   0.00000  Uiso   1.00
N134   N     0.88005   0.51754   0.54195   0.00000  Uiso   1.00
N135   N     0.18138   0.37369   0.61878   0.00000  Uiso   1.00
N136   N     0.43303   0.83774   0.72620   0.00000  Uiso   1.00
N137   N     0.93291   0.49701   0.62021   0.00000  Uiso   1.00
N138   N     0.23425   0.35317   0.69705   0.00000  Uiso   1.00
C139   C     0.02417   0.91501   0.59601   0.00000  Uiso   1.00
C140   C     0.03764   0.84471   0.62945   0.00000  Uiso   1.00
C141   C     0.07838   0.77417   0.61396   0.00000  Uiso   1.00
C142   C     0.08418   0.71713   0.65028   0.00000  Uiso   1.00
C143   C     0.11016   0.60598   0.69459   0.00000  Uiso   1.00
C144   C     0.89985   0.93861   0.60024   0.00000  Uiso   1.00
C145   C     0.82477   0.94702   0.56019   0.00000  Uiso   1.00
C146   C     0.71458   0.96904   0.57193   0.00000  Uiso   1.00
C147   C     0.52668   0.00371   0.57088   0.00000  Uiso   1.00
C148   C     0.09242   0.97824   0.62141   0.00000  Uiso   1.00
C149   C     0.17922   0.02000   0.59917   0.00000  Uiso   1.00
C150   C     0.23114   0.07539   0.62873   0.00000  Uiso   1.00
C151   C     0.34223   0.17160   0.66057   0.00000  Uiso   1.00
C152   C     0.96201   0.93915   0.68805   0.00000  Uiso   1.00
C153   C     0.00386   0.85783   0.67944   0.00000  Uiso   1.00
C154   C     0.00960   0.80088   0.71579   0.00000  Uiso   1.00
C155   C     0.05036   0.73027   0.70037   0.00000  Uiso   1.00
C156   C     0.86608   0.95172   0.65023   0.00000  Uiso   1.00
C157   C     0.75599   0.97373   0.66202   0.00000  Uiso   1.00
C158   C     0.68075   0.98217   0.62201   0.00000  Uiso   1.00
C159   C     0.05865   0.99135   0.67141   0.00000  Uiso   1.00
C160   C     0.11044   0.04670   0.70101   0.00000  Uiso   1.00
C161   C     0.19731   0.08853   0.67882   0.00000  Uiso   1.00
H162   H     0.05046   0.90480   0.55708   0.00000  Uiso   1.00
H163   H     0.10450   0.76405   0.57527   0.00000  Uiso   1.00
H164   H     0.85093   0.93688   0.52151   0.00000  Uiso   1.00
H165   H     0.20533   0.00983   0.56048   0.00000  Uiso   1.00
H166   H     0.14948   0.61377   0.61747   0.00000  Uiso   1.00
H167   H     0.61482   0.97822   0.50411   0.00000  Uiso   1.00
H168   H     0.36215   0.13207   0.58630   0.00000  Uiso   1.00
H169   H     0.93571   0.94936   0.72697   0.00000  Uiso   1.00
H170   H     0.98346   0.81105   0.75448   0.00000  Uiso   1.00
H171   H     0.72989   0.98388   0.70072   0.00000  Uiso   1.00
H172   H     0.08429   0.05683   0.73969   0.00000  Uiso   1.00
H173   H     0.05124   0.65191   0.76292   0.00000  Uiso   1.00
H174   H     0.51658   0.01637   0.64956   0.00000  Uiso   1.00
H175   H     0.26391   0.17021   0.73175   0.00000  Uiso   1.00
O176   O     0.13381   0.54105   0.70522   0.00000  Uiso   1.00
O177   O     0.43236   0.01920   0.55650   0.00000  Uiso   1.00
O178   O     0.41284   0.22104   0.66433   0.00000  Uiso   1.00
N179   N     0.11983   0.64173   0.64793   0.00000  Uiso   1.00
N180   N     0.61995   0.98246   0.54195   0.00000  Uiso   1.00
N181   N     0.31862   0.12631   0.61878   0.00000  Uiso   1.00
N182   N     0.06697   0.66226   0.72620   0.00000  Uiso   1.00
N183   N     0.56709   0.00299   0.62021   0.00000  Uiso   1.00
N184   N     0.26575   0.14683   0.69705   0.00000  Uiso   1.00
C185   C     0.47583   0.91501   0.09601   0.00000  Uiso   1.00
C186   C     0.46236   0.84471   0.12945   0.00000  Uiso   1.00
C187   C     0.42162   0.77417   0.11396   0.00000  Uiso   1.00
C188   C     0.41582   0.71713   0.15028   0.00000  Uiso   1.00
C189   C     0.38984   0.60598   0.19459   0.00000  Uiso   1.00
C190   C     0.60015   0.93861   0.10024   0.00000  Uiso   1.00
C191   C     0.67523   0.94702   0.06019   0.00000  Uiso   1.00
C192   C     0.78542   0.96904   0.07193   0.00000  Uiso   1.00
C193   C     0.97332   0.00371   0.07088   0.00000  Uiso   1.00
C194   C     0.40758   0.97824   0.12141   0.00000  Uiso   1.00
C195   C     0.32078   0.02000   0.09917   0.00000  Uiso   1.00
C196   C     0.26886   0.07539   0.12873   0.00000  Uiso   1.00
C197   C     0.15777   0.17160   0.16057   0.00000  Uiso   1.00
C198   C     0.53799   0.93915   0.18805   0.00000  Uiso   1.00
C199   C     0.49614   0.85783   0.17944   0.00000  Uiso   1.00
C200   C     0.49040   0.80088   0.21579   0.00000  Uiso   1.00
C201   C     0.44964   0.73027   0.20037   0.00000  Uiso   1.00
C202   C     0.63392   0.95172   0.15023   0.00000  Uiso   1.00
C203   C     0.74401   0.97373   0.16202   0.00000  Uiso   1.00
C204   C     0.81925   0.98217   0.12201   0.00000  Uiso   1.00
C205   C     0.44135   0.99135   0.17141   0.00000  Uiso   1.00
C206   C     0.38956   0.04670   0.20101   0.00000  Uiso   1.00
C207   C     0.30269   0.08853   0.17882   0.00000  Uiso   1.00
H208   H     0.44954   0.90480   0.05708   0.00000  Uiso   1.00
H209   H     0.39550   0.76405   0.07527   0.00000  Uiso   1.00
H210   H     0.64907   0.93688   0.02151   0.00000  Uiso   1.00
H211   H     0.29467   0.00983   0.06048   0.00000  Uiso   1.00
H212   H     0.35052   0.61377   0.11747   0.00000  Uiso   1.00
H213   H     0.88518   0.97822   0.00411   0.00000  Uiso   1.00
H214   H     0.13785   0.13207   0.08630   0.00000  Uiso   1.00
H215   H     0.56429   0.94936   0.22697   0.00000  Uiso   1.00
H216   H     0.51654   0.81105   0.25448   0.00000  Uiso   1.00
H217   H     0.77011   0.98388   0.20072   0.00000  Uiso   1.00
H218   H     0.41571   0.05683   0.23969   0.00000  Uiso   1.00
H219   H     0.44876   0.65191   0.26292   0.00000  Uiso   1.00
H220   H     0.98342   0.01637   0.14956   0.00000  Uiso   1.00
H221   H     0.23609   0.17021   0.23175   0.00000  Uiso   1.00
O222   O     0.36619   0.54105   0.20522   0.00000  Uiso   1.00
O223   O     0.06764   0.01920   0.05650   0.00000  Uiso   1.00
O224   O     0.08716   0.22104   0.16433   0.00000  Uiso   1.00
N225   N     0.38017   0.64173   0.14793   0.00000  Uiso   1.00
N226   N     0.88005   0.98246   0.04195   0.00000  Uiso   1.00
N227   N     0.18138   0.12631   0.11878   0.00000  Uiso   1.00
N228   N     0.43303   0.66226   0.22620   0.00000  Uiso   1.00
N229   N     0.93291   0.00299   0.12021   0.00000  Uiso   1.00
N230   N     0.23425   0.14683   0.19705   0.00000  Uiso   1.00
C231   C     0.02417   0.58499   0.09601   0.00000  Uiso   1.00
C232   C     0.03764   0.65529   0.12945   0.00000  Uiso   1.00
C233   C     0.07838   0.72583   0.11396   0.00000  Uiso   1.00
C234   C     0.08418   0.78287   0.15028   0.00000  Uiso   1.00
C235   C     0.11016   0.89402   0.19459   0.00000  Uiso   1.00
C236   C     0.89985   0.56139   0.10024   0.00000  Uiso   1.00
C237   C     0.82477   0.55298   0.06019   0.00000  Uiso   1.00
C238   C     0.71458   0.53096   0.07193   0.00000  Uiso   1.00
C239   C     0.52668   0.49629   0.07088   0.00000  Uiso   1.00
C240   C     0.09242   0.52176   0.12141   0.00000  Uiso   1.00
C241   C     0.17922   0.48000   0.09917   0.00000  Uiso   1.00
C242   C     0.23114   0.42461   0.12873   0.00000  Uiso   1.00
C243   C     0.34223   0.32840   0.16057   0.00000  Uiso   1.00
C244   C     0.96201   0.56085   0.18805   0.00000  Uiso   1.00
C245   C     0.00386   0.64217   0.17944   0.00000  Uiso   1.00
C246   C     0.00960   0.69912   0.21579   0.00000  Uiso   1.00
C247   C     0.05036   0.76973   0.20037   0.00000  Uiso   1.00
C248   C     0.86608   0.54828   0.15023   0.00000  Uiso   1.00
C249   C     0.75599   0.52627   0.16202   0.00000  Uiso   1.00
C250   C     0.68075   0.51783   0.12201   0.00000  Uiso   1.00
C251   C     0.05865   0.50865   0.17141   0.00000  Uiso   1.00
C252   C     0.11044   0.45330   0.20101   0.00000  Uiso   1.00
C253   C     0.19731   0.41147   0.17882   0.00000  Uiso   1.00
H254   H     0.05046   0.59520   0.05708   0.00000  Uiso   1.00
H255   H     0.10450   0.73595   0.07527   0.00000  Uiso   1.00
H256   H     0.85093   0.56312   0.02151   0.00000  Uiso   1.00
H257   H     0.20533   0.49017   0.06048   0.00000  Uiso   1.00
H258   H     0.14948   0.88623   0.11747   0.00000  Uiso   1.00
H259   H     0.61482   0.52178   0.00411   0.00000  Uiso   1.00
H260   H     0.36215   0.36793   0.08630   0.00000  Uiso   1.00
H261   H     0.93571   0.55064   0.22697   0.00000  Uiso   1.00
H262   H     0.98346   0.68895   0.25448   0.00000  Uiso   1.00
H263   H     0.72989   0.51612   0.20072   0.00000  Uiso   1.00
H264   H     0.08429   0.44317   0.23969   0.00000  Uiso   1.00
H265   H     0.05124   0.84809   0.26292   0.00000  Uiso   1.00
H266   H     0.51658   0.48363   0.14956   0.00000  Uiso   1.00
H267   H     0.26391   0.32979   0.23175   0.00000  Uiso   1.00
O268   O     0.13381   0.95895   0.20522   0.00000  Uiso   1.00
O269   O     0.43236   0.48080   0.05650   0.00000  Uiso   1.00
O270   O     0.41284   0.27896   0.16433   0.00000  Uiso   1.00
N271   N     0.11983   0.85827   0.14793   0.00000  Uiso   1.00
N272   N     0.61995   0.51754   0.04195   0.00000  Uiso   1.00
N273   N     0.31862   0.37369   0.11878   0.00000  Uiso   1.00
N274   N     0.06697   0.83774   0.22620   0.00000  Uiso   1.00
N275   N     0.56709   0.49701   0.12021   0.00000  Uiso   1.00
N276   N     0.26575   0.35317   0.19705   0.00000  Uiso   1.00
C277   C     0.52417   0.41501   0.40399   0.00000  Uiso   1.00
C278   C     0.53764   0.34471   0.37055   0.00000  Uiso   1.00
C279   C     0.57838   0.27417   0.38604   0.00000  Uiso   1.00
C280   C     0.58418   0.21713   0.34972   0.00000  Uiso   1.00
C281   C     0.61016   0.10598   0.30541   0.00000  Uiso   1.00
C282   C     0.39985   0.43861   0.39976   0.00000  Uiso   1.00
C283   C     0.32477   0.44702   0.43981   0.00000  Uiso   1.00
C284   C     0.21458   0.46904   0.42807   0.00000  Uiso   1.00
C285   C     0.02668   0.50371   0.42912   0.00000  Uiso   1.00
C286   C     0.59242   0.47824   0.37859   0.00000  Uiso   1.00
C287   C     0.67922   0.52000   0.40083   0.00000  Uiso   1.00
C288   C     0.73114   0.57539   0.37127   0.00000  Uiso   1.00
C289   C     0.84223   0.67160   0.33943   0.00000  Uiso   1.00
C290   C     0.46201   0.43915   0.31195   0.00000  Uiso   1.00
C291   C     0.50386   0.35783   0.32056   0.00000  Uiso   1.00
C292   C     0.50960   0.30088   0.28421   0.00000  Uiso   1.00
C293   C     0.55036   0.23027   0.29963   0.00000  Uiso   1.00
C294   C     0.36608   0.45172   0.34977   0.00000  Uiso   1.00
C295   C     0.25599   0.47373   0.33798   0.00000  Uiso   1.00
C296   C     0.18075   0.48217   0.37799   0.00000  Uiso   1.00
C297   C     0.55865   0.49135   0.32859   0.00000  Uiso   1.00
C298   C     0.61044   0.54670   0.29899   0.00000  Uiso   1.00
C299   C     0.69731   0.58853   0.32118   0.00000  Uiso   1.00
H300   H     0.55046   0.40480   0.44292   0.00000  Uiso   1.00
H301   H     0.60450   0.26405   0.42473   0.00000  Uiso   1.00
H302   H     0.35093   0.43688   0.47849   0.00000  Uiso   1.00
H303   H     0.70533   0.50983   0.43952   0.00000  Uiso   1.00
H304   H     0.64948   0.11377   0.38253   0.00000  Uiso   1.00
H305   H     0.11482   0.47822   0.49589   0.00000  Uiso   1.00
H306   H     0.86215   0.63207   0.41370   0.00000  Uiso   1.00
H307   H     0.43571   0.44936   0.27303   0.00000  Uiso   1.00
H308   H     0.48346   0.31105   0.24552   0.00000  Uiso   1.00
H309   H     0.22989   0.48388   0.29928   0.00000  Uiso   1.00
H310   H     0.58429   0.55683   0.26031   0.00000  Uiso   1.00
H311   H     0.55124   0.15191   0.23708   0.00000  Uiso   1.00
H312   H     0.01658   0.51637   0.35044   0.00000  Uiso   1.00
H313   H     0.76391   0.67021   0.26825   0.00000  Uiso   1.00
O314   O     0.63381   0.04105   0.29478   0.00000  Uiso   1.00
O315   O     0.93236   0.51920   0.44350   0.00000  Uiso   1.00
O316   O     0.91284   0.72104   0.33567   0.00000  Uiso   1.00
N317   N     0.61983   0.14173   0.35207   0.00000  Uiso   1.00
N318   N     0.11995   0.48246   0.45805   0.00000  Uiso   1.00
N319   N     0.81862   0.62631   0.38122   0.00000  Uiso   1.00
N320   N     0.56697   0.16226   0.27380   0.00000  Uiso   1.00
N321   N     0.06709   0.50299   0.37979   0.00000  Uiso   1.00
N322   N     0.76575   0.64683   0.30295   0.00000  Uiso   1.00
C323   C     0.97583   0.08499   0.40399   0.00000  Uiso   1.00
C324   C     0.96236   0.15529   0.37055   0.00000  Uiso   1.00
C325   C     0.92162   0.22583   0.38604   0.00000  Uiso   1.00
C326   C     0.91582   0.28287   0.34972   0.00000  Uiso   1.00
C327   C     0.88984   0.39402   0.30541   0.00000  Uiso   1.00
C328   C     0.10015   0.06139   0.39976   0.00000  Uiso   1.00
C329   C     0.17523   0.05298   0.43981   0.00000  Uiso   1.00
C330   C     0.28542   0.03096   0.42807   0.00000  Uiso   1.00
C331   C     0.47332   0.99629   0.42912   0.00000  Uiso   1.00
C332   C     0.90758   0.02176   0.37859   0.00000  Uiso   1.00
C333   C     0.82078   0.98000   0.40083   0.00000  Uiso   1.00
C334   C     0.76886   0.92461   0.37127   0.00000  Uiso   1.00
C335   C     0.65777   0.82840   0.33943   0.00000  Uiso   1.00
C336   C     0.03799   0.06085   0.31195   0.00000  Uiso   1.00
C337   C     0.99614   0.14217   0.32056   0.00000  Uiso   1.00
C338   C     0.99040   0.19912   0.28421   0.00000  Uiso   1.00
C339   C     0.94964   0.26973   0.29963   0.00000  Uiso   1.00
C340   C     0.13392   0.04828   0.34977   0.00000  Uiso   1.00
C341   C     0.24401   0.02627   0.33798   0.00000  Uiso   1.00
C342   C     0.31925   0.01783   0.37799   0.00000  Uiso   1.00
C343   C     0.94135   0.00865   0.32859   0.00000  Uiso   1.00
C344   C     0.88956   0.95330   0.29899   0.00000  Uiso   1.00
C345   C     0.80269   0.91147   0.32118   0.00000  Uiso   1.00
H346   H     0.94954   0.09520   0.44292   0.00000  Uiso   1.00
H347   H     0.89550   0.23595   0.42473   0.00000  Uiso   1.00
H348   H     0.14907   0.06312   0.47849   0.00000  Uiso   1.00
H349   H     0.79467   0.99017   0.43952   0.00000  Uiso   1.00
H350   H     0.85052   0.38623   0.38253   0.00000  Uiso   1.00
H351   H     0.38518   0.02178   0.49589   0.00000  Uiso   1.00
H352   H     0.63785   0.86793   0.41370   0.00000  Uiso   1.00
H353   H     0.06429   0.05064   0.27303   0.00000  Uiso   1.00
H354   H     0.01654   0.18895   0.24552   0.00000  Uiso   1.00
H355   H     0.27011   0.01612   0.29928   0.00000  Uiso   1.00
H356   H     0.91571   0.94317   0.26031   0.00000  Uiso   1.00
H357   H     0.94876   0.34809   0.23708   0.00000  Uiso   1.00
H358   H     0.48342   0.98363   0.35044   0.00000  Uiso   1.00
H359   H     0.73609   0.82979   0.26825   0.00000  Uiso   1.00
O360   O     0.86619   0.45895   0.29478   0.00000  Uiso   1.00
O361   O     0.56764   0.98080   0.44350   0.00000  Uiso   1.00
O362   O     0.58716   0.77896   0.33567   0.00000  Uiso   1.00
N363   N     0.88017   0.35827   0.35207   0.00000  Uiso   1.00
N364   N     0.38005   0.01754   0.45805   0.00000  Uiso   1.00
N365   N     0.68138   0.87369   0.38122   0.00000  Uiso   1.00
N366   N     0.93303   0.33774   0.27380   0.00000  Uiso   1.00
N367   N     0.43291   0.99701   0.37979   0.00000  Uiso   1.00
N368   N     0.73425   0.85317   0.30295   0.00000  Uiso   1.00
