data_job_02849
_audit_creation_date              2018-12-19
_audit_creation_method            'Materials Studio'
_symmetry_space_group_name_H-M    'P1'
_symmetry_Int_Tables_number       1
_symmetry_cell_setting            triclinic
loop_
_symmetry_equiv_pos_as_xyz
  x,y,z
_cell_length_a                    23.5073
_cell_length_b                    13.6959
_cell_length_c                    23.5073
_cell_angle_alpha                 90.0000
_cell_angle_beta                  119.2170
_cell_angle_gamma                 90.0000
loop_
_atom_site_label
_atom_site_type_symbol
_atom_site_fract_x
_atom_site_fract_y
_atom_site_fract_z
_atom_site_U_iso_or_equiv
_atom_site_adp_type
_atom_site_occupancy
C1     C     0.92031   0.52866   0.57952   0.00000  Uiso   1.00
C2     C     0.98877   0.57201   0.61357   0.00000  Uiso   1.00
C3     C     0.04653   0.51929   0.64198   0.00000  Uiso   1.00
C4     C     0.10412   0.57250   0.67069   0.00000  Uiso   1.00
C5     C     0.21046   0.62426   0.72354   0.00000  Uiso   1.00
C6     C     0.88546   0.57095   0.61425   0.00000  Uiso   1.00
C7     C     0.85636   0.51734   0.64323   0.00000  Uiso   1.00
C8     C     0.82699   0.56967   0.67250   0.00000  Uiso   1.00
C9     C     0.77290   0.61978   0.72636   0.00000  Uiso   1.00
C10    C     0.88640   0.57202   0.51107   0.00000  Uiso   1.00
C11    C     0.85806   0.51931   0.45330   0.00000  Uiso   1.00
C12    C     0.82946   0.57253   0.39570   0.00000  Uiso   1.00
C13    C     0.77683   0.62431   0.28937   0.00000  Uiso   1.00
C14    C     0.91987   0.71690   0.57997   0.00000  Uiso   1.00
C15    C     0.98853   0.67426   0.61381   0.00000  Uiso   1.00
C16    C     0.04605   0.72756   0.64248   0.00000  Uiso   1.00
C17    C     0.10389   0.67493   0.67093   0.00000  Uiso   1.00
C18    C     0.88522   0.67320   0.61449   0.00000  Uiso   1.00
C19    C     0.85588   0.72561   0.64372   0.00000  Uiso   1.00
C20    C     0.82675   0.67210   0.67274   0.00000  Uiso   1.00
C21    C     0.88616   0.67427   0.51131   0.00000  Uiso   1.00
C22    C     0.85759   0.72758   0.45379   0.00000  Uiso   1.00
C23    C     0.82922   0.67497   0.39595   0.00000  Uiso   1.00
H24    H     0.92049   0.44905   0.57934   0.00000  Uiso   1.00
H25    H     0.04669   0.44016   0.64179   0.00000  Uiso   1.00
H26    H     0.85655   0.43822   0.64303   0.00000  Uiso   1.00
H27    H     0.85826   0.44018   0.45313   0.00000  Uiso   1.00
H28    H     0.18651   0.47539   0.71116   0.00000  Uiso   1.00
H29    H     0.78556   0.47129   0.71375   0.00000  Uiso   1.00
H30    H     0.78916   0.47544   0.31331   0.00000  Uiso   1.00
H31    H     0.91969   0.79651   0.58016   0.00000  Uiso   1.00
H32    H     0.04585   0.80669   0.64266   0.00000  Uiso   1.00
H33    H     0.85571   0.80474   0.64389   0.00000  Uiso   1.00
H34    H     0.85742   0.80671   0.45400   0.00000  Uiso   1.00
H35    H     0.18582   0.77288   0.71187   0.00000  Uiso   1.00
H36    H     0.78488   0.76877   0.71445   0.00000  Uiso   1.00
H37    H     0.78848   0.77293   0.31402   0.00000  Uiso   1.00
O38    O     0.26917   0.62456   0.75264   0.00000  Uiso   1.00
O39    O     0.74314   0.61917   0.75602   0.00000  Uiso   1.00
O40    O     0.74786   0.62462   0.23066   0.00000  Uiso   1.00
N41    N     0.16903   0.54401   0.70274   0.00000  Uiso   1.00
N42    N     0.79418   0.54017   0.70517   0.00000  Uiso   1.00
N43    N     0.79753   0.54405   0.33079   0.00000  Uiso   1.00
N44    N     0.16867   0.70408   0.70312   0.00000  Uiso   1.00
N45    N     0.79381   0.70025   0.70555   0.00000  Uiso   1.00
N46    N     0.79716   0.70413   0.33117   0.00000  Uiso   1.00
C47    C     0.41316   0.46734   0.08701   0.00000  Uiso   1.00
C48    C     0.37913   0.42404   0.01854   0.00000  Uiso   1.00
C49    C     0.35070   0.47680   0.96079   0.00000  Uiso   1.00
C50    C     0.32201   0.42363   0.90318   0.00000  Uiso   1.00
C51    C     0.26917   0.37196   0.79683   0.00000  Uiso   1.00
C52    C     0.37845   0.42494   0.12184   0.00000  Uiso   1.00
C53    C     0.34945   0.47846   0.15096   0.00000  Uiso   1.00
C54    C     0.32020   0.42605   0.18031   0.00000  Uiso   1.00
C55    C     0.26635   0.37578   0.23438   0.00000  Uiso   1.00
C56    C     0.48163   0.42403   0.12091   0.00000  Uiso   1.00
C57    C     0.53938   0.47678   0.14926   0.00000  Uiso   1.00
C58    C     0.59700   0.42360   0.17784   0.00000  Uiso   1.00
C59    C     0.70334   0.37191   0.23046   0.00000  Uiso   1.00
C60    C     0.41278   0.27909   0.08738   0.00000  Uiso   1.00
C61    C     0.37893   0.32179   0.01874   0.00000  Uiso   1.00
C62    C     0.35027   0.26853   0.96120   0.00000  Uiso   1.00
C63    C     0.32180   0.32120   0.90338   0.00000  Uiso   1.00
C64    C     0.37824   0.32270   0.12204   0.00000  Uiso   1.00
C65    C     0.34903   0.27019   0.15137   0.00000  Uiso   1.00
C66    C     0.31999   0.32362   0.18051   0.00000  Uiso   1.00
C67    C     0.48142   0.32178   0.12111   0.00000  Uiso   1.00
C68    C     0.53896   0.26850   0.14966   0.00000  Uiso   1.00
C69    C     0.59679   0.32117   0.17804   0.00000  Uiso   1.00
H70    H     0.41332   0.54694   0.08685   0.00000  Uiso   1.00
H71    H     0.35086   0.55593   0.96065   0.00000  Uiso   1.00
H72    H     0.34963   0.55759   0.15080   0.00000  Uiso   1.00
H73    H     0.53952   0.55591   0.14909   0.00000  Uiso   1.00
H74    H     0.28150   0.52080   0.82083   0.00000  Uiso   1.00
H75    H     0.27891   0.52431   0.22177   0.00000  Uiso   1.00
H76    H     0.67935   0.52076   0.21818   0.00000  Uiso   1.00
H77    H     0.41262   0.19948   0.08754   0.00000  Uiso   1.00
H78    H     0.35012   0.18940   0.96137   0.00000  Uiso   1.00
H79    H     0.34888   0.19106   0.15152   0.00000  Uiso   1.00
H80    H     0.53878   0.18938   0.14981   0.00000  Uiso   1.00
H81    H     0.28090   0.22331   0.82141   0.00000  Uiso   1.00
H82    H     0.27831   0.22682   0.22236   0.00000  Uiso   1.00
H83    H     0.67875   0.22327   0.21876   0.00000  Uiso   1.00
O84    O     0.24008   0.37170   0.73811   0.00000  Uiso   1.00
O85    O     0.23670   0.37630   0.26415   0.00000  Uiso   1.00
O86    O     0.76206   0.37164   0.25942   0.00000  Uiso   1.00
N87    N     0.28995   0.45217   0.83828   0.00000  Uiso   1.00
N88    N     0.28752   0.45545   0.21313   0.00000  Uiso   1.00
N89    N     0.66190   0.45213   0.20978   0.00000  Uiso   1.00
N90    N     0.28962   0.29210   0.83859   0.00000  Uiso   1.00
N91    N     0.28720   0.29537   0.21344   0.00000  Uiso   1.00
N92    N     0.66157   0.29205   0.21009   0.00000  Uiso   1.00
C93    C     0.07969   0.02866   0.42048   0.00000  Uiso   1.00
C94    C     0.01123   0.07201   0.38643   0.00000  Uiso   1.00
C95    C     0.95347   0.01929   0.35802   0.00000  Uiso   1.00
C96    C     0.89588   0.07250   0.32931   0.00000  Uiso   1.00
C97    C     0.78954   0.12426   0.27646   0.00000  Uiso   1.00
C98    C     0.11454   0.07095   0.38575   0.00000  Uiso   1.00
C99    C     0.14364   0.01734   0.35677   0.00000  Uiso   1.00
C100   C     0.17301   0.06967   0.32750   0.00000  Uiso   1.00
C101   C     0.22710   0.11978   0.27364   0.00000  Uiso   1.00
C102   C     0.11360   0.07202   0.48893   0.00000  Uiso   1.00
C103   C     0.14194   0.01931   0.54670   0.00000  Uiso   1.00
C104   C     0.17054   0.07253   0.60430   0.00000  Uiso   1.00
C105   C     0.22317   0.12431   0.71063   0.00000  Uiso   1.00
C106   C     0.08013   0.21690   0.42003   0.00000  Uiso   1.00
C107   C     0.01147   0.17426   0.38619   0.00000  Uiso   1.00
C108   C     0.95395   0.22756   0.35752   0.00000  Uiso   1.00
C109   C     0.89611   0.17493   0.32907   0.00000  Uiso   1.00
C110   C     0.11478   0.17320   0.38551   0.00000  Uiso   1.00
C111   C     0.14412   0.22561   0.35628   0.00000  Uiso   1.00
C112   C     0.17325   0.17210   0.32726   0.00000  Uiso   1.00
C113   C     0.11384   0.17427   0.48869   0.00000  Uiso   1.00
C114   C     0.14241   0.22758   0.54621   0.00000  Uiso   1.00
C115   C     0.17078   0.17497   0.60405   0.00000  Uiso   1.00
H116   H     0.07951   0.94905   0.42066   0.00000  Uiso   1.00
H117   H     0.95331   0.94016   0.35821   0.00000  Uiso   1.00
H118   H     0.14345   0.93822   0.35697   0.00000  Uiso   1.00
H119   H     0.14174   0.94018   0.54687   0.00000  Uiso   1.00
H120   H     0.81349   0.97539   0.28884   0.00000  Uiso   1.00
H121   H     0.21444   0.97129   0.28625   0.00000  Uiso   1.00
H122   H     0.21084   0.97544   0.68669   0.00000  Uiso   1.00
H123   H     0.08031   0.29651   0.41984   0.00000  Uiso   1.00
H124   H     0.95415   0.30669   0.35734   0.00000  Uiso   1.00
H125   H     0.14429   0.30474   0.35611   0.00000  Uiso   1.00
H126   H     0.14258   0.30671   0.54600   0.00000  Uiso   1.00
H127   H     0.81418   0.27288   0.28813   0.00000  Uiso   1.00
H128   H     0.21512   0.26877   0.28555   0.00000  Uiso   1.00
H129   H     0.21152   0.27293   0.68598   0.00000  Uiso   1.00
O130   O     0.73083   0.12456   0.24736   0.00000  Uiso   1.00
O131   O     0.25686   0.11917   0.24398   0.00000  Uiso   1.00
O132   O     0.25214   0.12462   0.76934   0.00000  Uiso   1.00
N133   N     0.83097   0.04401   0.29726   0.00000  Uiso   1.00
N134   N     0.20582   0.04017   0.29483   0.00000  Uiso   1.00
N135   N     0.20247   0.04405   0.66921   0.00000  Uiso   1.00
N136   N     0.83133   0.20408   0.29688   0.00000  Uiso   1.00
N137   N     0.20619   0.20025   0.29445   0.00000  Uiso   1.00
N138   N     0.20284   0.20413   0.66883   0.00000  Uiso   1.00
C139   C     0.58684   0.96734   0.91299   0.00000  Uiso   1.00
C140   C     0.62087   0.92404   0.98146   0.00000  Uiso   1.00
C141   C     0.64930   0.97680   0.03921   0.00000  Uiso   1.00
C142   C     0.67799   0.92363   0.09682   0.00000  Uiso   1.00
C143   C     0.73083   0.87196   0.20317   0.00000  Uiso   1.00
C144   C     0.62155   0.92494   0.87816   0.00000  Uiso   1.00
C145   C     0.65055   0.97846   0.84904   0.00000  Uiso   1.00
C146   C     0.67980   0.92605   0.81969   0.00000  Uiso   1.00
C147   C     0.73365   0.87578   0.76562   0.00000  Uiso   1.00
C148   C     0.51837   0.92403   0.87909   0.00000  Uiso   1.00
C149   C     0.46062   0.97678   0.85074   0.00000  Uiso   1.00
C150   C     0.40300   0.92360   0.82216   0.00000  Uiso   1.00
C151   C     0.29666   0.87191   0.76954   0.00000  Uiso   1.00
C152   C     0.58722   0.77909   0.91262   0.00000  Uiso   1.00
C153   C     0.62107   0.82179   0.98126   0.00000  Uiso   1.00
C154   C     0.64973   0.76853   0.03880   0.00000  Uiso   1.00
C155   C     0.67820   0.82120   0.09662   0.00000  Uiso   1.00
C156   C     0.62176   0.82270   0.87796   0.00000  Uiso   1.00
C157   C     0.65097   0.77019   0.84863   0.00000  Uiso   1.00
C158   C     0.68001   0.82362   0.81949   0.00000  Uiso   1.00
C159   C     0.51858   0.82178   0.87889   0.00000  Uiso   1.00
C160   C     0.46104   0.76850   0.85034   0.00000  Uiso   1.00
C161   C     0.40321   0.82117   0.82196   0.00000  Uiso   1.00
H162   H     0.58668   0.04694   0.91315   0.00000  Uiso   1.00
H163   H     0.64914   0.05593   0.03935   0.00000  Uiso   1.00
H164   H     0.65037   0.05759   0.84920   0.00000  Uiso   1.00
H165   H     0.46048   0.05591   0.85091   0.00000  Uiso   1.00
H166   H     0.71850   0.02080   0.17917   0.00000  Uiso   1.00
H167   H     0.72109   0.02431   0.77823   0.00000  Uiso   1.00
H168   H     0.32065   0.02076   0.78182   0.00000  Uiso   1.00
H169   H     0.58738   0.69948   0.91246   0.00000  Uiso   1.00
H170   H     0.64988   0.68940   0.03863   0.00000  Uiso   1.00
H171   H     0.65112   0.69106   0.84848   0.00000  Uiso   1.00
H172   H     0.46122   0.68938   0.85019   0.00000  Uiso   1.00
H173   H     0.71910   0.72331   0.17859   0.00000  Uiso   1.00
H174   H     0.72169   0.72682   0.77764   0.00000  Uiso   1.00
H175   H     0.32125   0.72327   0.78124   0.00000  Uiso   1.00
O176   O     0.75992   0.87170   0.26189   0.00000  Uiso   1.00
O177   O     0.76330   0.87630   0.73585   0.00000  Uiso   1.00
O178   O     0.23794   0.87164   0.74058   0.00000  Uiso   1.00
N179   N     0.71005   0.95217   0.16172   0.00000  Uiso   1.00
N180   N     0.71248   0.95545   0.78687   0.00000  Uiso   1.00
N181   N     0.33810   0.95213   0.79022   0.00000  Uiso   1.00
N182   N     0.71038   0.79210   0.16141   0.00000  Uiso   1.00
N183   N     0.71280   0.79537   0.78656   0.00000  Uiso   1.00
N184   N     0.33843   0.79205   0.78991   0.00000  Uiso   1.00
