data_job_06028
_audit_creation_date              2018-12-19
_audit_creation_method            'Materials Studio'
_symmetry_space_group_name_H-M    'P1'
_symmetry_Int_Tables_number       1
_symmetry_cell_setting            triclinic
loop_
_symmetry_equiv_pos_as_xyz
  x,y,z
_cell_length_a                    12.7238
_cell_length_b                    17.8913
_cell_length_c                    17.9388
_cell_angle_alpha                 65.3420
_cell_angle_beta                  76.7926
_cell_angle_gamma                 103.1540
loop_
_atom_site_label
_atom_site_type_symbol
_atom_site_fract_x
_atom_site_fract_y
_atom_site_fract_z
_atom_site_U_iso_or_equiv
_atom_site_adp_type
_atom_site_occupancy
C1     C     0.61232   0.23999   0.20017   0.00000  Uiso   1.00
C2     C     0.49221   0.19474   0.20456   0.00000  Uiso   1.00
C3     C     0.45729   0.21195   0.13317   0.00000  Uiso   1.00
C4     C     0.34379   0.16351   0.15094   0.00000  Uiso   1.00
C5     C     0.16881   0.10293   0.14466   0.00000  Uiso   1.00
C6     C     0.59334   0.27903   0.26092   0.00000  Uiso   1.00
C7     C     0.64347   0.36711   0.23691   0.00000  Uiso   1.00
C8     C     0.61511   0.38962   0.30213   0.00000  Uiso   1.00
C9     C     0.59720   0.45988   0.38337   0.00000  Uiso   1.00
C10    C     0.65581   0.16627   0.24367   0.00000  Uiso   1.00
C11    C     0.75847   0.15955   0.20517   0.00000  Uiso   1.00
C12    C     0.78271   0.08714   0.25588   0.00000  Uiso   1.00
C13    C     0.86179   0.98233   0.31034   0.00000  Uiso   1.00
C14    C     0.47285   0.12336   0.35870   0.00000  Uiso   1.00
C15    C     0.41646   0.13139   0.29067   0.00000  Uiso   1.00
C16    C     0.30299   0.08291   0.30856   0.00000  Uiso   1.00
C17    C     0.26790   0.10005   0.23720   0.00000  Uiso   1.00
C18    C     0.51760   0.21568   0.34703   0.00000  Uiso   1.00
C19    C     0.48916   0.23807   0.41230   0.00000  Uiso   1.00
C20    C     0.53922   0.32615   0.38839   0.00000  Uiso   1.00
C21    C     0.58006   0.10292   0.32978   0.00000  Uiso   1.00
C22    C     0.60415   0.03051   0.38056   0.00000  Uiso   1.00
C23    C     0.70682   0.02368   0.34215   0.00000  Uiso   1.00
H24    H     0.67129   0.28931   0.13314   0.00000  Uiso   1.00
H25    H     0.51594   0.26099   0.06654   0.00000  Uiso   1.00
H26    H     0.70209   0.41611   0.17027   0.00000  Uiso   1.00
H27    H     0.81706   0.20859   0.13854   0.00000  Uiso   1.00
H28    H     0.31028   0.20167   0.03068   0.00000  Uiso   1.00
H29    H     0.70283   0.52876   0.24941   0.00000  Uiso   1.00
H30    H     0.94527   0.09115   0.18249   0.00000  Uiso   1.00
H31    H     0.41387   0.07404   0.42574   0.00000  Uiso   1.00
H32    H     0.24439   0.03389   0.37520   0.00000  Uiso   1.00
H33    H     0.43054   0.18903   0.47893   0.00000  Uiso   1.00
H34    H     0.54551   0.98150   0.44719   0.00000  Uiso   1.00
H35    H     0.08988   0.01736   0.28120   0.00000  Uiso   1.00
H36    H     0.48243   0.34445   0.49993   0.00000  Uiso   1.00
H37    H     0.72487   0.90684   0.43301   0.00000  Uiso   1.00
O38    O     0.09322   0.08702   0.11741   0.00000  Uiso   1.00
O39    O     0.60825   0.51614   0.40438   0.00000  Uiso   1.00
O40    O     0.92632   0.94201   0.31659   0.00000  Uiso   1.00
N41    N     0.28167   0.16379   0.09657   0.00000  Uiso   1.00
N42    N     0.64867   0.46960   0.30107   0.00000  Uiso   1.00
N43    N     0.87535   0.06049   0.23852   0.00000  Uiso   1.00
N44    N     0.16308   0.06461   0.23137   0.00000  Uiso   1.00
N45    N     0.53007   0.37042   0.43587   0.00000  Uiso   1.00
N46    N     0.75675   0.96131   0.37332   0.00000  Uiso   1.00
C47    C     0.37188   0.56049   0.23941   0.00000  Uiso   1.00
C48    C     0.29660   0.60175   0.19312   0.00000  Uiso   1.00
C49    C     0.24502   0.65641   0.20992   0.00000  Uiso   1.00
C50    C     0.17943   0.68738   0.16051   0.00000  Uiso   1.00
C51    C     0.06454   0.75488   0.09838   0.00000  Uiso   1.00
C52    C     0.31510   0.46110   0.27767   0.00000  Uiso   1.00
C53    C     0.27908   0.39752   0.36557   0.00000  Uiso   1.00
C54    C     0.22908   0.31010   0.38733   0.00000  Uiso   1.00
C55    C     0.14298   0.15925   0.45646   0.00000  Uiso   1.00
C56    C     0.48697   0.58970   0.16684   0.00000  Uiso   1.00
C57    C     0.59547   0.63423   0.16156   0.00000  Uiso   1.00
C58    C     0.69018   0.65505   0.09001   0.00000  Uiso   1.00
C59    C     0.87094   0.70387   0.98706   0.00000  Uiso   1.00
C60    C     0.34713   0.51829   0.12178   0.00000  Uiso   1.00
C61    C     0.28316   0.57882   0.12922   0.00000  Uiso   1.00
C62    C     0.21764   0.60971   0.07977   0.00000  Uiso   1.00
C63    C     0.16597   0.66441   0.09650   0.00000  Uiso   1.00
C64    C     0.30166   0.43818   0.21378   0.00000  Uiso   1.00
C65    C     0.25170   0.35083   0.23542   0.00000  Uiso   1.00
C66    C     0.21561   0.28713   0.32332   0.00000  Uiso   1.00
C67    C     0.47353   0.56678   0.10294   0.00000  Uiso   1.00
C68    C     0.56809   0.58754   0.03140   0.00000  Uiso   1.00
C69    C     0.67671   0.63209   0.02600   0.00000  Uiso   1.00
H70    H     0.38234   0.57834   0.28916   0.00000  Uiso   1.00
H71    H     0.25543   0.67413   0.25939   0.00000  Uiso   1.00
H72    H     0.28950   0.41528   0.41500   0.00000  Uiso   1.00
H73    H     0.60583   0.65195   0.21101   0.00000  Uiso   1.00
H74    H     0.10876   0.77019   0.19821   0.00000  Uiso   1.00
H75    H     0.18064   0.22440   0.52633   0.00000  Uiso   1.00
H76    H     0.84770   0.72347   0.09619   0.00000  Uiso   1.00
H77    H     0.33667   0.50044   0.07203   0.00000  Uiso   1.00
H78    H     0.20725   0.59196   0.03033   0.00000  Uiso   1.00
H79    H     0.24132   0.33311   0.18595   0.00000  Uiso   1.00
H80    H     0.55766   0.56979   0.98197   0.00000  Uiso   1.00
H81    H     0.06966   0.70350   0.01231   0.00000  Uiso   1.00
H82    H     0.14154   0.15771   0.34043   0.00000  Uiso   1.00
H83    H     0.80859   0.65678   0.91029   0.00000  Uiso   1.00
O84    O     0.00487   0.79843   0.08177   0.00000  Uiso   1.00
O85    O     0.09919   0.08238   0.51225   0.00000  Uiso   1.00
O86    O     0.97435   0.73715   0.94791   0.00000  Uiso   1.00
N87    N     0.11734   0.74195   0.16017   0.00000  Uiso   1.00
N88    N     0.18452   0.23167   0.46695   0.00000  Uiso   1.00
N89    N     0.80817   0.69824   0.06481   0.00000  Uiso   1.00
N90    N     0.09630   0.70607   0.06014   0.00000  Uiso   1.00
N91    N     0.16348   0.19578   0.36691   0.00000  Uiso   1.00
N92    N     0.78713   0.66235   0.96478   0.00000  Uiso   1.00
C93    C     0.81447   0.20102   0.55901   0.00000  Uiso   1.00
C94    C     0.69941   0.20700   0.59905   0.00000  Uiso   1.00
C95    C     0.59493   0.13634   0.65250   0.00000  Uiso   1.00
C96    C     0.49951   0.15556   0.68249   0.00000  Uiso   1.00
C97    C     0.31949   0.15164   0.74808   0.00000  Uiso   1.00
C98    C     0.85491   0.26159   0.45979   0.00000  Uiso   1.00
C99    C     0.88119   0.23684   0.39614   0.00000  Uiso   1.00
C100   C     0.91669   0.30203   0.30890   0.00000  Uiso   1.00
C101   C     0.97816   0.38289   0.15828   0.00000  Uiso   1.00
C102   C     0.90028   0.24397   0.58954   0.00000  Uiso   1.00
C103   C     0.96473   0.20441   0.63498   0.00000  Uiso   1.00
C104   C     0.03844   0.25477   0.65697   0.00000  Uiso   1.00
C105   C     0.17036   0.30826   0.70782   0.00000  Uiso   1.00
C106   C     0.83080   0.36080   0.51723   0.00000  Uiso   1.00
C107   C     0.70828   0.29378   0.57636   0.00000  Uiso   1.00
C108   C     0.61299   0.31312   0.60628   0.00000  Uiso   1.00
C109   C     0.50839   0.24250   0.65976   0.00000  Uiso   1.00
C110   C     0.86378   0.34838   0.43709   0.00000  Uiso   1.00
C111   C     0.89925   0.41362   0.34992   0.00000  Uiso   1.00
C112   C     0.92557   0.38897   0.28617   0.00000  Uiso   1.00
C113   C     0.90915   0.33076   0.56686   0.00000  Uiso   1.00
C114   C     0.98279   0.38118   0.58877   0.00000  Uiso   1.00
C115   C     0.04733   0.34171   0.63424   0.00000  Uiso   1.00
H116   H     0.80757   0.13346   0.57667   0.00000  Uiso   1.00
H117   H     0.58810   0.06919   0.67003   0.00000  Uiso   1.00
H118   H     0.87433   0.16968   0.41372   0.00000  Uiso   1.00
H119   H     0.95784   0.13725   0.65253   0.00000  Uiso   1.00
H120   H     0.34868   0.03621   0.76352   0.00000  Uiso   1.00
H121   H     0.95224   0.24811   0.22307   0.00000  Uiso   1.00
H122   H     0.12836   0.17972   0.72664   0.00000  Uiso   1.00
H123   H     0.83771   0.42837   0.49956   0.00000  Uiso   1.00
H124   H     0.61988   0.38028   0.58871   0.00000  Uiso   1.00
H125   H     0.90611   0.48077   0.33239   0.00000  Uiso   1.00
H126   H     0.98963   0.44834   0.57120   0.00000  Uiso   1.00
H127   H     0.37447   0.28871   0.69750   0.00000  Uiso   1.00
H128   H     0.97805   0.50060   0.15705   0.00000  Uiso   1.00
H129   H     0.15416   0.43222   0.66063   0.00000  Uiso   1.00
O130   O     0.21773   0.12551   0.79052   0.00000  Uiso   1.00
O131   O     0.00961   0.40351   0.08147   0.00000  Uiso   1.00
O132   O     0.24066   0.31379   0.74215   0.00000  Uiso   1.00
N133   N     0.38465   0.10223   0.73576   0.00000  Uiso   1.00
N134   N     0.94893   0.30034   0.23048   0.00000  Uiso   1.00
N135   N     0.11360   0.23641   0.70125   0.00000  Uiso   1.00
N136   N     0.39853   0.23810   0.70024   0.00000  Uiso   1.00
N137   N     0.96281   0.43621   0.19496   0.00000  Uiso   1.00
N138   N     0.12749   0.37228   0.66573   0.00000  Uiso   1.00
C139   C     0.38768   0.76001   0.79983   0.00000  Uiso   1.00
C140   C     0.50779   0.80526   0.79544   0.00000  Uiso   1.00
C141   C     0.54271   0.78805   0.86683   0.00000  Uiso   1.00
C142   C     0.65621   0.83649   0.84906   0.00000  Uiso   1.00
C143   C     0.83119   0.89708   0.85534   0.00000  Uiso   1.00
C144   C     0.40666   0.72097   0.73908   0.00000  Uiso   1.00
C145   C     0.35653   0.63289   0.76309   0.00000  Uiso   1.00
C146   C     0.38489   0.61038   0.69787   0.00000  Uiso   1.00
C147   C     0.40280   0.54012   0.61663   0.00000  Uiso   1.00
C148   C     0.34419   0.83373   0.75633   0.00000  Uiso   1.00
C149   C     0.24153   0.84045   0.79483   0.00000  Uiso   1.00
C150   C     0.21729   0.91286   0.74412   0.00000  Uiso   1.00
C151   C     0.13821   0.01767   0.68966   0.00000  Uiso   1.00
C152   C     0.52715   0.87664   0.64130   0.00000  Uiso   1.00
C153   C     0.58354   0.86861   0.70933   0.00000  Uiso   1.00
C154   C     0.69701   0.91709   0.69144   0.00000  Uiso   1.00
C155   C     0.73210   0.89995   0.76280   0.00000  Uiso   1.00
C156   C     0.48240   0.78432   0.65297   0.00000  Uiso   1.00
C157   C     0.51084   0.76193   0.58770   0.00000  Uiso   1.00
C158   C     0.46078   0.67385   0.61160   0.00000  Uiso   1.00
C159   C     0.41995   0.89708   0.67022   0.00000  Uiso   1.00
C160   C     0.39585   0.96949   0.61944   0.00000  Uiso   1.00
C161   C     0.29318   0.97632   0.65786   0.00000  Uiso   1.00
H162   H     0.32871   0.71069   0.86686   0.00000  Uiso   1.00
H163   H     0.48406   0.73901   0.93346   0.00000  Uiso   1.00
H164   H     0.29791   0.58389   0.82973   0.00000  Uiso   1.00
H165   H     0.18294   0.79141   0.86146   0.00000  Uiso   1.00
H166   H     0.68972   0.79833   0.96932   0.00000  Uiso   1.00
H167   H     0.29717   0.47124   0.75059   0.00000  Uiso   1.00
H168   H     0.05473   0.90885   0.81751   0.00000  Uiso   1.00
H169   H     0.58613   0.92596   0.57426   0.00000  Uiso   1.00
H170   H     0.75562   0.96611   0.62480   0.00000  Uiso   1.00
H171   H     0.56946   0.81097   0.52107   0.00000  Uiso   1.00
H172   H     0.45449   0.01850   0.55281   0.00000  Uiso   1.00
H173   H     0.91013   0.98264   0.71880   0.00000  Uiso   1.00
H174   H     0.51757   0.65555   0.50007   0.00000  Uiso   1.00
H175   H     0.27513   0.09316   0.56699   0.00000  Uiso   1.00
O176   O     0.90678   0.91298   0.88259   0.00000  Uiso   1.00
O177   O     0.39175   0.48386   0.59562   0.00000  Uiso   1.00
O178   O     0.07368   0.05799   0.68341   0.00000  Uiso   1.00
N179   N     0.71833   0.83621   0.90343   0.00000  Uiso   1.00
N180   N     0.35133   0.53040   0.69893   0.00000  Uiso   1.00
N181   N     0.12465   0.93951   0.76148   0.00000  Uiso   1.00
N182   N     0.83692   0.93539   0.76863   0.00000  Uiso   1.00
N183   N     0.46993   0.62958   0.56413   0.00000  Uiso   1.00
N184   N     0.24325   0.03869   0.62668   0.00000  Uiso   1.00
C185   C     0.62812   0.43951   0.76059   0.00000  Uiso   1.00
C186   C     0.70340   0.39825   0.80688   0.00000  Uiso   1.00
C187   C     0.75499   0.34359   0.79008   0.00000  Uiso   1.00
C188   C     0.82057   0.31262   0.83949   0.00000  Uiso   1.00
C189   C     0.93546   0.24512   0.90162   0.00000  Uiso   1.00
C190   C     0.68491   0.53890   0.72233   0.00000  Uiso   1.00
C191   C     0.72092   0.60248   0.63443   0.00000  Uiso   1.00
C192   C     0.77092   0.68990   0.61267   0.00000  Uiso   1.00
C193   C     0.85702   0.84075   0.54354   0.00000  Uiso   1.00
C194   C     0.51303   0.41030   0.83316   0.00000  Uiso   1.00
C195   C     0.40453   0.36577   0.83844   0.00000  Uiso   1.00
C196   C     0.30982   0.34495   0.90999   0.00000  Uiso   1.00
C197   C     0.12906   0.29613   0.01294   0.00000  Uiso   1.00
C198   C     0.65287   0.48171   0.87822   0.00000  Uiso   1.00
C199   C     0.71684   0.42118   0.87078   0.00000  Uiso   1.00
C200   C     0.78236   0.39029   0.92023   0.00000  Uiso   1.00
C201   C     0.83403   0.33559   0.90350   0.00000  Uiso   1.00
C202   C     0.69835   0.56182   0.78622   0.00000  Uiso   1.00
C203   C     0.74830   0.64917   0.76458   0.00000  Uiso   1.00
C204   C     0.78439   0.71287   0.67668   0.00000  Uiso   1.00
C205   C     0.52647   0.43322   0.89706   0.00000  Uiso   1.00
C206   C     0.43191   0.41246   0.96860   0.00000  Uiso   1.00
C207   C     0.32329   0.36791   0.97400   0.00000  Uiso   1.00
H208   H     0.61766   0.42166   0.71084   0.00000  Uiso   1.00
H209   H     0.74457   0.32587   0.74061   0.00000  Uiso   1.00
H210   H     0.71050   0.58472   0.58500   0.00000  Uiso   1.00
H211   H     0.39417   0.34805   0.78899   0.00000  Uiso   1.00
H212   H     0.89124   0.22981   0.80179   0.00000  Uiso   1.00
H213   H     0.81936   0.77560   0.47367   0.00000  Uiso   1.00
H214   H     0.15230   0.27653   0.90381   0.00000  Uiso   1.00
H215   H     0.66333   0.49956   0.92797   0.00000  Uiso   1.00
H216   H     0.79275   0.40804   0.96967   0.00000  Uiso   1.00
H217   H     0.75868   0.66689   0.81405   0.00000  Uiso   1.00
H218   H     0.44234   0.43021   0.01803   0.00000  Uiso   1.00
H219   H     0.93034   0.29650   0.98769   0.00000  Uiso   1.00
H220   H     0.85846   0.84229   0.65957   0.00000  Uiso   1.00
H221   H     0.19141   0.34322   0.08971   0.00000  Uiso   1.00
O222   O     0.99513   0.20157   0.91823   0.00000  Uiso   1.00
O223   O     0.90081   0.91762   0.48775   0.00000  Uiso   1.00
O224   O     0.02565   0.26285   0.05209   0.00000  Uiso   1.00
N225   N     0.88266   0.25805   0.83983   0.00000  Uiso   1.00
N226   N     0.81548   0.76833   0.53305   0.00000  Uiso   1.00
N227   N     0.19183   0.30176   0.93519   0.00000  Uiso   1.00
N228   N     0.90370   0.29393   0.93986   0.00000  Uiso   1.00
N229   N     0.83652   0.80422   0.63309   0.00000  Uiso   1.00
N230   N     0.21287   0.33765   0.03522   0.00000  Uiso   1.00
C231   C     0.18553   0.79898   0.44099   0.00000  Uiso   1.00
C232   C     0.30059   0.79300   0.40095   0.00000  Uiso   1.00
C233   C     0.40507   0.86366   0.34750   0.00000  Uiso   1.00
C234   C     0.50049   0.84444   0.31751   0.00000  Uiso   1.00
C235   C     0.68052   0.84836   0.25192   0.00000  Uiso   1.00
C236   C     0.14509   0.73841   0.54021   0.00000  Uiso   1.00
C237   C     0.11881   0.76316   0.60386   0.00000  Uiso   1.00
C238   C     0.08331   0.69797   0.69110   0.00000  Uiso   1.00
C239   C     0.02184   0.61711   0.84172   0.00000  Uiso   1.00
C240   C     0.09972   0.75603   0.41046   0.00000  Uiso   1.00
C241   C     0.03527   0.79559   0.36502   0.00000  Uiso   1.00
C242   C     0.96156   0.74524   0.34303   0.00000  Uiso   1.00
C243   C     0.82964   0.69174   0.29218   0.00000  Uiso   1.00
C244   C     0.16920   0.63920   0.48277   0.00000  Uiso   1.00
C245   C     0.29172   0.70622   0.42365   0.00000  Uiso   1.00
C246   C     0.38701   0.68688   0.39372   0.00000  Uiso   1.00
C247   C     0.49161   0.75750   0.34024   0.00000  Uiso   1.00
C248   C     0.13622   0.65162   0.56291   0.00000  Uiso   1.00
C249   C     0.10075   0.58638   0.65008   0.00000  Uiso   1.00
C250   C     0.07443   0.61103   0.71383   0.00000  Uiso   1.00
C251   C     0.09085   0.66924   0.43314   0.00000  Uiso   1.00
C252   C     0.01721   0.61882   0.41123   0.00000  Uiso   1.00
C253   C     0.95267   0.65829   0.36576   0.00000  Uiso   1.00
H254   H     0.19243   0.86654   0.42333   0.00000  Uiso   1.00
H255   H     0.41190   0.93081   0.32997   0.00000  Uiso   1.00
H256   H     0.12567   0.83032   0.58628   0.00000  Uiso   1.00
H257   H     0.04216   0.86275   0.34747   0.00000  Uiso   1.00
H258   H     0.65132   0.96379   0.23648   0.00000  Uiso   1.00
H259   H     0.04776   0.75189   0.77693   0.00000  Uiso   1.00
H260   H     0.87164   0.82028   0.27336   0.00000  Uiso   1.00
H261   H     0.16229   0.57163   0.50044   0.00000  Uiso   1.00
H262   H     0.38012   0.61972   0.41130   0.00000  Uiso   1.00
H263   H     0.09389   0.51923   0.66761   0.00000  Uiso   1.00
H264   H     0.01037   0.55166   0.42880   0.00000  Uiso   1.00
H265   H     0.62553   0.71129   0.30250   0.00000  Uiso   1.00
H266   H     0.02195   0.49940   0.84295   0.00000  Uiso   1.00
H267   H     0.84584   0.56778   0.33937   0.00000  Uiso   1.00
O268   O     0.78227   0.87449   0.20948   0.00000  Uiso   1.00
O269   O     0.99039   0.59649   0.91853   0.00000  Uiso   1.00
O270   O     0.75934   0.68621   0.25785   0.00000  Uiso   1.00
N271   N     0.61535   0.89777   0.26424   0.00000  Uiso   1.00
N272   N     0.05107   0.69966   0.76952   0.00000  Uiso   1.00
N273   N     0.88640   0.76359   0.29875   0.00000  Uiso   1.00
N274   N     0.60147   0.76190   0.29976   0.00000  Uiso   1.00
N275   N     0.03719   0.56379   0.80504   0.00000  Uiso   1.00
N276   N     0.87251   0.62772   0.33427   0.00000  Uiso   1.00
