data_job_01191
_audit_creation_date              2018-12-19
_audit_creation_method            'Materials Studio'
_symmetry_space_group_name_H-M    'P1'
_symmetry_Int_Tables_number       1
_symmetry_cell_setting            triclinic
loop_
_symmetry_equiv_pos_as_xyz
  x,y,z
_cell_length_a                    27.9661
_cell_length_b                    12.4551
_cell_length_c                    24.5895
_cell_angle_alpha                 90.0000
_cell_angle_beta                  131.6480
_cell_angle_gamma                 90.0000
loop_
_atom_site_label
_atom_site_type_symbol
_atom_site_fract_x
_atom_site_fract_y
_atom_site_fract_z
_atom_site_U_iso_or_equiv
_atom_site_adp_type
_atom_site_occupancy
C1     C     0.17335   0.75747   0.08072   0.00000  Uiso   1.00
C2     C     0.12887   0.71850   0.09212   0.00000  Uiso   1.00
C3     C     0.14762   0.68616   0.15789   0.00000  Uiso   1.00
C4     C     0.09964   0.65325   0.15695   0.00000  Uiso   1.00
C5     C     0.04037   0.59277   0.18445   0.00000  Uiso   1.00
C6     C     0.16074   0.68478   0.02245   0.00000  Uiso   1.00
C7     C     0.20630   0.62409   0.02965   0.00000  Uiso   1.00
C8     C     0.18516   0.56281   0.97006   0.00000  Uiso   1.00
C9     C     0.17538   0.45003   0.88938   0.00000  Uiso   1.00
C10    C     0.14921   0.86850   0.04629   0.00000  Uiso   1.00
C11    C     0.18507   0.96229   0.07352   0.00000  Uiso   1.00
C12    C     0.15422   0.05568   0.03399   0.00000  Uiso   1.00
C13    C     0.12653   0.22816   0.99032   0.00000  Uiso   1.00
C14    C     0.05480   0.75657   0.96209   0.00000  Uiso   1.00
C15    C     0.06448   0.71801   0.02768   0.00000  Uiso   1.00
C16    C     0.01646   0.68515   0.02664   0.00000  Uiso   1.00
C17    C     0.03513   0.65276   0.09240   0.00000  Uiso   1.00
C18    C     0.09636   0.68429   0.95802   0.00000  Uiso   1.00
C19    C     0.07514   0.62309   0.89840   0.00000  Uiso   1.00
C20    C     0.12065   0.56232   0.90550   0.00000  Uiso   1.00
C21    C     0.08482   0.86801   0.98185   0.00000  Uiso   1.00
C22    C     0.05390   0.96128   0.94227   0.00000  Uiso   1.00
C23    C     0.08971   0.05519   0.96943   0.00000  Uiso   1.00
H24    H     0.22349   0.75785   0.13088   0.00000  Uiso   1.00
H25    H     0.19746   0.68654   0.20775   0.00000  Uiso   1.00
H26    H     0.25613   0.62450   0.07952   0.00000  Uiso   1.00
H27    H     0.23490   0.96264   0.12338   0.00000  Uiso   1.00
H28    H     0.14021   0.60722   0.26454   0.00000  Uiso   1.00
H29    H     0.26392   0.47643   0.99416   0.00000  Uiso   1.00
H30    H     0.21915   0.18946   0.08666   0.00000  Uiso   1.00
H31    H     0.00467   0.75618   0.91192   0.00000  Uiso   1.00
H32    H     0.96663   0.68478   0.97677   0.00000  Uiso   1.00
H33    H     0.02530   0.62273   0.84854   0.00000  Uiso   1.00
H34    H     0.00407   0.96087   0.89240   0.00000  Uiso   1.00
H35    H     0.95286   0.60578   0.07707   0.00000  Uiso   1.00
H36    H     0.07657   0.47499   0.80669   0.00000  Uiso   1.00
H37    H     0.03181   0.18802   0.89918   0.00000  Uiso   1.00
O38    O     0.02546   0.55952   0.21741   0.00000  Uiso   1.00
O39    O     0.18777   0.38795   0.86268   0.00000  Uiso   1.00
O40    O     0.12904   0.32343   0.98404   0.00000  Uiso   1.00
N41    N     0.10133   0.61670   0.21152   0.00000  Uiso   1.00
N42    N     0.21700   0.49441   0.95874   0.00000  Uiso   1.00
N43    N     0.17515   0.16103   0.04520   0.00000  Uiso   1.00
N44    N     0.00052   0.61593   0.11064   0.00000  Uiso   1.00
N45    N     0.11619   0.49363   0.85786   0.00000  Uiso   1.00
N46    N     0.07434   0.16025   0.94433   0.00000  Uiso   1.00
C47    C     0.67335   0.25747   0.08072   0.00000  Uiso   1.00
C48    C     0.62887   0.21850   0.09212   0.00000  Uiso   1.00
C49    C     0.64762   0.18616   0.15789   0.00000  Uiso   1.00
C50    C     0.59964   0.15325   0.15695   0.00000  Uiso   1.00
C51    C     0.54037   0.09277   0.18445   0.00000  Uiso   1.00
C52    C     0.66074   0.18478   0.02245   0.00000  Uiso   1.00
C53    C     0.70630   0.12409   0.02965   0.00000  Uiso   1.00
C54    C     0.68516   0.06281   0.97006   0.00000  Uiso   1.00
C55    C     0.67538   0.95003   0.88938   0.00000  Uiso   1.00
C56    C     0.64921   0.36850   0.04629   0.00000  Uiso   1.00
C57    C     0.68507   0.46229   0.07352   0.00000  Uiso   1.00
C58    C     0.65422   0.55568   0.03399   0.00000  Uiso   1.00
C59    C     0.62653   0.72816   0.99032   0.00000  Uiso   1.00
C60    C     0.55480   0.25657   0.96209   0.00000  Uiso   1.00
C61    C     0.56448   0.21801   0.02768   0.00000  Uiso   1.00
C62    C     0.51646   0.18515   0.02664   0.00000  Uiso   1.00
C63    C     0.53513   0.15276   0.09240   0.00000  Uiso   1.00
C64    C     0.59636   0.18429   0.95802   0.00000  Uiso   1.00
C65    C     0.57514   0.12309   0.89840   0.00000  Uiso   1.00
C66    C     0.62065   0.06232   0.90550   0.00000  Uiso   1.00
C67    C     0.58482   0.36801   0.98185   0.00000  Uiso   1.00
C68    C     0.55390   0.46128   0.94227   0.00000  Uiso   1.00
C69    C     0.58971   0.55519   0.96943   0.00000  Uiso   1.00
H70    H     0.72349   0.25785   0.13088   0.00000  Uiso   1.00
H71    H     0.69746   0.18654   0.20775   0.00000  Uiso   1.00
H72    H     0.75613   0.12450   0.07952   0.00000  Uiso   1.00
H73    H     0.73490   0.46264   0.12338   0.00000  Uiso   1.00
H74    H     0.64021   0.10722   0.26454   0.00000  Uiso   1.00
H75    H     0.76392   0.97643   0.99416   0.00000  Uiso   1.00
H76    H     0.71915   0.68946   0.08666   0.00000  Uiso   1.00
H77    H     0.50467   0.25618   0.91192   0.00000  Uiso   1.00
H78    H     0.46663   0.18478   0.97677   0.00000  Uiso   1.00
H79    H     0.52530   0.12273   0.84854   0.00000  Uiso   1.00
H80    H     0.50407   0.46087   0.89240   0.00000  Uiso   1.00
H81    H     0.45286   0.10578   0.07707   0.00000  Uiso   1.00
H82    H     0.57657   0.97499   0.80669   0.00000  Uiso   1.00
H83    H     0.53181   0.68802   0.89918   0.00000  Uiso   1.00
O84    O     0.52546   0.05952   0.21741   0.00000  Uiso   1.00
O85    O     0.68777   0.88795   0.86268   0.00000  Uiso   1.00
O86    O     0.62904   0.82343   0.98404   0.00000  Uiso   1.00
N87    N     0.60133   0.11670   0.21152   0.00000  Uiso   1.00
N88    N     0.71700   0.99441   0.95874   0.00000  Uiso   1.00
N89    N     0.67515   0.66103   0.04520   0.00000  Uiso   1.00
N90    N     0.50052   0.11593   0.11064   0.00000  Uiso   1.00
N91    N     0.61619   0.99363   0.85786   0.00000  Uiso   1.00
N92    N     0.57434   0.66025   0.94433   0.00000  Uiso   1.00
C93    C     0.82665   0.75747   0.41928   0.00000  Uiso   1.00
C94    C     0.87113   0.71850   0.40788   0.00000  Uiso   1.00
C95    C     0.85238   0.68616   0.34211   0.00000  Uiso   1.00
C96    C     0.90036   0.65325   0.34305   0.00000  Uiso   1.00
C97    C     0.95963   0.59277   0.31555   0.00000  Uiso   1.00
C98    C     0.83926   0.68478   0.47755   0.00000  Uiso   1.00
C99    C     0.79370   0.62409   0.47035   0.00000  Uiso   1.00
C100   C     0.81484   0.56281   0.52994   0.00000  Uiso   1.00
C101   C     0.82462   0.45003   0.61062   0.00000  Uiso   1.00
C102   C     0.85079   0.86850   0.45371   0.00000  Uiso   1.00
C103   C     0.81493   0.96229   0.42648   0.00000  Uiso   1.00
C104   C     0.84578   0.05568   0.46601   0.00000  Uiso   1.00
C105   C     0.87347   0.22816   0.50968   0.00000  Uiso   1.00
C106   C     0.94520   0.75657   0.53791   0.00000  Uiso   1.00
C107   C     0.93552   0.71801   0.47232   0.00000  Uiso   1.00
C108   C     0.98354   0.68515   0.47336   0.00000  Uiso   1.00
C109   C     0.96487   0.65276   0.40760   0.00000  Uiso   1.00
C110   C     0.90364   0.68429   0.54198   0.00000  Uiso   1.00
C111   C     0.92486   0.62309   0.60160   0.00000  Uiso   1.00
C112   C     0.87935   0.56232   0.59450   0.00000  Uiso   1.00
C113   C     0.91518   0.86801   0.51815   0.00000  Uiso   1.00
C114   C     0.94610   0.96128   0.55773   0.00000  Uiso   1.00
C115   C     0.91029   0.05519   0.53057   0.00000  Uiso   1.00
H116   H     0.77651   0.75785   0.36912   0.00000  Uiso   1.00
H117   H     0.80254   0.68654   0.29225   0.00000  Uiso   1.00
H118   H     0.74387   0.62450   0.42048   0.00000  Uiso   1.00
H119   H     0.76510   0.96264   0.37662   0.00000  Uiso   1.00
H120   H     0.85979   0.60722   0.23546   0.00000  Uiso   1.00
H121   H     0.73608   0.47643   0.50584   0.00000  Uiso   1.00
H122   H     0.78085   0.18946   0.41334   0.00000  Uiso   1.00
H123   H     0.99533   0.75618   0.58808   0.00000  Uiso   1.00
H124   H     0.03337   0.68478   0.52323   0.00000  Uiso   1.00
H125   H     0.97470   0.62273   0.65146   0.00000  Uiso   1.00
H126   H     0.99593   0.96087   0.60760   0.00000  Uiso   1.00
H127   H     0.04714   0.60578   0.42293   0.00000  Uiso   1.00
H128   H     0.92343   0.47499   0.69331   0.00000  Uiso   1.00
H129   H     0.96819   0.18802   0.60082   0.00000  Uiso   1.00
O130   O     0.97454   0.55952   0.28259   0.00000  Uiso   1.00
O131   O     0.81223   0.38795   0.63732   0.00000  Uiso   1.00
O132   O     0.87096   0.32343   0.51596   0.00000  Uiso   1.00
N133   N     0.89867   0.61670   0.28848   0.00000  Uiso   1.00
N134   N     0.78300   0.49441   0.54126   0.00000  Uiso   1.00
N135   N     0.82485   0.16103   0.45480   0.00000  Uiso   1.00
N136   N     0.99948   0.61593   0.38936   0.00000  Uiso   1.00
N137   N     0.88381   0.49363   0.64214   0.00000  Uiso   1.00
N138   N     0.92566   0.16025   0.55567   0.00000  Uiso   1.00
C139   C     0.32665   0.25747   0.41928   0.00000  Uiso   1.00
C140   C     0.37113   0.21850   0.40788   0.00000  Uiso   1.00
C141   C     0.35238   0.18616   0.34211   0.00000  Uiso   1.00
C142   C     0.40036   0.15325   0.34305   0.00000  Uiso   1.00
C143   C     0.45963   0.09277   0.31555   0.00000  Uiso   1.00
C144   C     0.33926   0.18478   0.47755   0.00000  Uiso   1.00
C145   C     0.29370   0.12409   0.47035   0.00000  Uiso   1.00
C146   C     0.31484   0.06281   0.52994   0.00000  Uiso   1.00
C147   C     0.32462   0.95003   0.61062   0.00000  Uiso   1.00
C148   C     0.35079   0.36850   0.45371   0.00000  Uiso   1.00
C149   C     0.31493   0.46229   0.42648   0.00000  Uiso   1.00
C150   C     0.34578   0.55568   0.46601   0.00000  Uiso   1.00
C151   C     0.37347   0.72816   0.50968   0.00000  Uiso   1.00
C152   C     0.44520   0.25657   0.53791   0.00000  Uiso   1.00
C153   C     0.43552   0.21801   0.47232   0.00000  Uiso   1.00
C154   C     0.48354   0.18515   0.47336   0.00000  Uiso   1.00
C155   C     0.46487   0.15276   0.40760   0.00000  Uiso   1.00
C156   C     0.40364   0.18429   0.54198   0.00000  Uiso   1.00
C157   C     0.42486   0.12309   0.60160   0.00000  Uiso   1.00
C158   C     0.37935   0.06232   0.59450   0.00000  Uiso   1.00
C159   C     0.41518   0.36801   0.51815   0.00000  Uiso   1.00
C160   C     0.44610   0.46128   0.55773   0.00000  Uiso   1.00
C161   C     0.41029   0.55519   0.53057   0.00000  Uiso   1.00
H162   H     0.27651   0.25785   0.36912   0.00000  Uiso   1.00
H163   H     0.30254   0.18654   0.29225   0.00000  Uiso   1.00
H164   H     0.24387   0.12450   0.42048   0.00000  Uiso   1.00
H165   H     0.26510   0.46264   0.37662   0.00000  Uiso   1.00
H166   H     0.35979   0.10722   0.23546   0.00000  Uiso   1.00
H167   H     0.23608   0.97643   0.50584   0.00000  Uiso   1.00
H168   H     0.28085   0.68946   0.41334   0.00000  Uiso   1.00
H169   H     0.49533   0.25618   0.58808   0.00000  Uiso   1.00
H170   H     0.53337   0.18478   0.52323   0.00000  Uiso   1.00
H171   H     0.47470   0.12273   0.65146   0.00000  Uiso   1.00
H172   H     0.49593   0.46087   0.60760   0.00000  Uiso   1.00
H173   H     0.54714   0.10578   0.42293   0.00000  Uiso   1.00
H174   H     0.42343   0.97499   0.69331   0.00000  Uiso   1.00
H175   H     0.46819   0.68802   0.60082   0.00000  Uiso   1.00
O176   O     0.47454   0.05952   0.28259   0.00000  Uiso   1.00
O177   O     0.31223   0.88795   0.63732   0.00000  Uiso   1.00
O178   O     0.37096   0.82343   0.51596   0.00000  Uiso   1.00
N179   N     0.39867   0.11670   0.28848   0.00000  Uiso   1.00
N180   N     0.28300   0.99441   0.54126   0.00000  Uiso   1.00
N181   N     0.32485   0.66103   0.45480   0.00000  Uiso   1.00
N182   N     0.49948   0.11593   0.38936   0.00000  Uiso   1.00
N183   N     0.38381   0.99363   0.64214   0.00000  Uiso   1.00
N184   N     0.42566   0.66025   0.55567   0.00000  Uiso   1.00
C185   C     0.82665   0.24253   0.91928   0.00000  Uiso   1.00
C186   C     0.87113   0.28150   0.90788   0.00000  Uiso   1.00
C187   C     0.85238   0.31384   0.84211   0.00000  Uiso   1.00
C188   C     0.90036   0.34675   0.84305   0.00000  Uiso   1.00
C189   C     0.95963   0.40723   0.81555   0.00000  Uiso   1.00
C190   C     0.83926   0.31522   0.97755   0.00000  Uiso   1.00
C191   C     0.79370   0.37591   0.97035   0.00000  Uiso   1.00
C192   C     0.81484   0.43719   0.02994   0.00000  Uiso   1.00
C193   C     0.82462   0.54997   0.11062   0.00000  Uiso   1.00
C194   C     0.85079   0.13150   0.95371   0.00000  Uiso   1.00
C195   C     0.81493   0.03771   0.92648   0.00000  Uiso   1.00
C196   C     0.84578   0.94432   0.96601   0.00000  Uiso   1.00
C197   C     0.87347   0.77184   0.00968   0.00000  Uiso   1.00
C198   C     0.94520   0.24343   0.03791   0.00000  Uiso   1.00
C199   C     0.93552   0.28199   0.97232   0.00000  Uiso   1.00
C200   C     0.98354   0.31485   0.97336   0.00000  Uiso   1.00
C201   C     0.96487   0.34724   0.90760   0.00000  Uiso   1.00
C202   C     0.90364   0.31571   0.04198   0.00000  Uiso   1.00
C203   C     0.92486   0.37691   0.10160   0.00000  Uiso   1.00
C204   C     0.87935   0.43768   0.09450   0.00000  Uiso   1.00
C205   C     0.91518   0.13199   0.01815   0.00000  Uiso   1.00
C206   C     0.94610   0.03872   0.05773   0.00000  Uiso   1.00
C207   C     0.91029   0.94481   0.03057   0.00000  Uiso   1.00
H208   H     0.77651   0.24215   0.86912   0.00000  Uiso   1.00
H209   H     0.80254   0.31346   0.79225   0.00000  Uiso   1.00
H210   H     0.74387   0.37550   0.92048   0.00000  Uiso   1.00
H211   H     0.76510   0.03736   0.87662   0.00000  Uiso   1.00
H212   H     0.85979   0.39278   0.73546   0.00000  Uiso   1.00
H213   H     0.73608   0.52357   0.00584   0.00000  Uiso   1.00
H214   H     0.78085   0.81054   0.91334   0.00000  Uiso   1.00
H215   H     0.99533   0.24382   0.08808   0.00000  Uiso   1.00
H216   H     0.03337   0.31522   0.02323   0.00000  Uiso   1.00
H217   H     0.97470   0.37727   0.15146   0.00000  Uiso   1.00
H218   H     0.99593   0.03913   0.10760   0.00000  Uiso   1.00
H219   H     0.04714   0.39422   0.92293   0.00000  Uiso   1.00
H220   H     0.92343   0.52501   0.19331   0.00000  Uiso   1.00
H221   H     0.96819   0.81198   0.10082   0.00000  Uiso   1.00
O222   O     0.97454   0.44048   0.78259   0.00000  Uiso   1.00
O223   O     0.81223   0.61205   0.13732   0.00000  Uiso   1.00
O224   O     0.87096   0.67657   0.01596   0.00000  Uiso   1.00
N225   N     0.89867   0.38330   0.78848   0.00000  Uiso   1.00
N226   N     0.78300   0.50559   0.04126   0.00000  Uiso   1.00
N227   N     0.82485   0.83897   0.95480   0.00000  Uiso   1.00
N228   N     0.99948   0.38407   0.88936   0.00000  Uiso   1.00
N229   N     0.88381   0.50637   0.14214   0.00000  Uiso   1.00
N230   N     0.92566   0.83975   0.05567   0.00000  Uiso   1.00
C231   C     0.32665   0.74253   0.91928   0.00000  Uiso   1.00
C232   C     0.37113   0.78150   0.90788   0.00000  Uiso   1.00
C233   C     0.35238   0.81384   0.84211   0.00000  Uiso   1.00
C234   C     0.40036   0.84675   0.84305   0.00000  Uiso   1.00
C235   C     0.45963   0.90723   0.81555   0.00000  Uiso   1.00
C236   C     0.33926   0.81522   0.97755   0.00000  Uiso   1.00
C237   C     0.29370   0.87591   0.97035   0.00000  Uiso   1.00
C238   C     0.31484   0.93719   0.02994   0.00000  Uiso   1.00
C239   C     0.32462   0.04997   0.11062   0.00000  Uiso   1.00
C240   C     0.35079   0.63150   0.95371   0.00000  Uiso   1.00
C241   C     0.31493   0.53771   0.92648   0.00000  Uiso   1.00
C242   C     0.34578   0.44432   0.96601   0.00000  Uiso   1.00
C243   C     0.37347   0.27184   0.00968   0.00000  Uiso   1.00
C244   C     0.44520   0.74343   0.03791   0.00000  Uiso   1.00
C245   C     0.43552   0.78199   0.97232   0.00000  Uiso   1.00
C246   C     0.48354   0.81485   0.97336   0.00000  Uiso   1.00
C247   C     0.46487   0.84724   0.90760   0.00000  Uiso   1.00
C248   C     0.40364   0.81571   0.04198   0.00000  Uiso   1.00
C249   C     0.42486   0.87691   0.10160   0.00000  Uiso   1.00
C250   C     0.37935   0.93768   0.09450   0.00000  Uiso   1.00
C251   C     0.41518   0.63199   0.01815   0.00000  Uiso   1.00
C252   C     0.44610   0.53872   0.05773   0.00000  Uiso   1.00
C253   C     0.41029   0.44481   0.03057   0.00000  Uiso   1.00
H254   H     0.27651   0.74215   0.86912   0.00000  Uiso   1.00
H255   H     0.30254   0.81346   0.79225   0.00000  Uiso   1.00
H256   H     0.24387   0.87550   0.92048   0.00000  Uiso   1.00
H257   H     0.26510   0.53736   0.87662   0.00000  Uiso   1.00
H258   H     0.35979   0.89278   0.73546   0.00000  Uiso   1.00
H259   H     0.23608   0.02357   0.00584   0.00000  Uiso   1.00
H260   H     0.28085   0.31054   0.91334   0.00000  Uiso   1.00
H261   H     0.49533   0.74382   0.08808   0.00000  Uiso   1.00
H262   H     0.53337   0.81522   0.02323   0.00000  Uiso   1.00
H263   H     0.47470   0.87727   0.15146   0.00000  Uiso   1.00
H264   H     0.49593   0.53913   0.10760   0.00000  Uiso   1.00
H265   H     0.54714   0.89422   0.92293   0.00000  Uiso   1.00
H266   H     0.42343   0.02501   0.19331   0.00000  Uiso   1.00
H267   H     0.46819   0.31198   0.10082   0.00000  Uiso   1.00
O268   O     0.47454   0.94048   0.78259   0.00000  Uiso   1.00
O269   O     0.31223   0.11205   0.13732   0.00000  Uiso   1.00
O270   O     0.37096   0.17657   0.01596   0.00000  Uiso   1.00
N271   N     0.39867   0.88330   0.78848   0.00000  Uiso   1.00
N272   N     0.28300   0.00559   0.04126   0.00000  Uiso   1.00
N273   N     0.32485   0.33897   0.95480   0.00000  Uiso   1.00
N274   N     0.49948   0.88407   0.88936   0.00000  Uiso   1.00
N275   N     0.38381   0.00637   0.14214   0.00000  Uiso   1.00
N276   N     0.42566   0.33975   0.05567   0.00000  Uiso   1.00
C277   C     0.17335   0.24253   0.58072   0.00000  Uiso   1.00
C278   C     0.12887   0.28150   0.59212   0.00000  Uiso   1.00
C279   C     0.14762   0.31384   0.65789   0.00000  Uiso   1.00
C280   C     0.09964   0.34675   0.65695   0.00000  Uiso   1.00
C281   C     0.04037   0.40723   0.68445   0.00000  Uiso   1.00
C282   C     0.16074   0.31522   0.52245   0.00000  Uiso   1.00
C283   C     0.20630   0.37591   0.52965   0.00000  Uiso   1.00
C284   C     0.18516   0.43719   0.47006   0.00000  Uiso   1.00
C285   C     0.17538   0.54997   0.38938   0.00000  Uiso   1.00
C286   C     0.14921   0.13150   0.54629   0.00000  Uiso   1.00
C287   C     0.18507   0.03771   0.57352   0.00000  Uiso   1.00
C288   C     0.15422   0.94432   0.53399   0.00000  Uiso   1.00
C289   C     0.12653   0.77184   0.49032   0.00000  Uiso   1.00
C290   C     0.05480   0.24343   0.46209   0.00000  Uiso   1.00
C291   C     0.06448   0.28199   0.52768   0.00000  Uiso   1.00
C292   C     0.01646   0.31485   0.52664   0.00000  Uiso   1.00
C293   C     0.03513   0.34724   0.59240   0.00000  Uiso   1.00
C294   C     0.09636   0.31571   0.45802   0.00000  Uiso   1.00
C295   C     0.07514   0.37691   0.39840   0.00000  Uiso   1.00
C296   C     0.12065   0.43768   0.40550   0.00000  Uiso   1.00
C297   C     0.08482   0.13199   0.48185   0.00000  Uiso   1.00
C298   C     0.05390   0.03872   0.44227   0.00000  Uiso   1.00
C299   C     0.08971   0.94481   0.46943   0.00000  Uiso   1.00
H300   H     0.22349   0.24215   0.63088   0.00000  Uiso   1.00
H301   H     0.19746   0.31346   0.70775   0.00000  Uiso   1.00
H302   H     0.25613   0.37550   0.57952   0.00000  Uiso   1.00
H303   H     0.23490   0.03736   0.62338   0.00000  Uiso   1.00
H304   H     0.14021   0.39278   0.76454   0.00000  Uiso   1.00
H305   H     0.26392   0.52357   0.49416   0.00000  Uiso   1.00
H306   H     0.21915   0.81054   0.58666   0.00000  Uiso   1.00
H307   H     0.00467   0.24382   0.41192   0.00000  Uiso   1.00
H308   H     0.96663   0.31522   0.47677   0.00000  Uiso   1.00
H309   H     0.02530   0.37727   0.34854   0.00000  Uiso   1.00
H310   H     0.00407   0.03913   0.39240   0.00000  Uiso   1.00
H311   H     0.95286   0.39422   0.57707   0.00000  Uiso   1.00
H312   H     0.07657   0.52501   0.30669   0.00000  Uiso   1.00
H313   H     0.03181   0.81198   0.39918   0.00000  Uiso   1.00
O314   O     0.02546   0.44048   0.71741   0.00000  Uiso   1.00
O315   O     0.18777   0.61205   0.36268   0.00000  Uiso   1.00
O316   O     0.12904   0.67657   0.48404   0.00000  Uiso   1.00
N317   N     0.10133   0.38330   0.71152   0.00000  Uiso   1.00
N318   N     0.21700   0.50559   0.45874   0.00000  Uiso   1.00
N319   N     0.17515   0.83897   0.54520   0.00000  Uiso   1.00
N320   N     0.00052   0.38407   0.61064   0.00000  Uiso   1.00
N321   N     0.11619   0.50637   0.35786   0.00000  Uiso   1.00
N322   N     0.07434   0.83975   0.44433   0.00000  Uiso   1.00
C323   C     0.67335   0.74253   0.58072   0.00000  Uiso   1.00
C324   C     0.62887   0.78150   0.59212   0.00000  Uiso   1.00
C325   C     0.64762   0.81384   0.65789   0.00000  Uiso   1.00
C326   C     0.59964   0.84675   0.65695   0.00000  Uiso   1.00
C327   C     0.54037   0.90723   0.68445   0.00000  Uiso   1.00
C328   C     0.66074   0.81522   0.52245   0.00000  Uiso   1.00
C329   C     0.70630   0.87591   0.52965   0.00000  Uiso   1.00
C330   C     0.68516   0.93719   0.47006   0.00000  Uiso   1.00
C331   C     0.67538   0.04997   0.38938   0.00000  Uiso   1.00
C332   C     0.64921   0.63150   0.54629   0.00000  Uiso   1.00
C333   C     0.68507   0.53771   0.57352   0.00000  Uiso   1.00
C334   C     0.65422   0.44432   0.53399   0.00000  Uiso   1.00
C335   C     0.62653   0.27184   0.49032   0.00000  Uiso   1.00
C336   C     0.55480   0.74343   0.46209   0.00000  Uiso   1.00
C337   C     0.56448   0.78199   0.52768   0.00000  Uiso   1.00
C338   C     0.51646   0.81485   0.52664   0.00000  Uiso   1.00
C339   C     0.53513   0.84724   0.59240   0.00000  Uiso   1.00
C340   C     0.59636   0.81571   0.45802   0.00000  Uiso   1.00
C341   C     0.57514   0.87691   0.39840   0.00000  Uiso   1.00
C342   C     0.62065   0.93768   0.40550   0.00000  Uiso   1.00
C343   C     0.58482   0.63199   0.48185   0.00000  Uiso   1.00
C344   C     0.55390   0.53872   0.44227   0.00000  Uiso   1.00
C345   C     0.58971   0.44481   0.46943   0.00000  Uiso   1.00
H346   H     0.72349   0.74215   0.63088   0.00000  Uiso   1.00
H347   H     0.69746   0.81346   0.70775   0.00000  Uiso   1.00
H348   H     0.75613   0.87550   0.57952   0.00000  Uiso   1.00
H349   H     0.73490   0.53736   0.62338   0.00000  Uiso   1.00
H350   H     0.64021   0.89278   0.76454   0.00000  Uiso   1.00
H351   H     0.76392   0.02357   0.49416   0.00000  Uiso   1.00
H352   H     0.71915   0.31054   0.58666   0.00000  Uiso   1.00
H353   H     0.50467   0.74382   0.41192   0.00000  Uiso   1.00
H354   H     0.46663   0.81522   0.47677   0.00000  Uiso   1.00
H355   H     0.52530   0.87727   0.34854   0.00000  Uiso   1.00
H356   H     0.50407   0.53913   0.39240   0.00000  Uiso   1.00
H357   H     0.45286   0.89422   0.57707   0.00000  Uiso   1.00
H358   H     0.57657   0.02501   0.30669   0.00000  Uiso   1.00
H359   H     0.53181   0.31198   0.39918   0.00000  Uiso   1.00
O360   O     0.52546   0.94048   0.71741   0.00000  Uiso   1.00
O361   O     0.68777   0.11205   0.36268   0.00000  Uiso   1.00
O362   O     0.62904   0.17657   0.48404   0.00000  Uiso   1.00
N363   N     0.60133   0.88330   0.71152   0.00000  Uiso   1.00
N364   N     0.71700   0.00559   0.45874   0.00000  Uiso   1.00
N365   N     0.67515   0.33897   0.54520   0.00000  Uiso   1.00
N366   N     0.50052   0.88407   0.61064   0.00000  Uiso   1.00
N367   N     0.61619   0.00637   0.35786   0.00000  Uiso   1.00
N368   N     0.57434   0.33975   0.44433   0.00000  Uiso   1.00
