data_job_01002
_audit_creation_date              2018-12-19
_audit_creation_method            'Materials Studio'
_symmetry_space_group_name_H-M    'P1'
_symmetry_Int_Tables_number       1
_symmetry_cell_setting            triclinic
loop_
_symmetry_equiv_pos_as_xyz
  x,y,z
_cell_length_a                    12.8487
_cell_length_b                    30.7653
_cell_length_c                    12.2391
_cell_angle_alpha                 90.0000
_cell_angle_beta                  90.3651
_cell_angle_gamma                 90.0000
loop_
_atom_site_label
_atom_site_type_symbol
_atom_site_fract_x
_atom_site_fract_y
_atom_site_fract_z
_atom_site_U_iso_or_equiv
_atom_site_adp_type
_atom_site_occupancy
C1     C     0.75114   0.84121   0.40951   0.00000  Uiso   1.00
C2     C     0.65688   0.82746   0.34152   0.00000  Uiso   1.00
C3     C     0.64489   0.78789   0.28848   0.00000  Uiso   1.00
C4     C     0.55292   0.78156   0.23048   0.00000  Uiso   1.00
C5     C     0.41827   0.75532   0.12566   0.00000  Uiso   1.00
C6     C     0.70934   0.85317   0.52190   0.00000  Uiso   1.00
C7     C     0.74147   0.83523   0.62053   0.00000  Uiso   1.00
C8     C     0.69366   0.85055   0.71438   0.00000  Uiso   1.00
C9     C     0.64051   0.86426   0.88962   0.00000  Uiso   1.00
C10    C     0.78987   0.88351   0.35917   0.00000  Uiso   1.00
C11    C     0.88972   0.89108   0.32100   0.00000  Uiso   1.00
C12    C     0.90973   0.93195   0.27785   0.00000  Uiso   1.00
C13    C     0.98163   0.99276   0.20042   0.00000  Uiso   1.00
C14    C     0.60913   0.90034   0.40080   0.00000  Uiso   1.00
C15    C     0.57975   0.85958   0.33679   0.00000  Uiso   1.00
C16    C     0.48777   0.85331   0.27884   0.00000  Uiso   1.00
C17    C     0.47565   0.81374   0.22573   0.00000  Uiso   1.00
C18    C     0.63221   0.88529   0.51717   0.00000  Uiso   1.00
C19    C     0.58435   0.90065   0.61089   0.00000  Uiso   1.00
C20    C     0.61639   0.88273   0.70964   0.00000  Uiso   1.00
C21    C     0.71274   0.91563   0.35443   0.00000  Uiso   1.00
C22    C     0.73260   0.95650   0.31135   0.00000  Uiso   1.00
C23    C     0.83246   0.96413   0.27311   0.00000  Uiso   1.00
H24    H     0.81119   0.81620   0.41321   0.00000  Uiso   1.00
H25    H     0.70460   0.76304   0.29217   0.00000  Uiso   1.00
H26    H     0.80116   0.81038   0.62417   0.00000  Uiso   1.00
H27    H     0.94939   0.86622   0.32467   0.00000  Uiso   1.00
H28    H     0.55238   0.71825   0.15593   0.00000  Uiso   1.00
H29    H     0.75603   0.81808   0.85597   0.00000  Uiso   1.00
H30    H     0.06860   0.93583   0.22442   0.00000  Uiso   1.00
H31    H     0.54908   0.92535   0.39712   0.00000  Uiso   1.00
H32    H     0.42810   0.87817   0.27520   0.00000  Uiso   1.00
H33    H     0.52467   0.92551   0.60720   0.00000  Uiso   1.00
H34    H     0.67290   0.98135   0.30770   0.00000  Uiso   1.00
H35    H     0.32797   0.81170   0.14216   0.00000  Uiso   1.00
H36    H     0.53162   0.91152   0.84220   0.00000  Uiso   1.00
H37    H     0.84419   0.02928   0.21065   0.00000  Uiso   1.00
O38    O     0.36531   0.73196   0.06916   0.00000  Uiso   1.00
O39    O     0.63250   0.86294   0.98758   0.00000  Uiso   1.00
O40    O     0.04258   0.01743   0.15900   0.00000  Uiso   1.00
N41    N     0.51618   0.74672   0.16940   0.00000  Uiso   1.00
N42    N     0.70657   0.84005   0.82390   0.00000  Uiso   1.00
N43    N     0.99880   0.95014   0.23348   0.00000  Uiso   1.00
N44    N     0.39542   0.79700   0.16199   0.00000  Uiso   1.00
N45    N     0.58581   0.89033   0.81648   0.00000  Uiso   1.00
N46    N     0.87805   0.00042   0.22607   0.00000  Uiso   1.00
C47    C     0.24327   0.65967   0.44041   0.00000  Uiso   1.00
C48    C     0.14978   0.67405   0.50750   0.00000  Uiso   1.00
C49    C     0.14193   0.71263   0.56559   0.00000  Uiso   1.00
C50    C     0.04995   0.71977   0.62174   0.00000  Uiso   1.00
C51    C     0.91711   0.74673   0.72617   0.00000  Uiso   1.00
C52    C     0.20189   0.65110   0.32536   0.00000  Uiso   1.00
C53    C     0.23788   0.67039   0.23031   0.00000  Uiso   1.00
C54    C     0.18977   0.65820   0.13313   0.00000  Uiso   1.00
C55    C     0.13789   0.64950   0.95477   0.00000  Uiso   1.00
C56    C     0.27575   0.61553   0.48591   0.00000  Uiso   1.00
C57    C     0.37385   0.60491   0.52582   0.00000  Uiso   1.00
C58    C     0.38793   0.56278   0.56379   0.00000  Uiso   1.00
C59    C     0.45073   0.49886   0.63471   0.00000  Uiso   1.00
C60    C     0.09387   0.60373   0.43684   0.00000  Uiso   1.00
C61    C     0.06863   0.64366   0.50555   0.00000  Uiso   1.00
C62    C     0.97664   0.65074   0.56164   0.00000  Uiso   1.00
C63    C     0.96866   0.68933   0.61980   0.00000  Uiso   1.00
C64    C     0.12075   0.62071   0.32341   0.00000  Uiso   1.00
C65    C     0.07258   0.60849   0.22636   0.00000  Uiso   1.00
C66    C     0.10848   0.62776   0.13118   0.00000  Uiso   1.00
C67    C     0.19461   0.58515   0.48397   0.00000  Uiso   1.00
C68    C     0.20855   0.54302   0.52188   0.00000  Uiso   1.00
C69    C     0.30664   0.53234   0.56185   0.00000  Uiso   1.00
H70    H     0.30645   0.68333   0.44191   0.00000  Uiso   1.00
H71    H     0.20475   0.73614   0.56706   0.00000  Uiso   1.00
H72    H     0.30068   0.69390   0.23183   0.00000  Uiso   1.00
H73    H     0.43662   0.62843   0.52731   0.00000  Uiso   1.00
H74    H     0.05619   0.78131   0.70492   0.00000  Uiso   1.00
H75    H     0.25850   0.69222   0.99807   0.00000  Uiso   1.00
H76    H     0.54516   0.55418   0.62114   0.00000  Uiso   1.00
H77    H     0.03069   0.58007   0.43532   0.00000  Uiso   1.00
H78    H     0.91386   0.62722   0.56012   0.00000  Uiso   1.00
H79    H     0.00979   0.58498   0.22489   0.00000  Uiso   1.00
H80    H     0.14574   0.51952   0.52036   0.00000  Uiso   1.00
H81    H     0.82009   0.69290   0.69929   0.00000  Uiso   1.00
H82    H     0.02241   0.60381   0.99243   0.00000  Uiso   1.00
H83    H     0.30907   0.46577   0.61550   0.00000  Uiso   1.00
O84    O     0.86625   0.76999   0.78429   0.00000  Uiso   1.00
O85    O     0.13168   0.65310   0.85693   0.00000  Uiso   1.00
O86    O     0.50777   0.47200   0.67438   0.00000  Uiso   1.00
N87    N     0.01667   0.75403   0.68649   0.00000  Uiso   1.00
N88    N     0.20580   0.67074   0.02563   0.00000  Uiso   1.00
N89    N     0.47382   0.54168   0.60811   0.00000  Uiso   1.00
N90    N     0.88963   0.70646   0.68346   0.00000  Uiso   1.00
N91    N     0.07876   0.62317   0.02259   0.00000  Uiso   1.00
N92    N     0.34678   0.49411   0.60508   0.00000  Uiso   1.00
C93    C     0.24886   0.34121   0.09049   0.00000  Uiso   1.00
C94    C     0.34312   0.32746   0.15848   0.00000  Uiso   1.00
C95    C     0.35511   0.28789   0.21152   0.00000  Uiso   1.00
C96    C     0.44708   0.28156   0.26952   0.00000  Uiso   1.00
C97    C     0.58173   0.25532   0.37434   0.00000  Uiso   1.00
C98    C     0.29066   0.35317   0.97810   0.00000  Uiso   1.00
C99    C     0.25853   0.33523   0.87947   0.00000  Uiso   1.00
C100   C     0.30634   0.35055   0.78562   0.00000  Uiso   1.00
C101   C     0.35949   0.36426   0.61038   0.00000  Uiso   1.00
C102   C     0.21013   0.38351   0.14083   0.00000  Uiso   1.00
C103   C     0.11028   0.39108   0.17900   0.00000  Uiso   1.00
C104   C     0.09027   0.43195   0.22215   0.00000  Uiso   1.00
C105   C     0.01837   0.49276   0.29958   0.00000  Uiso   1.00
C106   C     0.39087   0.40034   0.09920   0.00000  Uiso   1.00
C107   C     0.42025   0.35958   0.16321   0.00000  Uiso   1.00
C108   C     0.51223   0.35331   0.22116   0.00000  Uiso   1.00
C109   C     0.52435   0.31374   0.27427   0.00000  Uiso   1.00
C110   C     0.36779   0.38529   0.98283   0.00000  Uiso   1.00
C111   C     0.41565   0.40065   0.88911   0.00000  Uiso   1.00
C112   C     0.38361   0.38273   0.79036   0.00000  Uiso   1.00
C113   C     0.28726   0.41563   0.14557   0.00000  Uiso   1.00
C114   C     0.26740   0.45650   0.18865   0.00000  Uiso   1.00
C115   C     0.16754   0.46413   0.22689   0.00000  Uiso   1.00
H116   H     0.18881   0.31620   0.08679   0.00000  Uiso   1.00
H117   H     0.29540   0.26304   0.20783   0.00000  Uiso   1.00
H118   H     0.19884   0.31038   0.87583   0.00000  Uiso   1.00
H119   H     0.05061   0.36622   0.17533   0.00000  Uiso   1.00
H120   H     0.44762   0.21825   0.34407   0.00000  Uiso   1.00
H121   H     0.24397   0.31808   0.64403   0.00000  Uiso   1.00
H122   H     0.93140   0.43583   0.27558   0.00000  Uiso   1.00
H123   H     0.45092   0.42535   0.10288   0.00000  Uiso   1.00
H124   H     0.57190   0.37817   0.22480   0.00000  Uiso   1.00
H125   H     0.47533   0.42551   0.89280   0.00000  Uiso   1.00
H126   H     0.32710   0.48135   0.19230   0.00000  Uiso   1.00
H127   H     0.67203   0.31170   0.35784   0.00000  Uiso   1.00
H128   H     0.46838   0.41152   0.65780   0.00000  Uiso   1.00
H129   H     0.15581   0.52928   0.28935   0.00000  Uiso   1.00
O130   O     0.63469   0.23196   0.43084   0.00000  Uiso   1.00
O131   O     0.36750   0.36294   0.51242   0.00000  Uiso   1.00
O132   O     0.95742   0.51743   0.34100   0.00000  Uiso   1.00
N133   N     0.48382   0.24672   0.33060   0.00000  Uiso   1.00
N134   N     0.29343   0.34005   0.67610   0.00000  Uiso   1.00
N135   N     0.00120   0.45014   0.26652   0.00000  Uiso   1.00
N136   N     0.60458   0.29700   0.33801   0.00000  Uiso   1.00
N137   N     0.41419   0.39033   0.68352   0.00000  Uiso   1.00
N138   N     0.12195   0.50042   0.27393   0.00000  Uiso   1.00
C139   C     0.75673   0.15967   0.05959   0.00000  Uiso   1.00
C140   C     0.85022   0.17405   0.99250   0.00000  Uiso   1.00
C141   C     0.85807   0.21263   0.93441   0.00000  Uiso   1.00
C142   C     0.95005   0.21977   0.87826   0.00000  Uiso   1.00
C143   C     0.08289   0.24673   0.77383   0.00000  Uiso   1.00
C144   C     0.79811   0.15110   0.17464   0.00000  Uiso   1.00
C145   C     0.76212   0.17039   0.26969   0.00000  Uiso   1.00
C146   C     0.81023   0.15820   0.36687   0.00000  Uiso   1.00
C147   C     0.86211   0.14950   0.54523   0.00000  Uiso   1.00
C148   C     0.72425   0.11553   0.01409   0.00000  Uiso   1.00
C149   C     0.62615   0.10491   0.97418   0.00000  Uiso   1.00
C150   C     0.61207   0.06278   0.93621   0.00000  Uiso   1.00
C151   C     0.54927   0.99886   0.86529   0.00000  Uiso   1.00
C152   C     0.90613   0.10373   0.06316   0.00000  Uiso   1.00
C153   C     0.93137   0.14366   0.99445   0.00000  Uiso   1.00
C154   C     0.02336   0.15074   0.93836   0.00000  Uiso   1.00
C155   C     0.03134   0.18933   0.88020   0.00000  Uiso   1.00
C156   C     0.87925   0.12071   0.17659   0.00000  Uiso   1.00
C157   C     0.92742   0.10849   0.27364   0.00000  Uiso   1.00
C158   C     0.89152   0.12776   0.36882   0.00000  Uiso   1.00
C159   C     0.80539   0.08515   0.01603   0.00000  Uiso   1.00
C160   C     0.79145   0.04302   0.97812   0.00000  Uiso   1.00
C161   C     0.69336   0.03234   0.93815   0.00000  Uiso   1.00
H162   H     0.69355   0.18333   0.05809   0.00000  Uiso   1.00
H163   H     0.79525   0.23614   0.93294   0.00000  Uiso   1.00
H164   H     0.69932   0.19390   0.26817   0.00000  Uiso   1.00
H165   H     0.56338   0.12843   0.97269   0.00000  Uiso   1.00
H166   H     0.94381   0.28131   0.79508   0.00000  Uiso   1.00
H167   H     0.74150   0.19222   0.50193   0.00000  Uiso   1.00
H168   H     0.45484   0.05418   0.87886   0.00000  Uiso   1.00
H169   H     0.96931   0.08007   0.06468   0.00000  Uiso   1.00
H170   H     0.08614   0.12722   0.93988   0.00000  Uiso   1.00
H171   H     0.99021   0.08498   0.27511   0.00000  Uiso   1.00
H172   H     0.85426   0.01952   0.97964   0.00000  Uiso   1.00
H173   H     0.17991   0.19290   0.80071   0.00000  Uiso   1.00
H174   H     0.97759   0.10381   0.50757   0.00000  Uiso   1.00
H175   H     0.69093   0.96577   0.88450   0.00000  Uiso   1.00
O176   O     0.13375   0.26999   0.71571   0.00000  Uiso   1.00
O177   O     0.86832   0.15310   0.64307   0.00000  Uiso   1.00
O178   O     0.49223   0.97200   0.82562   0.00000  Uiso   1.00
N179   N     0.98333   0.25403   0.81351   0.00000  Uiso   1.00
N180   N     0.79420   0.17074   0.47437   0.00000  Uiso   1.00
N181   N     0.52618   0.04168   0.89189   0.00000  Uiso   1.00
N182   N     0.11037   0.20646   0.81654   0.00000  Uiso   1.00
N183   N     0.92124   0.12317   0.47741   0.00000  Uiso   1.00
N184   N     0.65322   0.99411   0.89492   0.00000  Uiso   1.00
C185   C     0.24886   0.15879   0.59049   0.00000  Uiso   1.00
C186   C     0.34312   0.17254   0.65848   0.00000  Uiso   1.00
C187   C     0.35511   0.21211   0.71152   0.00000  Uiso   1.00
C188   C     0.44708   0.21844   0.76952   0.00000  Uiso   1.00
C189   C     0.58173   0.24468   0.87434   0.00000  Uiso   1.00
C190   C     0.29066   0.14683   0.47810   0.00000  Uiso   1.00
C191   C     0.25853   0.16477   0.37947   0.00000  Uiso   1.00
C192   C     0.30634   0.14945   0.28562   0.00000  Uiso   1.00
C193   C     0.35949   0.13574   0.11038   0.00000  Uiso   1.00
C194   C     0.21013   0.11649   0.64083   0.00000  Uiso   1.00
C195   C     0.11028   0.10892   0.67900   0.00000  Uiso   1.00
C196   C     0.09027   0.06805   0.72215   0.00000  Uiso   1.00
C197   C     0.01837   0.00724   0.79958   0.00000  Uiso   1.00
C198   C     0.39087   0.09966   0.59920   0.00000  Uiso   1.00
C199   C     0.42025   0.14042   0.66321   0.00000  Uiso   1.00
C200   C     0.51223   0.14669   0.72116   0.00000  Uiso   1.00
C201   C     0.52435   0.18626   0.77427   0.00000  Uiso   1.00
C202   C     0.36779   0.11471   0.48283   0.00000  Uiso   1.00
C203   C     0.41565   0.09935   0.38911   0.00000  Uiso   1.00
C204   C     0.38361   0.11727   0.29036   0.00000  Uiso   1.00
C205   C     0.28726   0.08437   0.64557   0.00000  Uiso   1.00
C206   C     0.26740   0.04350   0.68865   0.00000  Uiso   1.00
C207   C     0.16754   0.03587   0.72689   0.00000  Uiso   1.00
H208   H     0.18881   0.18380   0.58679   0.00000  Uiso   1.00
H209   H     0.29540   0.23696   0.70783   0.00000  Uiso   1.00
H210   H     0.19884   0.18962   0.37583   0.00000  Uiso   1.00
H211   H     0.05061   0.13378   0.67533   0.00000  Uiso   1.00
H212   H     0.44762   0.28175   0.84407   0.00000  Uiso   1.00
H213   H     0.24397   0.18192   0.14403   0.00000  Uiso   1.00
H214   H     0.93140   0.06417   0.77558   0.00000  Uiso   1.00
H215   H     0.45092   0.07465   0.60288   0.00000  Uiso   1.00
H216   H     0.57190   0.12183   0.72480   0.00000  Uiso   1.00
H217   H     0.47533   0.07449   0.39280   0.00000  Uiso   1.00
H218   H     0.32710   0.01865   0.69230   0.00000  Uiso   1.00
H219   H     0.67203   0.18830   0.85784   0.00000  Uiso   1.00
H220   H     0.46838   0.08848   0.15780   0.00000  Uiso   1.00
H221   H     0.15581   0.97072   0.78935   0.00000  Uiso   1.00
O222   O     0.63469   0.26804   0.93084   0.00000  Uiso   1.00
O223   O     0.36750   0.13706   0.01242   0.00000  Uiso   1.00
O224   O     0.95742   0.98257   0.84100   0.00000  Uiso   1.00
N225   N     0.48382   0.25328   0.83060   0.00000  Uiso   1.00
N226   N     0.29343   0.15995   0.17610   0.00000  Uiso   1.00
N227   N     0.00120   0.04986   0.76652   0.00000  Uiso   1.00
N228   N     0.60458   0.20300   0.83801   0.00000  Uiso   1.00
N229   N     0.41419   0.10967   0.18352   0.00000  Uiso   1.00
N230   N     0.12195   0.99958   0.77393   0.00000  Uiso   1.00
C231   C     0.75673   0.34033   0.55959   0.00000  Uiso   1.00
C232   C     0.85022   0.32595   0.49250   0.00000  Uiso   1.00
C233   C     0.85807   0.28737   0.43441   0.00000  Uiso   1.00
C234   C     0.95005   0.28023   0.37826   0.00000  Uiso   1.00
C235   C     0.08289   0.25327   0.27383   0.00000  Uiso   1.00
C236   C     0.79811   0.34890   0.67464   0.00000  Uiso   1.00
C237   C     0.76212   0.32961   0.76969   0.00000  Uiso   1.00
C238   C     0.81023   0.34180   0.86687   0.00000  Uiso   1.00
C239   C     0.86211   0.35050   0.04523   0.00000  Uiso   1.00
C240   C     0.72425   0.38447   0.51409   0.00000  Uiso   1.00
C241   C     0.62615   0.39509   0.47418   0.00000  Uiso   1.00
C242   C     0.61207   0.43722   0.43621   0.00000  Uiso   1.00
C243   C     0.54927   0.50114   0.36529   0.00000  Uiso   1.00
C244   C     0.90613   0.39627   0.56316   0.00000  Uiso   1.00
C245   C     0.93137   0.35634   0.49445   0.00000  Uiso   1.00
C246   C     0.02336   0.34926   0.43836   0.00000  Uiso   1.00
C247   C     0.03134   0.31067   0.38020   0.00000  Uiso   1.00
C248   C     0.87925   0.37929   0.67659   0.00000  Uiso   1.00
C249   C     0.92742   0.39151   0.77364   0.00000  Uiso   1.00
C250   C     0.89152   0.37224   0.86882   0.00000  Uiso   1.00
C251   C     0.80539   0.41485   0.51603   0.00000  Uiso   1.00
C252   C     0.79145   0.45698   0.47812   0.00000  Uiso   1.00
C253   C     0.69336   0.46766   0.43815   0.00000  Uiso   1.00
H254   H     0.69355   0.31667   0.55809   0.00000  Uiso   1.00
H255   H     0.79525   0.26386   0.43294   0.00000  Uiso   1.00
H256   H     0.69932   0.30610   0.76817   0.00000  Uiso   1.00
H257   H     0.56338   0.37157   0.47269   0.00000  Uiso   1.00
H258   H     0.94381   0.21869   0.29508   0.00000  Uiso   1.00
H259   H     0.74150   0.30778   0.00193   0.00000  Uiso   1.00
H260   H     0.45484   0.44582   0.37886   0.00000  Uiso   1.00
H261   H     0.96931   0.41993   0.56468   0.00000  Uiso   1.00
H262   H     0.08614   0.37278   0.43988   0.00000  Uiso   1.00
H263   H     0.99021   0.41502   0.77511   0.00000  Uiso   1.00
H264   H     0.85426   0.48048   0.47964   0.00000  Uiso   1.00
H265   H     0.17991   0.30710   0.30071   0.00000  Uiso   1.00
H266   H     0.97759   0.39619   0.00757   0.00000  Uiso   1.00
H267   H     0.69093   0.53423   0.38450   0.00000  Uiso   1.00
O268   O     0.13375   0.23001   0.21571   0.00000  Uiso   1.00
O269   O     0.86832   0.34690   0.14307   0.00000  Uiso   1.00
O270   O     0.49223   0.52800   0.32562   0.00000  Uiso   1.00
N271   N     0.98333   0.24597   0.31351   0.00000  Uiso   1.00
N272   N     0.79420   0.32926   0.97437   0.00000  Uiso   1.00
N273   N     0.52618   0.45832   0.39189   0.00000  Uiso   1.00
N274   N     0.11037   0.29354   0.31654   0.00000  Uiso   1.00
N275   N     0.92124   0.37683   0.97741   0.00000  Uiso   1.00
N276   N     0.65322   0.50589   0.39492   0.00000  Uiso   1.00
C277   C     0.75114   0.65879   0.90951   0.00000  Uiso   1.00
C278   C     0.65688   0.67254   0.84152   0.00000  Uiso   1.00
C279   C     0.64489   0.71211   0.78848   0.00000  Uiso   1.00
C280   C     0.55292   0.71844   0.73048   0.00000  Uiso   1.00
C281   C     0.41827   0.74468   0.62566   0.00000  Uiso   1.00
C282   C     0.70934   0.64683   0.02190   0.00000  Uiso   1.00
C283   C     0.74147   0.66477   0.12053   0.00000  Uiso   1.00
C284   C     0.69366   0.64945   0.21438   0.00000  Uiso   1.00
C285   C     0.64051   0.63574   0.38962   0.00000  Uiso   1.00
C286   C     0.78987   0.61649   0.85917   0.00000  Uiso   1.00
C287   C     0.88972   0.60892   0.82100   0.00000  Uiso   1.00
C288   C     0.90973   0.56805   0.77785   0.00000  Uiso   1.00
C289   C     0.98163   0.50724   0.70042   0.00000  Uiso   1.00
C290   C     0.60913   0.59966   0.90080   0.00000  Uiso   1.00
C291   C     0.57975   0.64042   0.83679   0.00000  Uiso   1.00
C292   C     0.48777   0.64669   0.77884   0.00000  Uiso   1.00
C293   C     0.47565   0.68626   0.72573   0.00000  Uiso   1.00
C294   C     0.63221   0.61471   0.01717   0.00000  Uiso   1.00
C295   C     0.58435   0.59935   0.11089   0.00000  Uiso   1.00
C296   C     0.61639   0.61727   0.20964   0.00000  Uiso   1.00
C297   C     0.71274   0.58437   0.85443   0.00000  Uiso   1.00
C298   C     0.73260   0.54350   0.81135   0.00000  Uiso   1.00
C299   C     0.83246   0.53587   0.77311   0.00000  Uiso   1.00
H300   H     0.81119   0.68380   0.91321   0.00000  Uiso   1.00
H301   H     0.70460   0.73696   0.79217   0.00000  Uiso   1.00
H302   H     0.80116   0.68962   0.12417   0.00000  Uiso   1.00
H303   H     0.94939   0.63378   0.82467   0.00000  Uiso   1.00
H304   H     0.55238   0.78175   0.65593   0.00000  Uiso   1.00
H305   H     0.75603   0.68192   0.35597   0.00000  Uiso   1.00
H306   H     0.06860   0.56417   0.72442   0.00000  Uiso   1.00
H307   H     0.54908   0.57465   0.89712   0.00000  Uiso   1.00
H308   H     0.42810   0.62183   0.77520   0.00000  Uiso   1.00
H309   H     0.52467   0.57449   0.10720   0.00000  Uiso   1.00
H310   H     0.67290   0.51865   0.80770   0.00000  Uiso   1.00
H311   H     0.32797   0.68830   0.64216   0.00000  Uiso   1.00
H312   H     0.53162   0.58848   0.34220   0.00000  Uiso   1.00
H313   H     0.84419   0.47072   0.71065   0.00000  Uiso   1.00
O314   O     0.36531   0.76804   0.56916   0.00000  Uiso   1.00
O315   O     0.63250   0.63706   0.48758   0.00000  Uiso   1.00
O316   O     0.04258   0.48257   0.65900   0.00000  Uiso   1.00
N317   N     0.51618   0.75328   0.66940   0.00000  Uiso   1.00
N318   N     0.70657   0.65995   0.32390   0.00000  Uiso   1.00
N319   N     0.99880   0.54986   0.73348   0.00000  Uiso   1.00
N320   N     0.39542   0.70300   0.66199   0.00000  Uiso   1.00
N321   N     0.58581   0.60967   0.31648   0.00000  Uiso   1.00
N322   N     0.87805   0.49958   0.72607   0.00000  Uiso   1.00
C323   C     0.24327   0.84033   0.94041   0.00000  Uiso   1.00
C324   C     0.14978   0.82595   0.00750   0.00000  Uiso   1.00
C325   C     0.14193   0.78737   0.06559   0.00000  Uiso   1.00
C326   C     0.04995   0.78023   0.12174   0.00000  Uiso   1.00
C327   C     0.91711   0.75327   0.22617   0.00000  Uiso   1.00
C328   C     0.20189   0.84890   0.82536   0.00000  Uiso   1.00
C329   C     0.23788   0.82961   0.73031   0.00000  Uiso   1.00
C330   C     0.18977   0.84180   0.63313   0.00000  Uiso   1.00
C331   C     0.13789   0.85050   0.45477   0.00000  Uiso   1.00
C332   C     0.27575   0.88447   0.98591   0.00000  Uiso   1.00
C333   C     0.37385   0.89509   0.02582   0.00000  Uiso   1.00
C334   C     0.38793   0.93722   0.06379   0.00000  Uiso   1.00
C335   C     0.45073   0.00114   0.13471   0.00000  Uiso   1.00
C336   C     0.09387   0.89627   0.93684   0.00000  Uiso   1.00
C337   C     0.06863   0.85634   0.00555   0.00000  Uiso   1.00
C338   C     0.97664   0.84926   0.06164   0.00000  Uiso   1.00
C339   C     0.96866   0.81067   0.11980   0.00000  Uiso   1.00
C340   C     0.12075   0.87929   0.82341   0.00000  Uiso   1.00
C341   C     0.07258   0.89151   0.72636   0.00000  Uiso   1.00
C342   C     0.10848   0.87224   0.63118   0.00000  Uiso   1.00
C343   C     0.19461   0.91485   0.98397   0.00000  Uiso   1.00
C344   C     0.20855   0.95698   0.02188   0.00000  Uiso   1.00
C345   C     0.30664   0.96766   0.06185   0.00000  Uiso   1.00
H346   H     0.30645   0.81667   0.94191   0.00000  Uiso   1.00
H347   H     0.20475   0.76386   0.06706   0.00000  Uiso   1.00
H348   H     0.30068   0.80610   0.73183   0.00000  Uiso   1.00
H349   H     0.43662   0.87157   0.02731   0.00000  Uiso   1.00
H350   H     0.05619   0.71869   0.20492   0.00000  Uiso   1.00
H351   H     0.25850   0.80778   0.49807   0.00000  Uiso   1.00
H352   H     0.54516   0.94582   0.12114   0.00000  Uiso   1.00
H353   H     0.03069   0.91993   0.93532   0.00000  Uiso   1.00
H354   H     0.91386   0.87278   0.06012   0.00000  Uiso   1.00
H355   H     0.00979   0.91502   0.72489   0.00000  Uiso   1.00
H356   H     0.14574   0.98048   0.02036   0.00000  Uiso   1.00
H357   H     0.82009   0.80710   0.19929   0.00000  Uiso   1.00
H358   H     0.02241   0.89619   0.49243   0.00000  Uiso   1.00
H359   H     0.30907   0.03423   0.11550   0.00000  Uiso   1.00
O360   O     0.86625   0.73001   0.28429   0.00000  Uiso   1.00
O361   O     0.13168   0.84690   0.35693   0.00000  Uiso   1.00
O362   O     0.50777   0.02800   0.17438   0.00000  Uiso   1.00
N363   N     0.01667   0.74597   0.18649   0.00000  Uiso   1.00
N364   N     0.20580   0.82926   0.52563   0.00000  Uiso   1.00
N365   N     0.47382   0.95832   0.10811   0.00000  Uiso   1.00
N366   N     0.88963   0.79354   0.18346   0.00000  Uiso   1.00
N367   N     0.07876   0.87683   0.52259   0.00000  Uiso   1.00
N368   N     0.34678   0.00589   0.10508   0.00000  Uiso   1.00
