data_job_01255
_audit_creation_date              2018-12-19
_audit_creation_method            'Materials Studio'
_symmetry_space_group_name_H-M    'P1'
_symmetry_Int_Tables_number       1
_symmetry_cell_setting            triclinic
loop_
_symmetry_equiv_pos_as_xyz
  x,y,z
_cell_length_a                    10.2236
_cell_length_b                    31.9567
_cell_length_c                    8.8823
_cell_angle_alpha                 90.0000
_cell_angle_beta                  98.1443
_cell_angle_gamma                 90.0000
loop_
_atom_site_label
_atom_site_type_symbol
_atom_site_fract_x
_atom_site_fract_y
_atom_site_fract_z
_atom_site_U_iso_or_equiv
_atom_site_adp_type
_atom_site_occupancy
C1     C     0.78733   0.86514   0.01052   0.00000  Uiso   1.00
C2     C     0.93548   0.86300   0.00430   0.00000  Uiso   1.00
C3     C     0.02722   0.84105   0.10439   0.00000  Uiso   1.00
C4     C     0.15810   0.84303   0.07943   0.00000  Uiso   1.00
C5     C     0.38241   0.83621   0.08818   0.00000  Uiso   1.00
C6     C     0.75390   0.91151   0.01914   0.00000  Uiso   1.00
C7     C     0.69295   0.93033   0.13169   0.00000  Uiso   1.00
C8     C     0.67096   0.97315   0.11919   0.00000  Uiso   1.00
C9     C     0.61329   0.04163   0.15092   0.00000  Uiso   1.00
C10    C     0.72011   0.85009   0.85579   0.00000  Uiso   1.00
C11    C     0.63071   0.81728   0.83099   0.00000  Uiso   1.00
C12    C     0.58025   0.80839   0.68096   0.00000  Uiso   1.00
C13    C     0.47011   0.78150   0.45907   0.00000  Uiso   1.00
C14    C     0.85663   0.90770   0.78820   0.00000  Uiso   1.00
C15    C     0.97312   0.88612   0.88355   0.00000  Uiso   1.00
C16    C     0.10389   0.88814   0.85842   0.00000  Uiso   1.00
C17    C     0.19581   0.86619   0.95845   0.00000  Uiso   1.00
C18    C     0.79154   0.93462   0.89839   0.00000  Uiso   1.00
C19    C     0.76963   0.97742   0.88572   0.00000  Uiso   1.00
C20    C     0.70867   0.99631   0.99822   0.00000  Uiso   1.00
C21    C     0.75775   0.87320   0.73503   0.00000  Uiso   1.00
C22    C     0.70740   0.86436   0.58502   0.00000  Uiso   1.00
C23    C     0.61796   0.83154   0.55999   0.00000  Uiso   1.00
H24    H     0.75802   0.84715   0.10454   0.00000  Uiso   1.00
H25    H     0.99805   0.82317   0.19784   0.00000  Uiso   1.00
H26    H     0.66382   0.91244   0.22512   0.00000  Uiso   1.00
H27    H     0.60161   0.79940   0.92446   0.00000  Uiso   1.00
H28    H     0.28077   0.80679   0.24806   0.00000  Uiso   1.00
H29    H     0.57600   0.99501   0.30555   0.00000  Uiso   1.00
H30    H     0.44480   0.75665   0.67156   0.00000  Uiso   1.00
H31    H     0.88594   0.92570   0.69418   0.00000  Uiso   1.00
H32    H     0.13299   0.90603   0.76496   0.00000  Uiso   1.00
H33    H     0.79876   0.99530   0.79225   0.00000  Uiso   1.00
H34    H     0.73655   0.88226   0.49160   0.00000  Uiso   1.00
H35    H     0.39030   0.87404   0.89672   0.00000  Uiso   1.00
H36    H     0.68551   0.06227   0.95421   0.00000  Uiso   1.00
H37    H     0.55432   0.82390   0.32023   0.00000  Uiso   1.00
O38    O     0.49575   0.82607   0.12638   0.00000  Uiso   1.00
O39    O     0.57109   0.07301   0.20179   0.00000  Uiso   1.00
O40    O     0.39897   0.76028   0.37003   0.00000  Uiso   1.00
N41    N     0.27264   0.82531   0.15564   0.00000  Uiso   1.00
N42    N     0.61374   0.00129   0.20940   0.00000  Uiso   1.00
N43    N     0.49105   0.77844   0.61668   0.00000  Uiso   1.00
N44    N     0.33157   0.86150   0.96659   0.00000  Uiso   1.00
N45    N     0.67267   0.03748   0.02035   0.00000  Uiso   1.00
N46    N     0.54998   0.81463   0.42763   0.00000  Uiso   1.00
C47    C     0.21267   0.36514   0.48948   0.00000  Uiso   1.00
C48    C     0.06452   0.36300   0.49570   0.00000  Uiso   1.00
C49    C     0.97278   0.34105   0.39561   0.00000  Uiso   1.00
C50    C     0.84190   0.34303   0.42057   0.00000  Uiso   1.00
C51    C     0.61759   0.33621   0.41182   0.00000  Uiso   1.00
C52    C     0.24610   0.41151   0.48086   0.00000  Uiso   1.00
C53    C     0.30705   0.43033   0.36831   0.00000  Uiso   1.00
C54    C     0.32904   0.47315   0.38081   0.00000  Uiso   1.00
C55    C     0.38671   0.54163   0.34908   0.00000  Uiso   1.00
C56    C     0.27989   0.35009   0.64421   0.00000  Uiso   1.00
C57    C     0.36929   0.31728   0.66901   0.00000  Uiso   1.00
C58    C     0.41975   0.30839   0.81904   0.00000  Uiso   1.00
C59    C     0.52989   0.28150   0.04093   0.00000  Uiso   1.00
C60    C     0.14337   0.40770   0.71180   0.00000  Uiso   1.00
C61    C     0.02688   0.38612   0.61645   0.00000  Uiso   1.00
C62    C     0.89611   0.38814   0.64158   0.00000  Uiso   1.00
C63    C     0.80419   0.36619   0.54155   0.00000  Uiso   1.00
C64    C     0.20846   0.43462   0.60161   0.00000  Uiso   1.00
C65    C     0.23037   0.47742   0.61428   0.00000  Uiso   1.00
C66    C     0.29133   0.49631   0.50178   0.00000  Uiso   1.00
C67    C     0.24225   0.37320   0.76497   0.00000  Uiso   1.00
C68    C     0.29260   0.36436   0.91498   0.00000  Uiso   1.00
C69    C     0.38204   0.33154   0.94001   0.00000  Uiso   1.00
H70    H     0.24198   0.34715   0.39546   0.00000  Uiso   1.00
H71    H     0.00195   0.32317   0.30216   0.00000  Uiso   1.00
H72    H     0.33618   0.41244   0.27488   0.00000  Uiso   1.00
H73    H     0.39839   0.29940   0.57554   0.00000  Uiso   1.00
H74    H     0.71923   0.30679   0.25194   0.00000  Uiso   1.00
H75    H     0.42400   0.49501   0.19445   0.00000  Uiso   1.00
H76    H     0.55520   0.25665   0.82844   0.00000  Uiso   1.00
H77    H     0.11406   0.42570   0.80582   0.00000  Uiso   1.00
H78    H     0.86701   0.40603   0.73504   0.00000  Uiso   1.00
H79    H     0.20124   0.49530   0.70775   0.00000  Uiso   1.00
H80    H     0.26345   0.38226   0.00840   0.00000  Uiso   1.00
H81    H     0.60970   0.37404   0.60328   0.00000  Uiso   1.00
H82    H     0.31449   0.56227   0.54579   0.00000  Uiso   1.00
H83    H     0.44568   0.32390   0.17977   0.00000  Uiso   1.00
O84    O     0.50425   0.32607   0.37362   0.00000  Uiso   1.00
O85    O     0.42891   0.57301   0.29821   0.00000  Uiso   1.00
O86    O     0.60103   0.26028   0.12997   0.00000  Uiso   1.00
N87    N     0.72736   0.32531   0.34436   0.00000  Uiso   1.00
N88    N     0.38626   0.50129   0.29060   0.00000  Uiso   1.00
N89    N     0.50895   0.27844   0.88332   0.00000  Uiso   1.00
N90    N     0.66843   0.36150   0.53341   0.00000  Uiso   1.00
N91    N     0.32733   0.53748   0.47965   0.00000  Uiso   1.00
N92    N     0.45002   0.31463   0.07237   0.00000  Uiso   1.00
C93    C     0.21267   0.13486   0.98948   0.00000  Uiso   1.00
C94    C     0.06452   0.13700   0.99570   0.00000  Uiso   1.00
C95    C     0.97278   0.15895   0.89561   0.00000  Uiso   1.00
C96    C     0.84190   0.15697   0.92057   0.00000  Uiso   1.00
C97    C     0.61759   0.16379   0.91182   0.00000  Uiso   1.00
C98    C     0.24610   0.08849   0.98086   0.00000  Uiso   1.00
C99    C     0.30705   0.06967   0.86831   0.00000  Uiso   1.00
C100   C     0.32904   0.02685   0.88081   0.00000  Uiso   1.00
C101   C     0.38671   0.95837   0.84908   0.00000  Uiso   1.00
C102   C     0.27989   0.14991   0.14421   0.00000  Uiso   1.00
C103   C     0.36929   0.18272   0.16901   0.00000  Uiso   1.00
C104   C     0.41975   0.19161   0.31904   0.00000  Uiso   1.00
C105   C     0.52989   0.21850   0.54093   0.00000  Uiso   1.00
C106   C     0.14337   0.09230   0.21180   0.00000  Uiso   1.00
C107   C     0.02688   0.11388   0.11645   0.00000  Uiso   1.00
C108   C     0.89611   0.11186   0.14158   0.00000  Uiso   1.00
C109   C     0.80419   0.13381   0.04155   0.00000  Uiso   1.00
C110   C     0.20846   0.06538   0.10161   0.00000  Uiso   1.00
C111   C     0.23037   0.02258   0.11428   0.00000  Uiso   1.00
C112   C     0.29133   0.00369   0.00178   0.00000  Uiso   1.00
C113   C     0.24225   0.12680   0.26497   0.00000  Uiso   1.00
C114   C     0.29260   0.13564   0.41498   0.00000  Uiso   1.00
C115   C     0.38204   0.16846   0.44001   0.00000  Uiso   1.00
H116   H     0.24198   0.15285   0.89546   0.00000  Uiso   1.00
H117   H     0.00195   0.17683   0.80216   0.00000  Uiso   1.00
H118   H     0.33618   0.08756   0.77488   0.00000  Uiso   1.00
H119   H     0.39839   0.20060   0.07554   0.00000  Uiso   1.00
H120   H     0.71923   0.19321   0.75194   0.00000  Uiso   1.00
H121   H     0.42400   0.00499   0.69445   0.00000  Uiso   1.00
H122   H     0.55520   0.24335   0.32844   0.00000  Uiso   1.00
H123   H     0.11406   0.07430   0.30582   0.00000  Uiso   1.00
H124   H     0.86701   0.09397   0.23504   0.00000  Uiso   1.00
H125   H     0.20124   0.00470   0.20775   0.00000  Uiso   1.00
H126   H     0.26345   0.11774   0.50840   0.00000  Uiso   1.00
H127   H     0.60970   0.12596   0.10328   0.00000  Uiso   1.00
H128   H     0.31449   0.93773   0.04579   0.00000  Uiso   1.00
H129   H     0.44568   0.17610   0.67977   0.00000  Uiso   1.00
O130   O     0.50425   0.17393   0.87362   0.00000  Uiso   1.00
O131   O     0.42891   0.92699   0.79821   0.00000  Uiso   1.00
O132   O     0.60103   0.23972   0.62997   0.00000  Uiso   1.00
N133   N     0.72736   0.17469   0.84436   0.00000  Uiso   1.00
N134   N     0.38626   0.99871   0.79060   0.00000  Uiso   1.00
N135   N     0.50895   0.22156   0.38332   0.00000  Uiso   1.00
N136   N     0.66843   0.13850   0.03341   0.00000  Uiso   1.00
N137   N     0.32733   0.96252   0.97965   0.00000  Uiso   1.00
N138   N     0.45002   0.18537   0.57237   0.00000  Uiso   1.00
C139   C     0.78733   0.63486   0.51052   0.00000  Uiso   1.00
C140   C     0.93548   0.63700   0.50430   0.00000  Uiso   1.00
C141   C     0.02722   0.65895   0.60439   0.00000  Uiso   1.00
C142   C     0.15810   0.65697   0.57943   0.00000  Uiso   1.00
C143   C     0.38241   0.66379   0.58818   0.00000  Uiso   1.00
C144   C     0.75390   0.58849   0.51914   0.00000  Uiso   1.00
C145   C     0.69295   0.56967   0.63169   0.00000  Uiso   1.00
C146   C     0.67096   0.52685   0.61919   0.00000  Uiso   1.00
C147   C     0.61329   0.45837   0.65092   0.00000  Uiso   1.00
C148   C     0.72011   0.64991   0.35579   0.00000  Uiso   1.00
C149   C     0.63071   0.68272   0.33099   0.00000  Uiso   1.00
C150   C     0.58025   0.69161   0.18096   0.00000  Uiso   1.00
C151   C     0.47011   0.71850   0.95907   0.00000  Uiso   1.00
C152   C     0.85663   0.59230   0.28820   0.00000  Uiso   1.00
C153   C     0.97312   0.61388   0.38355   0.00000  Uiso   1.00
C154   C     0.10389   0.61186   0.35842   0.00000  Uiso   1.00
C155   C     0.19581   0.63381   0.45845   0.00000  Uiso   1.00
C156   C     0.79154   0.56538   0.39839   0.00000  Uiso   1.00
C157   C     0.76963   0.52258   0.38572   0.00000  Uiso   1.00
C158   C     0.70867   0.50369   0.49822   0.00000  Uiso   1.00
C159   C     0.75775   0.62680   0.23503   0.00000  Uiso   1.00
C160   C     0.70740   0.63564   0.08502   0.00000  Uiso   1.00
C161   C     0.61796   0.66846   0.05999   0.00000  Uiso   1.00
H162   H     0.75802   0.65285   0.60454   0.00000  Uiso   1.00
H163   H     0.99805   0.67683   0.69784   0.00000  Uiso   1.00
H164   H     0.66382   0.58756   0.72512   0.00000  Uiso   1.00
H165   H     0.60161   0.70060   0.42446   0.00000  Uiso   1.00
H166   H     0.28077   0.69321   0.74806   0.00000  Uiso   1.00
H167   H     0.57600   0.50499   0.80555   0.00000  Uiso   1.00
H168   H     0.44480   0.74335   0.17156   0.00000  Uiso   1.00
H169   H     0.88594   0.57430   0.19418   0.00000  Uiso   1.00
H170   H     0.13299   0.59397   0.26496   0.00000  Uiso   1.00
H171   H     0.79876   0.50470   0.29225   0.00000  Uiso   1.00
H172   H     0.73655   0.61774   0.99160   0.00000  Uiso   1.00
H173   H     0.39030   0.62596   0.39672   0.00000  Uiso   1.00
H174   H     0.68551   0.43773   0.45421   0.00000  Uiso   1.00
H175   H     0.55432   0.67610   0.82023   0.00000  Uiso   1.00
O176   O     0.49575   0.67393   0.62638   0.00000  Uiso   1.00
O177   O     0.57109   0.42699   0.70179   0.00000  Uiso   1.00
O178   O     0.39897   0.73972   0.87003   0.00000  Uiso   1.00
N179   N     0.27264   0.67469   0.65564   0.00000  Uiso   1.00
N180   N     0.61374   0.49871   0.70940   0.00000  Uiso   1.00
N181   N     0.49105   0.72156   0.11668   0.00000  Uiso   1.00
N182   N     0.33157   0.63850   0.46659   0.00000  Uiso   1.00
N183   N     0.67267   0.46252   0.52035   0.00000  Uiso   1.00
N184   N     0.54998   0.68537   0.92763   0.00000  Uiso   1.00
