data_job_04336
_audit_creation_date              2018-12-19
_audit_creation_method            'Materials Studio'
_symmetry_space_group_name_H-M    'P1'
_symmetry_Int_Tables_number       1
_symmetry_cell_setting            triclinic
loop_
_symmetry_equiv_pos_as_xyz
  x,y,z
_cell_length_a                    26.9110
_cell_length_b                    13.7333
_cell_length_c                    25.6495
_cell_angle_alpha                 90.0000
_cell_angle_beta                  152.4592
_cell_angle_gamma                 90.0000
loop_
_atom_site_label
_atom_site_type_symbol
_atom_site_fract_x
_atom_site_fract_y
_atom_site_fract_z
_atom_site_U_iso_or_equiv
_atom_site_adp_type
_atom_site_occupancy
C1     C     0.73557   0.92634   0.80337   0.00000  Uiso   1.00
C2     C     0.73252   0.01157   0.83861   0.00000  Uiso   1.00
C3     C     0.71657   0.10851   0.81061   0.00000  Uiso   1.00
C4     C     0.71654   0.17553   0.85110   0.00000  Uiso   1.00
C5     C     0.70952   0.31229   0.89581   0.00000  Uiso   1.00
C6     C     0.84342   0.87613   0.91232   0.00000  Uiso   1.00
C7     C     0.92071   0.85917   0.94627   0.00000  Uiso   1.00
C8     C     0.01402   0.81216   0.04881   0.00000  Uiso   1.00
C9     C     0.17914   0.73857   0.20791   0.00000  Uiso   1.00
C10    C     0.65017   0.85476   0.74260   0.00000  Uiso   1.00
C11    C     0.56498   0.81981   0.63386   0.00000  Uiso   1.00
C12    C     0.49560   0.75479   0.59351   0.00000  Uiso   1.00
C13    C     0.36067   0.64802   0.48909   0.00000  Uiso   1.00
C14    C     0.76386   0.87297   0.92508   0.00000  Uiso   1.00
C15    C     0.74789   0.98258   0.90472   0.00000  Uiso   1.00
C16    C     0.74788   0.04947   0.94527   0.00000  Uiso   1.00
C17    C     0.73193   0.14649   0.91732   0.00000  Uiso   1.00
C18    C     0.85879   0.84714   0.97843   0.00000  Uiso   1.00
C19    C     0.95201   0.80013   0.08093   0.00000  Uiso   1.00
C20    C     0.02942   0.78312   0.11504   0.00000  Uiso   1.00
C21    C     0.66553   0.82577   0.80871   0.00000  Uiso   1.00
C22    C     0.59628   0.76078   0.76852   0.00000  Uiso   1.00
C23    C     0.51100   0.72574   0.65974   0.00000  Uiso   1.00
H24    H     0.72361   0.94891   0.75191   0.00000  Uiso   1.00
H25    H     0.70469   0.13092   0.75945   0.00000  Uiso   1.00
H26    H     0.90879   0.88161   0.89509   0.00000  Uiso   1.00
H27    H     0.55311   0.84226   0.58273   0.00000  Uiso   1.00
H28    H     0.69053   0.31993   0.79701   0.00000  Uiso   1.00
H29    H     0.12086   0.79422   0.08299   0.00000  Uiso   1.00
H30    H     0.37085   0.71124   0.42430   0.00000  Uiso   1.00
H31    H     0.77583   0.85040   0.97655   0.00000  Uiso   1.00
H32    H     0.75977   0.02702   0.99642   0.00000  Uiso   1.00
H33    H     0.96387   0.77770   0.13206   0.00000  Uiso   1.00
H34    H     0.60820   0.73836   0.81970   0.00000  Uiso   1.00
H35    H     0.73524   0.23560   0.98935   0.00000  Uiso   1.00
H36    H     0.16557   0.70988   0.27533   0.00000  Uiso   1.00
H37    H     0.41556   0.62691   0.61664   0.00000  Uiso   1.00
O38    O     0.70142   0.39573   0.90223   0.00000  Uiso   1.00
O39    O     0.26598   0.70600   0.27741   0.00000  Uiso   1.00
O40    O     0.28199   0.59714   0.41323   0.00000  Uiso   1.00
N41    N     0.70324   0.27585   0.83953   0.00000  Uiso   1.00
N42    N     0.10558   0.78435   0.10691   0.00000  Uiso   1.00
N43    N     0.40440   0.70675   0.49111   0.00000  Uiso   1.00
N44    N     0.72729   0.23047   0.94302   0.00000  Uiso   1.00
N45    N     0.12963   0.73897   0.21041   0.00000  Uiso   1.00
N46    N     0.42845   0.66138   0.59460   0.00000  Uiso   1.00
C47    C     0.25064   0.20550   0.83128   0.00000  Uiso   1.00
C48    C     0.25072   0.29799   0.86426   0.00000  Uiso   1.00
C49    C     0.23860   0.39213   0.83422   0.00000  Uiso   1.00
C50    C     0.24098   0.46693   0.87283   0.00000  Uiso   1.00
C51    C     0.23903   0.61340   0.91400   0.00000  Uiso   1.00
C52    C     0.35643   0.15397   0.94150   0.00000  Uiso   1.00
C53    C     0.43319   0.12701   0.97640   0.00000  Uiso   1.00
C54    C     0.52455   0.08055   0.08002   0.00000  Uiso   1.00
C55    C     0.68669   0.00336   0.24107   0.00000  Uiso   1.00
C56    C     0.16242   0.14085   0.77169   0.00000  Uiso   1.00
C57    C     0.07607   0.10284   0.66382   0.00000  Uiso   1.00
C58    C     0.00409   0.04532   0.62448   0.00000  Uiso   1.00
C59    C     0.86501   0.94776   0.52188   0.00000  Uiso   1.00
C60    C     0.27640   0.17093   0.95326   0.00000  Uiso   1.00
C61    C     0.26471   0.27921   0.93051   0.00000  Uiso   1.00
C62    C     0.26710   0.35388   0.96917   0.00000  Uiso   1.00
C63    C     0.25499   0.44812   0.93919   0.00000  Uiso   1.00
C64    C     0.37043   0.13519   0.00775   0.00000  Uiso   1.00
C65    C     0.46169   0.08876   0.11135   0.00000  Uiso   1.00
C66    C     0.53857   0.06174   0.14639   0.00000  Uiso   1.00
C67    C     0.17641   0.12207   0.83794   0.00000  Uiso   1.00
C68    C     0.10457   0.06459   0.79877   0.00000  Uiso   1.00
C69    C     0.01811   0.02650   0.69085   0.00000  Uiso   1.00
H70    H     0.23975   0.22012   0.77971   0.00000  Uiso   1.00
H71    H     0.22778   0.40664   0.78296   0.00000  Uiso   1.00
H72    H     0.42233   0.14154   0.92510   0.00000  Uiso   1.00
H73    H     0.06527   0.11738   0.61257   0.00000  Uiso   1.00
H74    H     0.22073   0.60515   0.81581   0.00000  Uiso   1.00
H75    H     0.63093   0.04615   0.11552   0.00000  Uiso   1.00
H76    H     0.87798   0.99521   0.45648   0.00000  Uiso   1.00
H77    H     0.28729   0.15630   0.00484   0.00000  Uiso   1.00
H78    H     0.27793   0.33933   0.02044   0.00000  Uiso   1.00
H79    H     0.47249   0.07423   0.16259   0.00000  Uiso   1.00
H80    H     0.11542   0.05008   0.85006   0.00000  Uiso   1.00
H81    H     0.26144   0.55052   0.00856   0.00000  Uiso   1.00
H82    H     0.67164   0.99151   0.30827   0.00000  Uiso   1.00
H83    H     0.91869   0.94058   0.64924   0.00000  Uiso   1.00
O84    O     0.23411   0.69938   0.91842   0.00000  Uiso   1.00
O85    O     0.77226   0.96598   0.31161   0.00000  Uiso   1.00
O86    O     0.78441   0.89915   0.44697   0.00000  Uiso   1.00
N87    N     0.23157   0.56717   0.85902   0.00000  Uiso   1.00
N88    N     0.61509   0.04456   0.13923   0.00000  Uiso   1.00
N89    N     0.91117   0.99691   0.52310   0.00000  Uiso   1.00
N90    N     0.25348   0.53778   0.96273   0.00000  Uiso   1.00
N91    N     0.63700   0.01516   0.24295   0.00000  Uiso   1.00
N92    N     0.93307   0.96751   0.62682   0.00000  Uiso   1.00
C93    C     0.26443   0.42634   0.69663   0.00000  Uiso   1.00
C94    C     0.26748   0.51157   0.66139   0.00000  Uiso   1.00
C95    C     0.28343   0.60851   0.68939   0.00000  Uiso   1.00
C96    C     0.28346   0.67553   0.64890   0.00000  Uiso   1.00
C97    C     0.29048   0.81229   0.60419   0.00000  Uiso   1.00
C98    C     0.15658   0.37613   0.58768   0.00000  Uiso   1.00
C99    C     0.07929   0.35917   0.55373   0.00000  Uiso   1.00
C100   C     0.98598   0.31216   0.45119   0.00000  Uiso   1.00
C101   C     0.82086   0.23857   0.29209   0.00000  Uiso   1.00
C102   C     0.34983   0.35476   0.75740   0.00000  Uiso   1.00
C103   C     0.43502   0.31981   0.86614   0.00000  Uiso   1.00
C104   C     0.50440   0.25479   0.90649   0.00000  Uiso   1.00
C105   C     0.63933   0.14802   0.01091   0.00000  Uiso   1.00
C106   C     0.23614   0.37297   0.57492   0.00000  Uiso   1.00
C107   C     0.25211   0.48258   0.59528   0.00000  Uiso   1.00
C108   C     0.25212   0.54947   0.55473   0.00000  Uiso   1.00
C109   C     0.26807   0.64649   0.58268   0.00000  Uiso   1.00
C110   C     0.14121   0.34714   0.52157   0.00000  Uiso   1.00
C111   C     0.04799   0.30013   0.41907   0.00000  Uiso   1.00
C112   C     0.97058   0.28312   0.38496   0.00000  Uiso   1.00
C113   C     0.33447   0.32577   0.69129   0.00000  Uiso   1.00
C114   C     0.40372   0.26078   0.73148   0.00000  Uiso   1.00
C115   C     0.48900   0.22574   0.84026   0.00000  Uiso   1.00
H116   H     0.27639   0.44891   0.74809   0.00000  Uiso   1.00
H117   H     0.29531   0.63092   0.74055   0.00000  Uiso   1.00
H118   H     0.09121   0.38161   0.60491   0.00000  Uiso   1.00
H119   H     0.44689   0.34226   0.91727   0.00000  Uiso   1.00
H120   H     0.30947   0.81993   0.70299   0.00000  Uiso   1.00
H121   H     0.87914   0.29422   0.41701   0.00000  Uiso   1.00
H122   H     0.62915   0.21124   0.07570   0.00000  Uiso   1.00
H123   H     0.22417   0.35040   0.52345   0.00000  Uiso   1.00
H124   H     0.24023   0.52702   0.50358   0.00000  Uiso   1.00
H125   H     0.03613   0.27770   0.36794   0.00000  Uiso   1.00
H126   H     0.39180   0.23836   0.68030   0.00000  Uiso   1.00
H127   H     0.26476   0.73560   0.51065   0.00000  Uiso   1.00
H128   H     0.83443   0.20988   0.22467   0.00000  Uiso   1.00
H129   H     0.58444   0.12691   0.88336   0.00000  Uiso   1.00
O130   O     0.29858   0.89573   0.59777   0.00000  Uiso   1.00
O131   O     0.73402   0.20600   0.22259   0.00000  Uiso   1.00
O132   O     0.71801   0.09714   0.08677   0.00000  Uiso   1.00
N133   N     0.29676   0.77585   0.66047   0.00000  Uiso   1.00
N134   N     0.89442   0.28435   0.39309   0.00000  Uiso   1.00
N135   N     0.59560   0.20675   0.00889   0.00000  Uiso   1.00
N136   N     0.27271   0.73047   0.55698   0.00000  Uiso   1.00
N137   N     0.87037   0.23897   0.28959   0.00000  Uiso   1.00
N138   N     0.57155   0.16138   0.90540   0.00000  Uiso   1.00
C139   C     0.74936   0.70550   0.66872   0.00000  Uiso   1.00
C140   C     0.74928   0.79799   0.63574   0.00000  Uiso   1.00
C141   C     0.76140   0.89213   0.66578   0.00000  Uiso   1.00
C142   C     0.75902   0.96693   0.62717   0.00000  Uiso   1.00
C143   C     0.76097   0.11340   0.58600   0.00000  Uiso   1.00
C144   C     0.64357   0.65397   0.55850   0.00000  Uiso   1.00
C145   C     0.56681   0.62701   0.52360   0.00000  Uiso   1.00
C146   C     0.47545   0.58055   0.41998   0.00000  Uiso   1.00
C147   C     0.31331   0.50336   0.25893   0.00000  Uiso   1.00
C148   C     0.83758   0.64085   0.72831   0.00000  Uiso   1.00
C149   C     0.92393   0.60284   0.83618   0.00000  Uiso   1.00
C150   C     0.99591   0.54532   0.87552   0.00000  Uiso   1.00
C151   C     0.13499   0.44776   0.97812   0.00000  Uiso   1.00
C152   C     0.72360   0.67093   0.54674   0.00000  Uiso   1.00
C153   C     0.73529   0.77921   0.56949   0.00000  Uiso   1.00
C154   C     0.73290   0.85388   0.53083   0.00000  Uiso   1.00
C155   C     0.74501   0.94812   0.56081   0.00000  Uiso   1.00
C156   C     0.62957   0.63519   0.49225   0.00000  Uiso   1.00
C157   C     0.53831   0.58876   0.38865   0.00000  Uiso   1.00
C158   C     0.46143   0.56174   0.35361   0.00000  Uiso   1.00
C159   C     0.82359   0.62207   0.66206   0.00000  Uiso   1.00
C160   C     0.89543   0.56459   0.70123   0.00000  Uiso   1.00
C161   C     0.98189   0.52650   0.80915   0.00000  Uiso   1.00
H162   H     0.76025   0.72012   0.72029   0.00000  Uiso   1.00
H163   H     0.77222   0.90664   0.71704   0.00000  Uiso   1.00
H164   H     0.57767   0.64154   0.57490   0.00000  Uiso   1.00
H165   H     0.93473   0.61738   0.88743   0.00000  Uiso   1.00
H166   H     0.77927   0.10515   0.68419   0.00000  Uiso   1.00
H167   H     0.36907   0.54615   0.38448   0.00000  Uiso   1.00
H168   H     0.12202   0.49521   0.04352   0.00000  Uiso   1.00
H169   H     0.71271   0.65630   0.49516   0.00000  Uiso   1.00
H170   H     0.72207   0.83933   0.47956   0.00000  Uiso   1.00
H171   H     0.52751   0.57423   0.33741   0.00000  Uiso   1.00
H172   H     0.88458   0.55008   0.64994   0.00000  Uiso   1.00
H173   H     0.73856   0.05052   0.49144   0.00000  Uiso   1.00
H174   H     0.32836   0.49151   0.19173   0.00000  Uiso   1.00
H175   H     0.08131   0.44058   0.85076   0.00000  Uiso   1.00
O176   O     0.76589   0.19938   0.58158   0.00000  Uiso   1.00
O177   O     0.22774   0.46598   0.18839   0.00000  Uiso   1.00
O178   O     0.21559   0.39915   0.05303   0.00000  Uiso   1.00
N179   N     0.76843   0.06717   0.64098   0.00000  Uiso   1.00
N180   N     0.38491   0.54456   0.36077   0.00000  Uiso   1.00
N181   N     0.08883   0.49691   0.97690   0.00000  Uiso   1.00
N182   N     0.74652   0.03778   0.53727   0.00000  Uiso   1.00
N183   N     0.36300   0.51516   0.25705   0.00000  Uiso   1.00
N184   N     0.06693   0.46751   0.87318   0.00000  Uiso   1.00
C185   C     0.26443   0.07366   0.19663   0.00000  Uiso   1.00
C186   C     0.26748   0.98843   0.16139   0.00000  Uiso   1.00
C187   C     0.28343   0.89149   0.18939   0.00000  Uiso   1.00
C188   C     0.28346   0.82447   0.14890   0.00000  Uiso   1.00
C189   C     0.29048   0.68771   0.10419   0.00000  Uiso   1.00
C190   C     0.15658   0.12387   0.08768   0.00000  Uiso   1.00
C191   C     0.07929   0.14083   0.05373   0.00000  Uiso   1.00
C192   C     0.98598   0.18784   0.95119   0.00000  Uiso   1.00
C193   C     0.82086   0.26143   0.79209   0.00000  Uiso   1.00
C194   C     0.34983   0.14524   0.25740   0.00000  Uiso   1.00
C195   C     0.43502   0.18019   0.36614   0.00000  Uiso   1.00
C196   C     0.50440   0.24521   0.40649   0.00000  Uiso   1.00
C197   C     0.63933   0.35198   0.51091   0.00000  Uiso   1.00
C198   C     0.23614   0.12703   0.07492   0.00000  Uiso   1.00
C199   C     0.25211   0.01742   0.09528   0.00000  Uiso   1.00
C200   C     0.25212   0.95053   0.05473   0.00000  Uiso   1.00
C201   C     0.26807   0.85351   0.08268   0.00000  Uiso   1.00
C202   C     0.14121   0.15286   0.02157   0.00000  Uiso   1.00
C203   C     0.04799   0.19987   0.91907   0.00000  Uiso   1.00
C204   C     0.97058   0.21688   0.88496   0.00000  Uiso   1.00
C205   C     0.33447   0.17423   0.19129   0.00000  Uiso   1.00
C206   C     0.40372   0.23922   0.23148   0.00000  Uiso   1.00
C207   C     0.48900   0.27426   0.34026   0.00000  Uiso   1.00
H208   H     0.27639   0.05109   0.24809   0.00000  Uiso   1.00
H209   H     0.29531   0.86908   0.24055   0.00000  Uiso   1.00
H210   H     0.09121   0.11839   0.10491   0.00000  Uiso   1.00
H211   H     0.44689   0.15774   0.41727   0.00000  Uiso   1.00
H212   H     0.30947   0.68007   0.20299   0.00000  Uiso   1.00
H213   H     0.87914   0.20578   0.91701   0.00000  Uiso   1.00
H214   H     0.62915   0.28876   0.57570   0.00000  Uiso   1.00
H215   H     0.22417   0.14960   0.02345   0.00000  Uiso   1.00
H216   H     0.24023   0.97298   0.00358   0.00000  Uiso   1.00
H217   H     0.03613   0.22230   0.86794   0.00000  Uiso   1.00
H218   H     0.39180   0.26164   0.18030   0.00000  Uiso   1.00
H219   H     0.26476   0.76440   0.01065   0.00000  Uiso   1.00
H220   H     0.83443   0.29012   0.72467   0.00000  Uiso   1.00
H221   H     0.58444   0.37309   0.38336   0.00000  Uiso   1.00
O222   O     0.29858   0.60427   0.09777   0.00000  Uiso   1.00
O223   O     0.73402   0.29400   0.72259   0.00000  Uiso   1.00
O224   O     0.71801   0.40286   0.58677   0.00000  Uiso   1.00
N225   N     0.29676   0.72415   0.16047   0.00000  Uiso   1.00
N226   N     0.89442   0.21565   0.89309   0.00000  Uiso   1.00
N227   N     0.59560   0.29325   0.50889   0.00000  Uiso   1.00
N228   N     0.27271   0.76953   0.05698   0.00000  Uiso   1.00
N229   N     0.87037   0.26103   0.78959   0.00000  Uiso   1.00
N230   N     0.57155   0.33862   0.40540   0.00000  Uiso   1.00
C231   C     0.74936   0.79450   0.16872   0.00000  Uiso   1.00
C232   C     0.74928   0.70201   0.13574   0.00000  Uiso   1.00
C233   C     0.76140   0.60787   0.16578   0.00000  Uiso   1.00
C234   C     0.75902   0.53307   0.12717   0.00000  Uiso   1.00
C235   C     0.76097   0.38660   0.08600   0.00000  Uiso   1.00
C236   C     0.64357   0.84603   0.05850   0.00000  Uiso   1.00
C237   C     0.56681   0.87299   0.02360   0.00000  Uiso   1.00
C238   C     0.47545   0.91945   0.91998   0.00000  Uiso   1.00
C239   C     0.31331   0.99664   0.75893   0.00000  Uiso   1.00
C240   C     0.83758   0.85915   0.22831   0.00000  Uiso   1.00
C241   C     0.92393   0.89716   0.33618   0.00000  Uiso   1.00
C242   C     0.99591   0.95468   0.37552   0.00000  Uiso   1.00
C243   C     0.13499   0.05224   0.47812   0.00000  Uiso   1.00
C244   C     0.72360   0.82907   0.04674   0.00000  Uiso   1.00
C245   C     0.73529   0.72079   0.06949   0.00000  Uiso   1.00
C246   C     0.73290   0.64612   0.03083   0.00000  Uiso   1.00
C247   C     0.74501   0.55188   0.06081   0.00000  Uiso   1.00
C248   C     0.62957   0.86481   0.99225   0.00000  Uiso   1.00
C249   C     0.53831   0.91124   0.88865   0.00000  Uiso   1.00
C250   C     0.46143   0.93826   0.85361   0.00000  Uiso   1.00
C251   C     0.82359   0.87793   0.16206   0.00000  Uiso   1.00
C252   C     0.89543   0.93541   0.20123   0.00000  Uiso   1.00
C253   C     0.98189   0.97350   0.30915   0.00000  Uiso   1.00
H254   H     0.76025   0.77988   0.22029   0.00000  Uiso   1.00
H255   H     0.77222   0.59336   0.21704   0.00000  Uiso   1.00
H256   H     0.57767   0.85846   0.07490   0.00000  Uiso   1.00
H257   H     0.93473   0.88262   0.38743   0.00000  Uiso   1.00
H258   H     0.77927   0.39485   0.18419   0.00000  Uiso   1.00
H259   H     0.36907   0.95385   0.88448   0.00000  Uiso   1.00
H260   H     0.12202   0.00479   0.54352   0.00000  Uiso   1.00
H261   H     0.71271   0.84370   0.99516   0.00000  Uiso   1.00
H262   H     0.72207   0.66067   0.97956   0.00000  Uiso   1.00
H263   H     0.52751   0.92577   0.83741   0.00000  Uiso   1.00
H264   H     0.88458   0.94992   0.14994   0.00000  Uiso   1.00
H265   H     0.73856   0.44948   0.99144   0.00000  Uiso   1.00
H266   H     0.32836   0.00849   0.69173   0.00000  Uiso   1.00
H267   H     0.08131   0.05942   0.35076   0.00000  Uiso   1.00
O268   O     0.76589   0.30062   0.08158   0.00000  Uiso   1.00
O269   O     0.22774   0.03402   0.68839   0.00000  Uiso   1.00
O270   O     0.21559   0.10085   0.55303   0.00000  Uiso   1.00
N271   N     0.76843   0.43283   0.14098   0.00000  Uiso   1.00
N272   N     0.38491   0.95544   0.86077   0.00000  Uiso   1.00
N273   N     0.08883   0.00309   0.47690   0.00000  Uiso   1.00
N274   N     0.74652   0.46222   0.03727   0.00000  Uiso   1.00
N275   N     0.36300   0.98484   0.75705   0.00000  Uiso   1.00
N276   N     0.06693   0.03249   0.37318   0.00000  Uiso   1.00
C277   C     0.73557   0.57366   0.30337   0.00000  Uiso   1.00
C278   C     0.73252   0.48843   0.33861   0.00000  Uiso   1.00
C279   C     0.71657   0.39149   0.31061   0.00000  Uiso   1.00
C280   C     0.71654   0.32447   0.35110   0.00000  Uiso   1.00
C281   C     0.70952   0.18771   0.39581   0.00000  Uiso   1.00
C282   C     0.84342   0.62387   0.41232   0.00000  Uiso   1.00
C283   C     0.92071   0.64083   0.44627   0.00000  Uiso   1.00
C284   C     0.01402   0.68784   0.54881   0.00000  Uiso   1.00
C285   C     0.17914   0.76143   0.70791   0.00000  Uiso   1.00
C286   C     0.65017   0.64524   0.24260   0.00000  Uiso   1.00
C287   C     0.56498   0.68019   0.13386   0.00000  Uiso   1.00
C288   C     0.49560   0.74521   0.09351   0.00000  Uiso   1.00
C289   C     0.36067   0.85198   0.98909   0.00000  Uiso   1.00
C290   C     0.76386   0.62703   0.42508   0.00000  Uiso   1.00
C291   C     0.74789   0.51742   0.40472   0.00000  Uiso   1.00
C292   C     0.74788   0.45053   0.44527   0.00000  Uiso   1.00
C293   C     0.73193   0.35351   0.41732   0.00000  Uiso   1.00
C294   C     0.85879   0.65286   0.47843   0.00000  Uiso   1.00
C295   C     0.95201   0.69987   0.58093   0.00000  Uiso   1.00
C296   C     0.02942   0.71688   0.61504   0.00000  Uiso   1.00
C297   C     0.66553   0.67423   0.30871   0.00000  Uiso   1.00
C298   C     0.59628   0.73922   0.26852   0.00000  Uiso   1.00
C299   C     0.51100   0.77426   0.15974   0.00000  Uiso   1.00
H300   H     0.72361   0.55109   0.25191   0.00000  Uiso   1.00
H301   H     0.70469   0.36908   0.25945   0.00000  Uiso   1.00
H302   H     0.90879   0.61839   0.39509   0.00000  Uiso   1.00
H303   H     0.55311   0.65774   0.08273   0.00000  Uiso   1.00
H304   H     0.69053   0.18007   0.29701   0.00000  Uiso   1.00
H305   H     0.12086   0.70578   0.58299   0.00000  Uiso   1.00
H306   H     0.37085   0.78876   0.92430   0.00000  Uiso   1.00
H307   H     0.77583   0.64960   0.47655   0.00000  Uiso   1.00
H308   H     0.75977   0.47298   0.49642   0.00000  Uiso   1.00
H309   H     0.96387   0.72230   0.63206   0.00000  Uiso   1.00
H310   H     0.60820   0.76164   0.31970   0.00000  Uiso   1.00
H311   H     0.73524   0.26440   0.48935   0.00000  Uiso   1.00
H312   H     0.16557   0.79012   0.77533   0.00000  Uiso   1.00
H313   H     0.41556   0.87309   0.11664   0.00000  Uiso   1.00
O314   O     0.70142   0.10427   0.40223   0.00000  Uiso   1.00
O315   O     0.26598   0.79400   0.77741   0.00000  Uiso   1.00
O316   O     0.28199   0.90286   0.91323   0.00000  Uiso   1.00
N317   N     0.70324   0.22415   0.33953   0.00000  Uiso   1.00
N318   N     0.10558   0.71565   0.60691   0.00000  Uiso   1.00
N319   N     0.40440   0.79325   0.99111   0.00000  Uiso   1.00
N320   N     0.72729   0.26953   0.44302   0.00000  Uiso   1.00
N321   N     0.12963   0.76103   0.71041   0.00000  Uiso   1.00
N322   N     0.42845   0.83862   0.09460   0.00000  Uiso   1.00
C323   C     0.25064   0.29450   0.33128   0.00000  Uiso   1.00
C324   C     0.25072   0.20201   0.36426   0.00000  Uiso   1.00
C325   C     0.23860   0.10787   0.33422   0.00000  Uiso   1.00
C326   C     0.24098   0.03307   0.37283   0.00000  Uiso   1.00
C327   C     0.23903   0.88660   0.41400   0.00000  Uiso   1.00
C328   C     0.35643   0.34603   0.44150   0.00000  Uiso   1.00
C329   C     0.43319   0.37299   0.47640   0.00000  Uiso   1.00
C330   C     0.52455   0.41945   0.58002   0.00000  Uiso   1.00
C331   C     0.68669   0.49664   0.74107   0.00000  Uiso   1.00
C332   C     0.16242   0.35915   0.27169   0.00000  Uiso   1.00
C333   C     0.07607   0.39716   0.16382   0.00000  Uiso   1.00
C334   C     0.00409   0.45468   0.12448   0.00000  Uiso   1.00
C335   C     0.86501   0.55224   0.02188   0.00000  Uiso   1.00
C336   C     0.27640   0.32907   0.45326   0.00000  Uiso   1.00
C337   C     0.26471   0.22079   0.43051   0.00000  Uiso   1.00
C338   C     0.26710   0.14612   0.46917   0.00000  Uiso   1.00
C339   C     0.25499   0.05188   0.43919   0.00000  Uiso   1.00
C340   C     0.37043   0.36481   0.50775   0.00000  Uiso   1.00
C341   C     0.46169   0.41124   0.61135   0.00000  Uiso   1.00
C342   C     0.53857   0.43826   0.64639   0.00000  Uiso   1.00
C343   C     0.17641   0.37793   0.33794   0.00000  Uiso   1.00
C344   C     0.10457   0.43541   0.29877   0.00000  Uiso   1.00
C345   C     0.01811   0.47350   0.19085   0.00000  Uiso   1.00
H346   H     0.23975   0.27988   0.27971   0.00000  Uiso   1.00
H347   H     0.22778   0.09336   0.28296   0.00000  Uiso   1.00
H348   H     0.42233   0.35846   0.42510   0.00000  Uiso   1.00
H349   H     0.06527   0.38262   0.11257   0.00000  Uiso   1.00
H350   H     0.22073   0.89485   0.31581   0.00000  Uiso   1.00
H351   H     0.63093   0.45385   0.61552   0.00000  Uiso   1.00
H352   H     0.87798   0.50479   0.95648   0.00000  Uiso   1.00
H353   H     0.28729   0.34370   0.50484   0.00000  Uiso   1.00
H354   H     0.27793   0.16067   0.52044   0.00000  Uiso   1.00
H355   H     0.47249   0.42577   0.66259   0.00000  Uiso   1.00
H356   H     0.11542   0.44992   0.35006   0.00000  Uiso   1.00
H357   H     0.26144   0.94948   0.50856   0.00000  Uiso   1.00
H358   H     0.67164   0.50849   0.80827   0.00000  Uiso   1.00
H359   H     0.91869   0.55942   0.14924   0.00000  Uiso   1.00
O360   O     0.23411   0.80062   0.41842   0.00000  Uiso   1.00
O361   O     0.77226   0.53402   0.81161   0.00000  Uiso   1.00
O362   O     0.78441   0.60085   0.94697   0.00000  Uiso   1.00
N363   N     0.23157   0.93283   0.35902   0.00000  Uiso   1.00
N364   N     0.61509   0.45544   0.63923   0.00000  Uiso   1.00
N365   N     0.91117   0.50309   0.02310   0.00000  Uiso   1.00
N366   N     0.25348   0.96222   0.46273   0.00000  Uiso   1.00
N367   N     0.63700   0.48484   0.74295   0.00000  Uiso   1.00
N368   N     0.93307   0.53249   0.12682   0.00000  Uiso   1.00
