data_job_03297
_audit_creation_date              2018-12-19
_audit_creation_method            'Materials Studio'
_symmetry_space_group_name_H-M    'P1'
_symmetry_Int_Tables_number       1
_symmetry_cell_setting            triclinic
loop_
_symmetry_equiv_pos_as_xyz
  x,y,z
_cell_length_a                    24.3683
_cell_length_b                    24.3683
_cell_length_c                    12.6760
_cell_angle_alpha                 90.0000
_cell_angle_beta                  90.0000
_cell_angle_gamma                 90.0000
loop_
_atom_site_label
_atom_site_type_symbol
_atom_site_fract_x
_atom_site_fract_y
_atom_site_fract_z
_atom_site_U_iso_or_equiv
_atom_site_adp_type
_atom_site_occupancy
C1     C     0.94081   0.77398   0.08962   0.00000  Uiso   1.00
C2     C     0.90121   0.79506   0.00575   0.00000  Uiso   1.00
C3     C     0.91596   0.81914   0.91067   0.00000  Uiso   1.00
C4     C     0.87361   0.83571   0.84467   0.00000  Uiso   1.00
C5     C     0.82050   0.86957   0.71018   0.00000  Uiso   1.00
C6     C     0.92573   0.80381   0.19131   0.00000  Uiso   1.00
C7     C     0.96109   0.83524   0.25226   0.00000  Uiso   1.00
C8     C     0.93939   0.85917   0.34248   0.00000  Uiso   1.00
C9     C     0.92436   0.90660   0.49613   0.00000  Uiso   1.00
C10    C     0.92598   0.71389   0.10735   0.00000  Uiso   1.00
C11    C     0.96157   0.66970   0.09772   0.00000  Uiso   1.00
C12    C     0.94008   0.61792   0.11727   0.00000  Uiso   1.00
C13    C     0.92545   0.52572   0.14054   0.00000  Uiso   1.00
C14    C     0.83938   0.76059   0.14149   0.00000  Uiso   1.00
C15    C     0.84612   0.78779   0.03393   0.00000  Uiso   1.00
C16    C     0.80374   0.80432   0.96805   0.00000  Uiso   1.00
C17    C     0.81842   0.82842   0.87289   0.00000  Uiso   1.00
C18    C     0.87064   0.79654   0.21949   0.00000  Uiso   1.00
C19    C     0.84888   0.82043   0.30965   0.00000  Uiso   1.00
C20    C     0.88420   0.85189   0.37071   0.00000  Uiso   1.00
C21    C     0.87089   0.70661   0.13552   0.00000  Uiso   1.00
C22    C     0.84935   0.65489   0.15510   0.00000  Uiso   1.00
C23    C     0.88489   0.61063   0.14550   0.00000  Uiso   1.00
H24    H     0.98370   0.77964   0.06769   0.00000  Uiso   1.00
H25    H     0.95860   0.82476   0.88890   0.00000  Uiso   1.00
H26    H     0.00373   0.84086   0.23044   0.00000  Uiso   1.00
H27    H     0.00420   0.67535   0.07592   0.00000  Uiso   1.00
H28    H     0.90647   0.87160   0.70312   0.00000  Uiso   1.00
H29    H     0.00163   0.90553   0.42330   0.00000  Uiso   1.00
H30    H     0.00263   0.55651   0.09746   0.00000  Uiso   1.00
H31    H     0.79649   0.75492   0.16343   0.00000  Uiso   1.00
H32    H     0.76111   0.79869   0.98988   0.00000  Uiso   1.00
H33    H     0.80624   0.81479   0.33143   0.00000  Uiso   1.00
H34    H     0.80671   0.64927   0.17690   0.00000  Uiso   1.00
H35    H     0.74618   0.85044   0.78508   0.00000  Uiso   1.00
H36    H     0.84135   0.88437   0.50526   0.00000  Uiso   1.00
H37    H     0.84234   0.53535   0.17942   0.00000  Uiso   1.00
O38    O     0.80643   0.89027   0.62822   0.00000  Uiso   1.00
O39    O     0.93129   0.93477   0.57308   0.00000  Uiso   1.00
O40    O     0.93259   0.47687   0.14558   0.00000  Uiso   1.00
N41    N     0.87360   0.86060   0.74621   0.00000  Uiso   1.00
N42    N     0.96257   0.89233   0.41953   0.00000  Uiso   1.00
N43    N     0.96350   0.56603   0.11492   0.00000  Uiso   1.00
N44    N     0.78735   0.84922   0.79031   0.00000  Uiso   1.00
N45    N     0.87632   0.88094   0.46363   0.00000  Uiso   1.00
N46    N     0.87726   0.55464   0.15903   0.00000  Uiso   1.00
C47    C     0.05919   0.22602   0.08962   0.00000  Uiso   1.00
C48    C     0.09879   0.20494   0.00575   0.00000  Uiso   1.00
C49    C     0.08404   0.18086   0.91067   0.00000  Uiso   1.00
C50    C     0.12639   0.16429   0.84467   0.00000  Uiso   1.00
C51    C     0.17950   0.13043   0.71018   0.00000  Uiso   1.00
C52    C     0.07427   0.19619   0.19131   0.00000  Uiso   1.00
C53    C     0.03891   0.16476   0.25226   0.00000  Uiso   1.00
C54    C     0.06061   0.14083   0.34248   0.00000  Uiso   1.00
C55    C     0.07564   0.09340   0.49613   0.00000  Uiso   1.00
C56    C     0.07402   0.28611   0.10735   0.00000  Uiso   1.00
C57    C     0.03843   0.33030   0.09772   0.00000  Uiso   1.00
C58    C     0.05992   0.38208   0.11727   0.00000  Uiso   1.00
C59    C     0.07455   0.47428   0.14054   0.00000  Uiso   1.00
C60    C     0.16062   0.23941   0.14149   0.00000  Uiso   1.00
C61    C     0.15388   0.21221   0.03393   0.00000  Uiso   1.00
C62    C     0.19626   0.19568   0.96805   0.00000  Uiso   1.00
C63    C     0.18158   0.17158   0.87289   0.00000  Uiso   1.00
C64    C     0.12936   0.20346   0.21949   0.00000  Uiso   1.00
C65    C     0.15112   0.17957   0.30965   0.00000  Uiso   1.00
C66    C     0.11580   0.14811   0.37071   0.00000  Uiso   1.00
C67    C     0.12911   0.29339   0.13552   0.00000  Uiso   1.00
C68    C     0.15065   0.34511   0.15510   0.00000  Uiso   1.00
C69    C     0.11511   0.38937   0.14550   0.00000  Uiso   1.00
H70    H     0.01630   0.22036   0.06769   0.00000  Uiso   1.00
H71    H     0.04140   0.17524   0.88890   0.00000  Uiso   1.00
H72    H     0.99627   0.15914   0.23044   0.00000  Uiso   1.00
H73    H     0.99580   0.32465   0.07592   0.00000  Uiso   1.00
H74    H     0.09353   0.12840   0.70312   0.00000  Uiso   1.00
H75    H     0.99837   0.09447   0.42330   0.00000  Uiso   1.00
H76    H     0.99737   0.44349   0.09746   0.00000  Uiso   1.00
H77    H     0.20351   0.24508   0.16343   0.00000  Uiso   1.00
H78    H     0.23889   0.20131   0.98988   0.00000  Uiso   1.00
H79    H     0.19376   0.18521   0.33143   0.00000  Uiso   1.00
H80    H     0.19329   0.35073   0.17690   0.00000  Uiso   1.00
H81    H     0.25382   0.14956   0.78508   0.00000  Uiso   1.00
H82    H     0.15865   0.11563   0.50526   0.00000  Uiso   1.00
H83    H     0.15766   0.46465   0.17942   0.00000  Uiso   1.00
O84    O     0.19357   0.10973   0.62822   0.00000  Uiso   1.00
O85    O     0.06871   0.06523   0.57308   0.00000  Uiso   1.00
O86    O     0.06741   0.52313   0.14558   0.00000  Uiso   1.00
N87    N     0.12640   0.13940   0.74621   0.00000  Uiso   1.00
N88    N     0.03743   0.10767   0.41953   0.00000  Uiso   1.00
N89    N     0.03650   0.43397   0.11492   0.00000  Uiso   1.00
N90    N     0.21265   0.15078   0.79031   0.00000  Uiso   1.00
N91    N     0.12368   0.11906   0.46363   0.00000  Uiso   1.00
N92    N     0.12274   0.44536   0.15903   0.00000  Uiso   1.00
C93    C     0.77398   0.05919   0.91038   0.00000  Uiso   1.00
C94    C     0.79506   0.09879   0.99425   0.00000  Uiso   1.00
C95    C     0.81914   0.08404   0.08933   0.00000  Uiso   1.00
C96    C     0.83571   0.12639   0.15533   0.00000  Uiso   1.00
C97    C     0.86957   0.17950   0.28982   0.00000  Uiso   1.00
C98    C     0.80381   0.07427   0.80869   0.00000  Uiso   1.00
C99    C     0.83524   0.03891   0.74774   0.00000  Uiso   1.00
C100   C     0.85917   0.06061   0.65752   0.00000  Uiso   1.00
C101   C     0.90660   0.07564   0.50387   0.00000  Uiso   1.00
C102   C     0.71389   0.07402   0.89265   0.00000  Uiso   1.00
C103   C     0.66970   0.03843   0.90228   0.00000  Uiso   1.00
C104   C     0.61792   0.05992   0.88273   0.00000  Uiso   1.00
C105   C     0.52572   0.07455   0.85946   0.00000  Uiso   1.00
C106   C     0.76059   0.16062   0.85851   0.00000  Uiso   1.00
C107   C     0.78779   0.15388   0.96607   0.00000  Uiso   1.00
C108   C     0.80432   0.19626   0.03195   0.00000  Uiso   1.00
C109   C     0.82842   0.18158   0.12711   0.00000  Uiso   1.00
C110   C     0.79654   0.12936   0.78051   0.00000  Uiso   1.00
C111   C     0.82043   0.15112   0.69035   0.00000  Uiso   1.00
C112   C     0.85189   0.11580   0.62929   0.00000  Uiso   1.00
C113   C     0.70661   0.12911   0.86448   0.00000  Uiso   1.00
C114   C     0.65489   0.15065   0.84490   0.00000  Uiso   1.00
C115   C     0.61063   0.11511   0.85450   0.00000  Uiso   1.00
H116   H     0.77964   0.01630   0.93231   0.00000  Uiso   1.00
H117   H     0.82476   0.04140   0.11110   0.00000  Uiso   1.00
H118   H     0.84086   0.99627   0.76956   0.00000  Uiso   1.00
H119   H     0.67535   0.99580   0.92408   0.00000  Uiso   1.00
H120   H     0.87160   0.09353   0.29688   0.00000  Uiso   1.00
H121   H     0.90553   0.99837   0.57670   0.00000  Uiso   1.00
H122   H     0.55651   0.99737   0.90254   0.00000  Uiso   1.00
H123   H     0.75492   0.20351   0.83657   0.00000  Uiso   1.00
H124   H     0.79869   0.23889   0.01012   0.00000  Uiso   1.00
H125   H     0.81479   0.19376   0.66857   0.00000  Uiso   1.00
H126   H     0.64927   0.19329   0.82310   0.00000  Uiso   1.00
H127   H     0.85044   0.25382   0.21492   0.00000  Uiso   1.00
H128   H     0.88437   0.15865   0.49474   0.00000  Uiso   1.00
H129   H     0.53535   0.15766   0.82058   0.00000  Uiso   1.00
O130   O     0.89027   0.19357   0.37178   0.00000  Uiso   1.00
O131   O     0.93477   0.06871   0.42692   0.00000  Uiso   1.00
O132   O     0.47687   0.06741   0.85442   0.00000  Uiso   1.00
N133   N     0.86060   0.12640   0.25379   0.00000  Uiso   1.00
N134   N     0.89233   0.03743   0.58047   0.00000  Uiso   1.00
N135   N     0.56603   0.03650   0.88508   0.00000  Uiso   1.00
N136   N     0.84922   0.21265   0.20969   0.00000  Uiso   1.00
N137   N     0.88094   0.12368   0.53637   0.00000  Uiso   1.00
N138   N     0.55464   0.12274   0.84097   0.00000  Uiso   1.00
C139   C     0.22602   0.94081   0.91038   0.00000  Uiso   1.00
C140   C     0.20494   0.90121   0.99425   0.00000  Uiso   1.00
C141   C     0.18086   0.91596   0.08933   0.00000  Uiso   1.00
C142   C     0.16429   0.87361   0.15533   0.00000  Uiso   1.00
C143   C     0.13043   0.82050   0.28982   0.00000  Uiso   1.00
C144   C     0.19619   0.92573   0.80869   0.00000  Uiso   1.00
C145   C     0.16476   0.96109   0.74774   0.00000  Uiso   1.00
C146   C     0.14083   0.93939   0.65752   0.00000  Uiso   1.00
C147   C     0.09340   0.92436   0.50387   0.00000  Uiso   1.00
C148   C     0.28611   0.92598   0.89265   0.00000  Uiso   1.00
C149   C     0.33030   0.96157   0.90228   0.00000  Uiso   1.00
C150   C     0.38208   0.94008   0.88273   0.00000  Uiso   1.00
C151   C     0.47428   0.92545   0.85946   0.00000  Uiso   1.00
C152   C     0.23941   0.83938   0.85851   0.00000  Uiso   1.00
C153   C     0.21221   0.84612   0.96607   0.00000  Uiso   1.00
C154   C     0.19568   0.80374   0.03195   0.00000  Uiso   1.00
C155   C     0.17158   0.81842   0.12711   0.00000  Uiso   1.00
C156   C     0.20346   0.87064   0.78051   0.00000  Uiso   1.00
C157   C     0.17957   0.84888   0.69035   0.00000  Uiso   1.00
C158   C     0.14811   0.88420   0.62929   0.00000  Uiso   1.00
C159   C     0.29339   0.87089   0.86448   0.00000  Uiso   1.00
C160   C     0.34511   0.84935   0.84490   0.00000  Uiso   1.00
C161   C     0.38937   0.88489   0.85450   0.00000  Uiso   1.00
H162   H     0.22036   0.98370   0.93231   0.00000  Uiso   1.00
H163   H     0.17524   0.95860   0.11110   0.00000  Uiso   1.00
H164   H     0.15914   0.00373   0.76956   0.00000  Uiso   1.00
H165   H     0.32465   0.00420   0.92408   0.00000  Uiso   1.00
H166   H     0.12840   0.90647   0.29688   0.00000  Uiso   1.00
H167   H     0.09447   0.00163   0.57670   0.00000  Uiso   1.00
H168   H     0.44349   0.00263   0.90254   0.00000  Uiso   1.00
H169   H     0.24508   0.79649   0.83657   0.00000  Uiso   1.00
H170   H     0.20131   0.76111   0.01012   0.00000  Uiso   1.00
H171   H     0.18521   0.80624   0.66857   0.00000  Uiso   1.00
H172   H     0.35073   0.80671   0.82310   0.00000  Uiso   1.00
H173   H     0.14956   0.74618   0.21492   0.00000  Uiso   1.00
H174   H     0.11563   0.84135   0.49474   0.00000  Uiso   1.00
H175   H     0.46465   0.84234   0.82058   0.00000  Uiso   1.00
O176   O     0.10973   0.80643   0.37178   0.00000  Uiso   1.00
O177   O     0.06523   0.93129   0.42692   0.00000  Uiso   1.00
O178   O     0.52313   0.93259   0.85442   0.00000  Uiso   1.00
N179   N     0.13940   0.87360   0.25379   0.00000  Uiso   1.00
N180   N     0.10767   0.96257   0.58047   0.00000  Uiso   1.00
N181   N     0.43397   0.96350   0.88508   0.00000  Uiso   1.00
N182   N     0.15078   0.78735   0.20969   0.00000  Uiso   1.00
N183   N     0.11906   0.87632   0.53637   0.00000  Uiso   1.00
N184   N     0.44536   0.87726   0.84097   0.00000  Uiso   1.00
C185   C     0.44081   0.72602   0.08962   0.00000  Uiso   1.00
C186   C     0.40121   0.70494   0.00575   0.00000  Uiso   1.00
C187   C     0.41596   0.68086   0.91067   0.00000  Uiso   1.00
C188   C     0.37361   0.66429   0.84467   0.00000  Uiso   1.00
C189   C     0.32050   0.63043   0.71018   0.00000  Uiso   1.00
C190   C     0.42573   0.69619   0.19131   0.00000  Uiso   1.00
C191   C     0.46109   0.66476   0.25226   0.00000  Uiso   1.00
C192   C     0.43939   0.64083   0.34248   0.00000  Uiso   1.00
C193   C     0.42436   0.59340   0.49613   0.00000  Uiso   1.00
C194   C     0.42598   0.78611   0.10735   0.00000  Uiso   1.00
C195   C     0.46157   0.83030   0.09772   0.00000  Uiso   1.00
C196   C     0.44008   0.88208   0.11727   0.00000  Uiso   1.00
C197   C     0.42545   0.97428   0.14054   0.00000  Uiso   1.00
C198   C     0.33938   0.73941   0.14149   0.00000  Uiso   1.00
C199   C     0.34612   0.71221   0.03393   0.00000  Uiso   1.00
C200   C     0.30374   0.69568   0.96805   0.00000  Uiso   1.00
C201   C     0.31842   0.67158   0.87289   0.00000  Uiso   1.00
C202   C     0.37064   0.70346   0.21949   0.00000  Uiso   1.00
C203   C     0.34888   0.67957   0.30965   0.00000  Uiso   1.00
C204   C     0.38420   0.64811   0.37071   0.00000  Uiso   1.00
C205   C     0.37089   0.79339   0.13552   0.00000  Uiso   1.00
C206   C     0.34935   0.84511   0.15510   0.00000  Uiso   1.00
C207   C     0.38489   0.88937   0.14550   0.00000  Uiso   1.00
H208   H     0.48370   0.72036   0.06769   0.00000  Uiso   1.00
H209   H     0.45860   0.67524   0.88890   0.00000  Uiso   1.00
H210   H     0.50373   0.65914   0.23044   0.00000  Uiso   1.00
H211   H     0.50420   0.82465   0.07592   0.00000  Uiso   1.00
H212   H     0.40647   0.62840   0.70312   0.00000  Uiso   1.00
H213   H     0.50163   0.59447   0.42330   0.00000  Uiso   1.00
H214   H     0.50263   0.94349   0.09746   0.00000  Uiso   1.00
H215   H     0.29649   0.74508   0.16343   0.00000  Uiso   1.00
H216   H     0.26111   0.70131   0.98988   0.00000  Uiso   1.00
H217   H     0.30624   0.68521   0.33143   0.00000  Uiso   1.00
H218   H     0.30671   0.85073   0.17690   0.00000  Uiso   1.00
H219   H     0.24618   0.64956   0.78508   0.00000  Uiso   1.00
H220   H     0.34135   0.61563   0.50526   0.00000  Uiso   1.00
H221   H     0.34234   0.96465   0.17942   0.00000  Uiso   1.00
O222   O     0.30643   0.60973   0.62822   0.00000  Uiso   1.00
O223   O     0.43129   0.56523   0.57308   0.00000  Uiso   1.00
O224   O     0.43259   0.02313   0.14558   0.00000  Uiso   1.00
N225   N     0.37360   0.63940   0.74621   0.00000  Uiso   1.00
N226   N     0.46257   0.60767   0.41953   0.00000  Uiso   1.00
N227   N     0.46350   0.93397   0.11492   0.00000  Uiso   1.00
N228   N     0.28735   0.65078   0.79031   0.00000  Uiso   1.00
N229   N     0.37632   0.61906   0.46363   0.00000  Uiso   1.00
N230   N     0.37726   0.94536   0.15903   0.00000  Uiso   1.00
C231   C     0.55919   0.27398   0.08962   0.00000  Uiso   1.00
C232   C     0.59879   0.29506   0.00575   0.00000  Uiso   1.00
C233   C     0.58404   0.31914   0.91067   0.00000  Uiso   1.00
C234   C     0.62639   0.33571   0.84467   0.00000  Uiso   1.00
C235   C     0.67950   0.36957   0.71018   0.00000  Uiso   1.00
C236   C     0.57427   0.30381   0.19131   0.00000  Uiso   1.00
C237   C     0.53891   0.33524   0.25226   0.00000  Uiso   1.00
C238   C     0.56061   0.35917   0.34248   0.00000  Uiso   1.00
C239   C     0.57564   0.40660   0.49613   0.00000  Uiso   1.00
C240   C     0.57402   0.21389   0.10735   0.00000  Uiso   1.00
C241   C     0.53843   0.16970   0.09772   0.00000  Uiso   1.00
C242   C     0.55992   0.11792   0.11727   0.00000  Uiso   1.00
C243   C     0.57455   0.02572   0.14054   0.00000  Uiso   1.00
C244   C     0.66062   0.26059   0.14149   0.00000  Uiso   1.00
C245   C     0.65388   0.28779   0.03393   0.00000  Uiso   1.00
C246   C     0.69626   0.30432   0.96805   0.00000  Uiso   1.00
C247   C     0.68158   0.32842   0.87289   0.00000  Uiso   1.00
C248   C     0.62936   0.29654   0.21949   0.00000  Uiso   1.00
C249   C     0.65112   0.32043   0.30965   0.00000  Uiso   1.00
C250   C     0.61580   0.35189   0.37071   0.00000  Uiso   1.00
C251   C     0.62911   0.20661   0.13552   0.00000  Uiso   1.00
C252   C     0.65065   0.15489   0.15510   0.00000  Uiso   1.00
C253   C     0.61511   0.11063   0.14550   0.00000  Uiso   1.00
H254   H     0.51630   0.27964   0.06769   0.00000  Uiso   1.00
H255   H     0.54140   0.32476   0.88890   0.00000  Uiso   1.00
H256   H     0.49627   0.34086   0.23044   0.00000  Uiso   1.00
H257   H     0.49580   0.17535   0.07592   0.00000  Uiso   1.00
H258   H     0.59353   0.37160   0.70312   0.00000  Uiso   1.00
H259   H     0.49837   0.40553   0.42330   0.00000  Uiso   1.00
H260   H     0.49737   0.05651   0.09746   0.00000  Uiso   1.00
H261   H     0.70351   0.25492   0.16343   0.00000  Uiso   1.00
H262   H     0.73889   0.29869   0.98988   0.00000  Uiso   1.00
H263   H     0.69376   0.31479   0.33143   0.00000  Uiso   1.00
H264   H     0.69329   0.14927   0.17690   0.00000  Uiso   1.00
H265   H     0.75382   0.35044   0.78508   0.00000  Uiso   1.00
H266   H     0.65865   0.38437   0.50526   0.00000  Uiso   1.00
H267   H     0.65766   0.03535   0.17942   0.00000  Uiso   1.00
O268   O     0.69357   0.39027   0.62822   0.00000  Uiso   1.00
O269   O     0.56871   0.43477   0.57308   0.00000  Uiso   1.00
O270   O     0.56741   0.97687   0.14558   0.00000  Uiso   1.00
N271   N     0.62640   0.36060   0.74621   0.00000  Uiso   1.00
N272   N     0.53743   0.39233   0.41953   0.00000  Uiso   1.00
N273   N     0.53650   0.06603   0.11492   0.00000  Uiso   1.00
N274   N     0.71265   0.34922   0.79031   0.00000  Uiso   1.00
N275   N     0.62368   0.38094   0.46363   0.00000  Uiso   1.00
N276   N     0.62274   0.05464   0.15903   0.00000  Uiso   1.00
C277   C     0.27398   0.44081   0.91038   0.00000  Uiso   1.00
C278   C     0.29506   0.40121   0.99425   0.00000  Uiso   1.00
C279   C     0.31914   0.41596   0.08933   0.00000  Uiso   1.00
C280   C     0.33571   0.37361   0.15533   0.00000  Uiso   1.00
C281   C     0.36957   0.32050   0.28982   0.00000  Uiso   1.00
C282   C     0.30381   0.42573   0.80869   0.00000  Uiso   1.00
C283   C     0.33524   0.46109   0.74774   0.00000  Uiso   1.00
C284   C     0.35917   0.43939   0.65752   0.00000  Uiso   1.00
C285   C     0.40660   0.42436   0.50387   0.00000  Uiso   1.00
C286   C     0.21389   0.42598   0.89265   0.00000  Uiso   1.00
C287   C     0.16970   0.46157   0.90228   0.00000  Uiso   1.00
C288   C     0.11792   0.44008   0.88273   0.00000  Uiso   1.00
C289   C     0.02572   0.42545   0.85946   0.00000  Uiso   1.00
C290   C     0.26059   0.33938   0.85851   0.00000  Uiso   1.00
C291   C     0.28779   0.34612   0.96607   0.00000  Uiso   1.00
C292   C     0.30432   0.30374   0.03195   0.00000  Uiso   1.00
C293   C     0.32842   0.31842   0.12711   0.00000  Uiso   1.00
C294   C     0.29654   0.37064   0.78051   0.00000  Uiso   1.00
C295   C     0.32043   0.34888   0.69035   0.00000  Uiso   1.00
C296   C     0.35189   0.38420   0.62929   0.00000  Uiso   1.00
C297   C     0.20661   0.37089   0.86448   0.00000  Uiso   1.00
C298   C     0.15489   0.34935   0.84490   0.00000  Uiso   1.00
C299   C     0.11063   0.38489   0.85450   0.00000  Uiso   1.00
H300   H     0.27964   0.48370   0.93231   0.00000  Uiso   1.00
H301   H     0.32476   0.45860   0.11110   0.00000  Uiso   1.00
H302   H     0.34086   0.50373   0.76956   0.00000  Uiso   1.00
H303   H     0.17535   0.50420   0.92408   0.00000  Uiso   1.00
H304   H     0.37160   0.40647   0.29688   0.00000  Uiso   1.00
H305   H     0.40553   0.50163   0.57670   0.00000  Uiso   1.00
H306   H     0.05651   0.50263   0.90254   0.00000  Uiso   1.00
H307   H     0.25492   0.29649   0.83657   0.00000  Uiso   1.00
H308   H     0.29869   0.26111   0.01012   0.00000  Uiso   1.00
H309   H     0.31479   0.30624   0.66857   0.00000  Uiso   1.00
H310   H     0.14927   0.30671   0.82310   0.00000  Uiso   1.00
H311   H     0.35044   0.24618   0.21492   0.00000  Uiso   1.00
H312   H     0.38437   0.34135   0.49474   0.00000  Uiso   1.00
H313   H     0.03535   0.34234   0.82058   0.00000  Uiso   1.00
O314   O     0.39027   0.30643   0.37178   0.00000  Uiso   1.00
O315   O     0.43477   0.43129   0.42692   0.00000  Uiso   1.00
O316   O     0.97687   0.43259   0.85442   0.00000  Uiso   1.00
N317   N     0.36060   0.37360   0.25379   0.00000  Uiso   1.00
N318   N     0.39233   0.46257   0.58047   0.00000  Uiso   1.00
N319   N     0.06603   0.46350   0.88508   0.00000  Uiso   1.00
N320   N     0.34922   0.28735   0.20969   0.00000  Uiso   1.00
N321   N     0.38094   0.37632   0.53637   0.00000  Uiso   1.00
N322   N     0.05464   0.37726   0.84097   0.00000  Uiso   1.00
C323   C     0.72602   0.55919   0.91038   0.00000  Uiso   1.00
C324   C     0.70494   0.59879   0.99425   0.00000  Uiso   1.00
C325   C     0.68086   0.58404   0.08933   0.00000  Uiso   1.00
C326   C     0.66429   0.62639   0.15533   0.00000  Uiso   1.00
C327   C     0.63043   0.67950   0.28982   0.00000  Uiso   1.00
C328   C     0.69619   0.57427   0.80869   0.00000  Uiso   1.00
C329   C     0.66476   0.53891   0.74774   0.00000  Uiso   1.00
C330   C     0.64083   0.56061   0.65752   0.00000  Uiso   1.00
C331   C     0.59340   0.57564   0.50387   0.00000  Uiso   1.00
C332   C     0.78611   0.57402   0.89265   0.00000  Uiso   1.00
C333   C     0.83030   0.53843   0.90228   0.00000  Uiso   1.00
C334   C     0.88208   0.55992   0.88273   0.00000  Uiso   1.00
C335   C     0.97428   0.57455   0.85946   0.00000  Uiso   1.00
C336   C     0.73941   0.66062   0.85851   0.00000  Uiso   1.00
C337   C     0.71221   0.65388   0.96607   0.00000  Uiso   1.00
C338   C     0.69568   0.69626   0.03195   0.00000  Uiso   1.00
C339   C     0.67158   0.68158   0.12711   0.00000  Uiso   1.00
C340   C     0.70346   0.62936   0.78051   0.00000  Uiso   1.00
C341   C     0.67957   0.65112   0.69035   0.00000  Uiso   1.00
C342   C     0.64811   0.61580   0.62929   0.00000  Uiso   1.00
C343   C     0.79339   0.62911   0.86448   0.00000  Uiso   1.00
C344   C     0.84511   0.65065   0.84490   0.00000  Uiso   1.00
C345   C     0.88937   0.61511   0.85450   0.00000  Uiso   1.00
H346   H     0.72036   0.51630   0.93231   0.00000  Uiso   1.00
H347   H     0.67524   0.54140   0.11110   0.00000  Uiso   1.00
H348   H     0.65914   0.49627   0.76956   0.00000  Uiso   1.00
H349   H     0.82465   0.49580   0.92408   0.00000  Uiso   1.00
H350   H     0.62840   0.59353   0.29688   0.00000  Uiso   1.00
H351   H     0.59447   0.49837   0.57670   0.00000  Uiso   1.00
H352   H     0.94349   0.49737   0.90254   0.00000  Uiso   1.00
H353   H     0.74508   0.70351   0.83657   0.00000  Uiso   1.00
H354   H     0.70131   0.73889   0.01012   0.00000  Uiso   1.00
H355   H     0.68521   0.69376   0.66857   0.00000  Uiso   1.00
H356   H     0.85073   0.69329   0.82310   0.00000  Uiso   1.00
H357   H     0.64956   0.75382   0.21492   0.00000  Uiso   1.00
H358   H     0.61563   0.65865   0.49474   0.00000  Uiso   1.00
H359   H     0.96465   0.65766   0.82058   0.00000  Uiso   1.00
O360   O     0.60973   0.69357   0.37178   0.00000  Uiso   1.00
O361   O     0.56523   0.56871   0.42692   0.00000  Uiso   1.00
O362   O     0.02313   0.56741   0.85442   0.00000  Uiso   1.00
N363   N     0.63940   0.62640   0.25379   0.00000  Uiso   1.00
N364   N     0.60767   0.53743   0.58047   0.00000  Uiso   1.00
N365   N     0.93397   0.53650   0.88508   0.00000  Uiso   1.00
N366   N     0.65078   0.71265   0.20969   0.00000  Uiso   1.00
N367   N     0.61906   0.62368   0.53637   0.00000  Uiso   1.00
N368   N     0.94536   0.62274   0.84097   0.00000  Uiso   1.00
