data_job_06318
_audit_creation_date              2018-12-19
_audit_creation_method            'Materials Studio'
_symmetry_space_group_name_H-M    'P1'
_symmetry_Int_Tables_number       1
_symmetry_cell_setting            triclinic
loop_
_symmetry_equiv_pos_as_xyz
  x,y,z
_cell_length_a                    16.5749
_cell_length_b                    16.1935
_cell_length_c                    15.2902
_cell_angle_alpha                 93.8486
_cell_angle_beta                  94.1771
_cell_angle_gamma                 93.0817
loop_
_atom_site_label
_atom_site_type_symbol
_atom_site_fract_x
_atom_site_fract_y
_atom_site_fract_z
_atom_site_U_iso_or_equiv
_atom_site_adp_type
_atom_site_occupancy
C1     C     0.27768   0.64214   0.12094   0.00000  Uiso   1.00
C2     C     0.35425   0.69591   0.11034   0.00000  Uiso   1.00
C3     C     0.35778   0.76862   0.06725   0.00000  Uiso   1.00
C4     C     0.43366   0.80872   0.06472   0.00000  Uiso   1.00
C5     C     0.54195   0.89699   0.04226   0.00000  Uiso   1.00
C6     C     0.29299   0.55559   0.08237   0.00000  Uiso   1.00
C7     C     0.24499   0.51032   0.01578   0.00000  Uiso   1.00
C8     C     0.26929   0.43230   0.98971   0.00000  Uiso   1.00
C9     C     0.28242   0.30270   0.92388   0.00000  Uiso   1.00
C10    C     0.27385   0.63512   0.21952   0.00000  Uiso   1.00
C11    C     0.20975   0.65670   0.26825   0.00000  Uiso   1.00
C12    C     0.21793   0.64561   0.35765   0.00000  Uiso   1.00
C13    C     0.20136   0.63949   0.50477   0.00000  Uiso   1.00
C14    C     0.40616   0.58408   0.19306   0.00000  Uiso   1.00
C15    C     0.42404   0.66437   0.14951   0.00000  Uiso   1.00
C16    C     0.49993   0.70438   0.14705   0.00000  Uiso   1.00
C17    C     0.50357   0.77713   0.10397   0.00000  Uiso   1.00
C18    C     0.36277   0.52405   0.12154   0.00000  Uiso   1.00
C19    C     0.38714   0.44608   0.09557   0.00000  Uiso   1.00
C20    C     0.33920   0.40070   0.02896   0.00000  Uiso   1.00
C21    C     0.34364   0.60359   0.25869   0.00000  Uiso   1.00
C22    C     0.35191   0.59246   0.34804   0.00000  Uiso   1.00
C23    C     0.28785   0.61402   0.39690   0.00000  Uiso   1.00
H24    H     0.22335   0.66669   0.09044   0.00000  Uiso   1.00
H25    H     0.30376   0.79300   0.03694   0.00000  Uiso   1.00
H26    H     0.19098   0.53474   0.98548   0.00000  Uiso   1.00
H27    H     0.15576   0.68110   0.23791   0.00000  Uiso   1.00
H28    H     0.42369   0.91911   0.99487   0.00000  Uiso   1.00
H29    H     0.18588   0.37455   0.88640   0.00000  Uiso   1.00
H30    H     0.11160   0.68317   0.41869   0.00000  Uiso   1.00
H31    H     0.46050   0.55952   0.22356   0.00000  Uiso   1.00
H32    H     0.55393   0.67996   0.17736   0.00000  Uiso   1.00
H33    H     0.44115   0.42169   0.12590   0.00000  Uiso   1.00
H34    H     0.40592   0.56805   0.37833   0.00000  Uiso   1.00
H35    H     0.62674   0.82736   0.10884   0.00000  Uiso   1.00
H36    H     0.38892   0.28279   0.00037   0.00000  Uiso   1.00
H37    H     0.31465   0.59142   0.53266   0.00000  Uiso   1.00
O38    O     0.58240   0.95438   0.01904   0.00000  Uiso   1.00
O39    O     0.27039   0.23993   0.87674   0.00000  Uiso   1.00
O40    O     0.17294   0.64484   0.57509   0.00000  Uiso   1.00
N41    N     0.45866   0.88100   0.02805   0.00000  Uiso   1.00
N42    N     0.23632   0.37187   0.92662   0.00000  Uiso   1.00
N43    N     0.16687   0.66039   0.42427   0.00000  Uiso   1.00
N44    N     0.56791   0.83163   0.08938   0.00000  Uiso   1.00
N45    N     0.34558   0.32250   0.98795   0.00000  Uiso   1.00
N46    N     0.27612   0.61101   0.48560   0.00000  Uiso   1.00
C47    C     0.12993   0.27681   0.64012   0.00000  Uiso   1.00
C48    C     0.11868   0.35537   0.69764   0.00000  Uiso   1.00
C49    C     0.07844   0.35933   0.77415   0.00000  Uiso   1.00
C50    C     0.07473   0.43710   0.81728   0.00000  Uiso   1.00
C51    C     0.05187   0.54825   0.91147   0.00000  Uiso   1.00
C52    C     0.09460   0.29229   0.54817   0.00000  Uiso   1.00
C53    C     0.03411   0.24320   0.49902   0.00000  Uiso   1.00
C54    C     0.01014   0.26787   0.41633   0.00000  Uiso   1.00
C55    C     0.94992   0.28105   0.27845   0.00000  Uiso   1.00
C56    C     0.22103   0.27261   0.63381   0.00000  Uiso   1.00
C57    C     0.26684   0.20698   0.65663   0.00000  Uiso   1.00
C58    C     0.34931   0.21508   0.64601   0.00000  Uiso   1.00
C59    C     0.48539   0.19771   0.64110   0.00000  Uiso   1.00
C60    C     0.19491   0.40789   0.58066   0.00000  Uiso   1.00
C61    C     0.15398   0.42656   0.66534   0.00000  Uiso   1.00
C62    C     0.15033   0.50435   0.70837   0.00000  Uiso   1.00
C63    C     0.11009   0.50843   0.78493   0.00000  Uiso   1.00
C64    C     0.12989   0.36348   0.51588   0.00000  Uiso   1.00
C65    C     0.10600   0.38822   0.43324   0.00000  Uiso   1.00
C66    C     0.04549   0.33919   0.38397   0.00000  Uiso   1.00
C67    C     0.25632   0.34381   0.60151   0.00000  Uiso   1.00
C68    C     0.33873   0.35201   0.59085   0.00000  Uiso   1.00
C69    C     0.38467   0.28640   0.61366   0.00000  Uiso   1.00
H70    H     0.10245   0.22138   0.66526   0.00000  Uiso   1.00
H71    H     0.05113   0.30422   0.79911   0.00000  Uiso   1.00
H72    H     0.00682   0.18810   0.52402   0.00000  Uiso   1.00
H73    H     0.23951   0.15190   0.68162   0.00000  Uiso   1.00
H74    H     0.00977   0.42746   0.93326   0.00000  Uiso   1.00
H75    H     0.91635   0.18261   0.35320   0.00000  Uiso   1.00
H76    H     0.40703   0.10625   0.68551   0.00000  Uiso   1.00
H77    H     0.22239   0.46332   0.55552   0.00000  Uiso   1.00
H78    H     0.17765   0.55943   0.68336   0.00000  Uiso   1.00
H79    H     0.13333   0.44332   0.40827   0.00000  Uiso   1.00
H80    H     0.36602   0.40711   0.56586   0.00000  Uiso   1.00
H81    H     0.11245   0.63460   0.83931   0.00000  Uiso   1.00
H82    H     0.01904   0.38975   0.25925   0.00000  Uiso   1.00
H83    H     0.50972   0.31339   0.59156   0.00000  Uiso   1.00
O84    O     0.02949   0.58989   0.97234   0.00000  Uiso   1.00
O85    O     0.90695   0.26865   0.21133   0.00000  Uiso   1.00
O86    O     0.55071   0.16848   0.64732   0.00000  Uiso   1.00
N87    N     0.04009   0.46302   0.89361   0.00000  Uiso   1.00
N88    N     0.95274   0.23410   0.35130   0.00000  Uiso   1.00
N89    N     0.41148   0.16271   0.66196   0.00000  Uiso   1.00
N90    N     0.09534   0.57448   0.84306   0.00000  Uiso   1.00
N91    N     0.00800   0.34556   0.30075   0.00000  Uiso   1.00
N92    N     0.46674   0.27417   0.61141   0.00000  Uiso   1.00
C93    C     0.64245   0.12748   0.27285   0.00000  Uiso   1.00
C94    C     0.69526   0.11609   0.35660   0.00000  Uiso   1.00
C95    C     0.76647   0.07473   0.36131   0.00000  Uiso   1.00
C96    C     0.80589   0.07108   0.44413   0.00000  Uiso   1.00
C97    C     0.89253   0.04781   0.56271   0.00000  Uiso   1.00
C98    C     0.55802   0.09163   0.28784   0.00000  Uiso   1.00
C99    C     0.51384   0.02970   0.23473   0.00000  Uiso   1.00
C100   C     0.43772   0.00547   0.25967   0.00000  Uiso   1.00
C101   C     0.31128   0.94427   0.27146   0.00000  Uiso   1.00
C102   C     0.63528   0.22069   0.26917   0.00000  Uiso   1.00
C103   C     0.65604   0.26729   0.20036   0.00000  Uiso   1.00
C104   C     0.64496   0.35172   0.20957   0.00000  Uiso   1.00
C105   C     0.63847   0.49091   0.19238   0.00000  Uiso   1.00
C106   C     0.58584   0.19456   0.41154   0.00000  Uiso   1.00
C107   C     0.66450   0.15252   0.43193   0.00000  Uiso   1.00
C108   C     0.70383   0.14894   0.51476   0.00000  Uiso   1.00
C109   C     0.77508   0.10758   0.51960   0.00000  Uiso   1.00
C110   C     0.52727   0.12806   0.36316   0.00000  Uiso   1.00
C111   C     0.45120   0.10392   0.38818   0.00000  Uiso   1.00
C112   C     0.40691   0.04197   0.33513   0.00000  Uiso   1.00
C113   C     0.60453   0.25713   0.34450   0.00000  Uiso   1.00
C114   C     0.59341   0.34150   0.35381   0.00000  Uiso   1.00
C115   C     0.61415   0.38822   0.28504   0.00000  Uiso   1.00
H116   H     0.66639   0.09912   0.21420   0.00000  Uiso   1.00
H117   H     0.79024   0.04654   0.30300   0.00000  Uiso   1.00
H118   H     0.53765   0.00153   0.17644   0.00000  Uiso   1.00
H119   H     0.67983   0.23908   0.14208   0.00000  Uiso   1.00
H120   H     0.91397   0.00428   0.43468   0.00000  Uiso   1.00
H121   H     0.38136   0.90940   0.16779   0.00000  Uiso   1.00
H122   H     0.68118   0.41032   0.09533   0.00000  Uiso   1.00
H123   H     0.56189   0.22292   0.47019   0.00000  Uiso   1.00
H124   H     0.68002   0.17714   0.57304   0.00000  Uiso   1.00
H125   H     0.42742   0.13213   0.44647   0.00000  Uiso   1.00
H126   H     0.56961   0.36967   0.41212   0.00000  Uiso   1.00
H127   H     0.82451   0.11028   0.65385   0.00000  Uiso   1.00
H128   H     0.29189   0.01540   0.38696   0.00000  Uiso   1.00
H129   H     0.59171   0.51631   0.31451   0.00000  Uiso   1.00
O130   O     0.94882   0.02490   0.60731   0.00000  Uiso   1.00
O131   O     0.25004   0.90043   0.25715   0.00000  Uiso   1.00
O132   O     0.64340   0.55762   0.16209   0.00000  Uiso   1.00
N133   N     0.87672   0.03553   0.47214   0.00000  Uiso   1.00
N134   N     0.37876   0.94681   0.22263   0.00000  Uiso   1.00
N135   N     0.65905   0.41512   0.15488   0.00000  Uiso   1.00
N136   N     0.82858   0.09257   0.59008   0.00000  Uiso   1.00
N137   N     0.33062   0.00384   0.34056   0.00000  Uiso   1.00
N138   N     0.61091   0.47216   0.27281   0.00000  Uiso   1.00
C139   C     0.72232   0.35786   0.87906   0.00000  Uiso   1.00
C140   C     0.64575   0.30409   0.88966   0.00000  Uiso   1.00
C141   C     0.64222   0.23138   0.93275   0.00000  Uiso   1.00
C142   C     0.56634   0.19128   0.93528   0.00000  Uiso   1.00
C143   C     0.45805   0.10301   0.95774   0.00000  Uiso   1.00
C144   C     0.70701   0.44441   0.91763   0.00000  Uiso   1.00
C145   C     0.75501   0.48968   0.98422   0.00000  Uiso   1.00
C146   C     0.73071   0.56770   0.01029   0.00000  Uiso   1.00
C147   C     0.71758   0.69730   0.07612   0.00000  Uiso   1.00
C148   C     0.72615   0.36488   0.78048   0.00000  Uiso   1.00
C149   C     0.79025   0.34331   0.73175   0.00000  Uiso   1.00
C150   C     0.78207   0.35439   0.64235   0.00000  Uiso   1.00
C151   C     0.79864   0.36051   0.49523   0.00000  Uiso   1.00
C152   C     0.59384   0.41592   0.80694   0.00000  Uiso   1.00
C153   C     0.57596   0.33563   0.85049   0.00000  Uiso   1.00
C154   C     0.50007   0.29562   0.85295   0.00000  Uiso   1.00
C155   C     0.49643   0.22287   0.89603   0.00000  Uiso   1.00
C156   C     0.63723   0.47595   0.87846   0.00000  Uiso   1.00
C157   C     0.61286   0.55392   0.90443   0.00000  Uiso   1.00
C158   C     0.66080   0.59930   0.97104   0.00000  Uiso   1.00
C159   C     0.65636   0.39641   0.74131   0.00000  Uiso   1.00
C160   C     0.64809   0.40754   0.65196   0.00000  Uiso   1.00
C161   C     0.71215   0.38598   0.60310   0.00000  Uiso   1.00
H162   H     0.77665   0.33331   0.90956   0.00000  Uiso   1.00
H163   H     0.69624   0.20700   0.96306   0.00000  Uiso   1.00
H164   H     0.80902   0.46526   0.01452   0.00000  Uiso   1.00
H165   H     0.84424   0.31890   0.76209   0.00000  Uiso   1.00
H166   H     0.57631   0.08089   0.00513   0.00000  Uiso   1.00
H167   H     0.81412   0.62545   0.11361   0.00000  Uiso   1.00
H168   H     0.88840   0.31683   0.58131   0.00000  Uiso   1.00
H169   H     0.53950   0.44048   0.77645   0.00000  Uiso   1.00
H170   H     0.44607   0.32004   0.82264   0.00000  Uiso   1.00
H171   H     0.55885   0.57831   0.87410   0.00000  Uiso   1.00
H172   H     0.59408   0.43195   0.62167   0.00000  Uiso   1.00
H173   H     0.37326   0.17264   0.89116   0.00000  Uiso   1.00
H174   H     0.61108   0.71721   0.99963   0.00000  Uiso   1.00
H175   H     0.68535   0.40858   0.46734   0.00000  Uiso   1.00
O176   O     0.41760   0.04562   0.98096   0.00000  Uiso   1.00
O177   O     0.72961   0.76007   0.12326   0.00000  Uiso   1.00
O178   O     0.82706   0.35516   0.42491   0.00000  Uiso   1.00
N179   N     0.54134   0.11900   0.97195   0.00000  Uiso   1.00
N180   N     0.76368   0.62813   0.07338   0.00000  Uiso   1.00
N181   N     0.83313   0.33962   0.57573   0.00000  Uiso   1.00
N182   N     0.43209   0.16837   0.91062   0.00000  Uiso   1.00
N183   N     0.65442   0.67750   0.01205   0.00000  Uiso   1.00
N184   N     0.72388   0.38899   0.51441   0.00000  Uiso   1.00
C185   C     0.87007   0.72319   0.35988   0.00000  Uiso   1.00
C186   C     0.88132   0.64463   0.30236   0.00000  Uiso   1.00
C187   C     0.92156   0.64067   0.22585   0.00000  Uiso   1.00
C188   C     0.92527   0.56290   0.18272   0.00000  Uiso   1.00
C189   C     0.94813   0.45175   0.08853   0.00000  Uiso   1.00
C190   C     0.90540   0.70772   0.45183   0.00000  Uiso   1.00
C191   C     0.96589   0.75680   0.50098   0.00000  Uiso   1.00
C192   C     0.98986   0.73213   0.58367   0.00000  Uiso   1.00
C193   C     0.05008   0.71895   0.72155   0.00000  Uiso   1.00
C194   C     0.77897   0.72739   0.36619   0.00000  Uiso   1.00
C195   C     0.73316   0.79302   0.34337   0.00000  Uiso   1.00
C196   C     0.65069   0.78492   0.35399   0.00000  Uiso   1.00
C197   C     0.51461   0.80229   0.35890   0.00000  Uiso   1.00
C198   C     0.80509   0.59211   0.41934   0.00000  Uiso   1.00
C199   C     0.84602   0.57344   0.33466   0.00000  Uiso   1.00
C200   C     0.84967   0.49565   0.29163   0.00000  Uiso   1.00
C201   C     0.88991   0.49157   0.21507   0.00000  Uiso   1.00
C202   C     0.87011   0.63652   0.48412   0.00000  Uiso   1.00
C203   C     0.89400   0.61178   0.56676   0.00000  Uiso   1.00
C204   C     0.95451   0.66081   0.61603   0.00000  Uiso   1.00
C205   C     0.74368   0.65619   0.39849   0.00000  Uiso   1.00
C206   C     0.66127   0.64800   0.40915   0.00000  Uiso   1.00
C207   C     0.61533   0.71360   0.38634   0.00000  Uiso   1.00
H208   H     0.89755   0.77862   0.33474   0.00000  Uiso   1.00
H209   H     0.94887   0.69578   0.20089   0.00000  Uiso   1.00
H210   H     0.99318   0.81190   0.47598   0.00000  Uiso   1.00
H211   H     0.76049   0.84810   0.31838   0.00000  Uiso   1.00
H212   H     0.99023   0.57254   0.06674   0.00000  Uiso   1.00
H213   H     0.08365   0.81739   0.64680   0.00000  Uiso   1.00
H214   H     0.59297   0.89375   0.31449   0.00000  Uiso   1.00
H215   H     0.77761   0.53668   0.44448   0.00000  Uiso   1.00
H216   H     0.82235   0.44057   0.31664   0.00000  Uiso   1.00
H217   H     0.86667   0.55668   0.59174   0.00000  Uiso   1.00
H218   H     0.63397   0.59289   0.43414   0.00000  Uiso   1.00
H219   H     0.88755   0.36540   0.16069   0.00000  Uiso   1.00
H220   H     0.98096   0.61026   0.74075   0.00000  Uiso   1.00
H221   H     0.49028   0.68661   0.40844   0.00000  Uiso   1.00
O222   O     0.97051   0.41011   0.02766   0.00000  Uiso   1.00
O223   O     0.09305   0.73135   0.78867   0.00000  Uiso   1.00
O224   O     0.44930   0.83153   0.35268   0.00000  Uiso   1.00
N225   N     0.95991   0.53698   0.10639   0.00000  Uiso   1.00
N226   N     0.04726   0.76590   0.64870   0.00000  Uiso   1.00
N227   N     0.58852   0.83729   0.33804   0.00000  Uiso   1.00
N228   N     0.90466   0.42552   0.15694   0.00000  Uiso   1.00
N229   N     0.99200   0.65444   0.69925   0.00000  Uiso   1.00
N230   N     0.53326   0.72583   0.38859   0.00000  Uiso   1.00
C231   C     0.35755   0.87252   0.72715   0.00000  Uiso   1.00
C232   C     0.30474   0.88391   0.64341   0.00000  Uiso   1.00
C233   C     0.23353   0.92527   0.63869   0.00000  Uiso   1.00
C234   C     0.19411   0.92892   0.55587   0.00000  Uiso   1.00
C235   C     0.10747   0.95219   0.43729   0.00000  Uiso   1.00
C236   C     0.44198   0.90837   0.71216   0.00000  Uiso   1.00
C237   C     0.48616   0.97030   0.76527   0.00000  Uiso   1.00
C238   C     0.56228   0.99453   0.74033   0.00000  Uiso   1.00
C239   C     0.68872   0.05573   0.72854   0.00000  Uiso   1.00
C240   C     0.36472   0.77931   0.73083   0.00000  Uiso   1.00
C241   C     0.34396   0.73271   0.79964   0.00000  Uiso   1.00
C242   C     0.35504   0.64828   0.79043   0.00000  Uiso   1.00
C243   C     0.36153   0.50909   0.80762   0.00000  Uiso   1.00
C244   C     0.41416   0.80544   0.58846   0.00000  Uiso   1.00
C245   C     0.33550   0.84748   0.56807   0.00000  Uiso   1.00
C246   C     0.29617   0.85106   0.48524   0.00000  Uiso   1.00
C247   C     0.22492   0.89242   0.48040   0.00000  Uiso   1.00
C248   C     0.47273   0.87194   0.63684   0.00000  Uiso   1.00
C249   C     0.54880   0.89608   0.61182   0.00000  Uiso   1.00
C250   C     0.59309   0.95803   0.66487   0.00000  Uiso   1.00
C251   C     0.39547   0.74287   0.65550   0.00000  Uiso   1.00
C252   C     0.40659   0.65850   0.64619   0.00000  Uiso   1.00
C253   C     0.38585   0.61178   0.71496   0.00000  Uiso   1.00
H254   H     0.33361   0.90088   0.78580   0.00000  Uiso   1.00
H255   H     0.20976   0.95346   0.69700   0.00000  Uiso   1.00
H256   H     0.46235   0.99847   0.82356   0.00000  Uiso   1.00
H257   H     0.32017   0.76092   0.85792   0.00000  Uiso   1.00
H258   H     0.08603   0.99572   0.56532   0.00000  Uiso   1.00
H259   H     0.61864   0.09060   0.83221   0.00000  Uiso   1.00
H260   H     0.31882   0.58968   0.90467   0.00000  Uiso   1.00
H261   H     0.43811   0.77708   0.52981   0.00000  Uiso   1.00
H262   H     0.31998   0.82286   0.42696   0.00000  Uiso   1.00
H263   H     0.57258   0.86787   0.55353   0.00000  Uiso   1.00
H264   H     0.43039   0.63033   0.58788   0.00000  Uiso   1.00
H265   H     0.17549   0.88972   0.34615   0.00000  Uiso   1.00
H266   H     0.70811   0.98460   0.61304   0.00000  Uiso   1.00
H267   H     0.40828   0.48369   0.68549   0.00000  Uiso   1.00
O268   O     0.05118   0.97510   0.39269   0.00000  Uiso   1.00
O269   O     0.74996   0.09957   0.74285   0.00000  Uiso   1.00
O270   O     0.35660   0.44238   0.83791   0.00000  Uiso   1.00
N271   N     0.12328   0.96447   0.52786   0.00000  Uiso   1.00
N272   N     0.62124   0.05320   0.77737   0.00000  Uiso   1.00
N273   N     0.34095   0.58488   0.84512   0.00000  Uiso   1.00
N274   N     0.17142   0.90744   0.40992   0.00000  Uiso   1.00
N275   N     0.66938   0.99616   0.65944   0.00000  Uiso   1.00
N276   N     0.38909   0.52785   0.72719   0.00000  Uiso   1.00
