data_job_06335
_audit_creation_date              2018-12-19
_audit_creation_method            'Materials Studio'
_symmetry_space_group_name_H-M    'P1'
_symmetry_Int_Tables_number       1
_symmetry_cell_setting            triclinic
loop_
_symmetry_equiv_pos_as_xyz
  x,y,z
_cell_length_a                    16.4711
_cell_length_b                    16.0933
_cell_length_c                    14.8845
_cell_angle_alpha                 95.1512
_cell_angle_beta                  95.2029
_cell_angle_gamma                 92.7778
loop_
_atom_site_label
_atom_site_type_symbol
_atom_site_fract_x
_atom_site_fract_y
_atom_site_fract_z
_atom_site_U_iso_or_equiv
_atom_site_adp_type
_atom_site_occupancy
C1     C     0.62682   0.11573   0.64731   0.00000  Uiso   1.00
C2     C     0.60841   0.16741   0.56766   0.00000  Uiso   1.00
C3     C     0.53741   0.15987   0.50905   0.00000  Uiso   1.00
C4     C     0.53232   0.21293   0.44042   0.00000  Uiso   1.00
C5     C     0.49407   0.28426   0.31818   0.00000  Uiso   1.00
C6     C     0.70675   0.07522   0.63152   0.00000  Uiso   1.00
C7     C     0.71844   0.99016   0.62660   0.00000  Uiso   1.00
C8     C     0.79614   0.96562   0.61173   0.00000  Uiso   1.00
C9     C     0.91058   0.89382   0.58870   0.00000  Uiso   1.00
C10    C     0.64564   0.17831   0.73065   0.00000  Uiso   1.00
C11    C     0.60596   0.17993   0.80911   0.00000  Uiso   1.00
C12    C     0.63223   0.24218   0.87772   0.00000  Uiso   1.00
C13    C     0.65178   0.33045   0.00861   0.00000  Uiso   1.00
C14    C     0.74405   0.22337   0.62968   0.00000  Uiso   1.00
C15    C     0.67209   0.22588   0.55809   0.00000  Uiso   1.00
C16    C     0.66711   0.27897   0.48954   0.00000  Uiso   1.00
C17    C     0.59611   0.27151   0.43083   0.00000  Uiso   1.00
C18    C     0.77043   0.13368   0.62194   0.00000  Uiso   1.00
C19    C     0.84814   0.10926   0.60709   0.00000  Uiso   1.00
C20    C     0.85993   0.02419   0.60214   0.00000  Uiso   1.00
C21    C     0.70932   0.23678   0.72108   0.00000  Uiso   1.00
C22    C     0.73566   0.29903   0.78959   0.00000  Uiso   1.00
C23    C     0.69602   0.30075   0.86813   0.00000  Uiso   1.00
H24    H     0.57725   0.07020   0.65476   0.00000  Uiso   1.00
H25    H     0.48815   0.11461   0.51647   0.00000  Uiso   1.00
H26    H     0.66915   0.94493   0.63402   0.00000  Uiso   1.00
H27    H     0.55669   0.13468   0.81649   0.00000  Uiso   1.00
H28    H     0.41745   0.18961   0.35891   0.00000  Uiso   1.00
H29    H     0.79911   0.83183   0.60679   0.00000  Uiso   1.00
H30    H     0.56196   0.23194   0.99158   0.00000  Uiso   1.00
H31    H     0.79363   0.26889   0.62222   0.00000  Uiso   1.00
H32    H     0.71639   0.32421   0.48214   0.00000  Uiso   1.00
H33    H     0.89740   0.15452   0.59968   0.00000  Uiso   1.00
H34    H     0.78493   0.34427   0.78216   0.00000  Uiso   1.00
H35    H     0.60271   0.35972   0.33104   0.00000  Uiso   1.00
H36    H     0.98437   0.00194   0.57892   0.00000  Uiso   1.00
H37    H     0.74721   0.40205   0.96371   0.00000  Uiso   1.00
O38    O     0.45538   0.30745   0.25340   0.00000  Uiso   1.00
O39    O     0.95611   0.83806   0.57862   0.00000  Uiso   1.00
O40    O     0.64496   0.36300   0.08344   0.00000  Uiso   1.00
N41    N     0.47164   0.22206   0.37159   0.00000  Uiso   1.00
N42    N     0.82847   0.88756   0.60332   0.00000  Uiso   1.00
N43    N     0.60677   0.26162   0.96308   0.00000  Uiso   1.00
N44    N     0.57133   0.31360   0.35659   0.00000  Uiso   1.00
N45    N     0.92815   0.97910   0.58833   0.00000  Uiso   1.00
N46    N     0.70645   0.35316   0.94808   0.00000  Uiso   1.00
C47    C     0.65266   0.62395   0.10556   0.00000  Uiso   1.00
C48    C     0.58044   0.60655   0.15973   0.00000  Uiso   1.00
C49    C     0.52962   0.53431   0.14884   0.00000  Uiso   1.00
C50    C     0.46696   0.53046   0.20501   0.00000  Uiso   1.00
C51    C     0.35654   0.49341   0.27925   0.00000  Uiso   1.00
C52    C     0.63660   0.70532   0.06360   0.00000  Uiso   1.00
C53    C     0.63300   0.71613   0.97189   0.00000  Uiso   1.00
C54    C     0.61763   0.79544   0.94715   0.00000  Uiso   1.00
C55    C     0.59444   0.91175   0.87216   0.00000  Uiso   1.00
C56    C     0.72660   0.64334   0.17498   0.00000  Uiso   1.00
C57    C     0.79868   0.60205   0.17690   0.00000  Uiso   1.00
C58    C     0.85909   0.62919   0.24592   0.00000  Uiso   1.00
C59    C     0.97564   0.64926   0.34385   0.00000  Uiso   1.00
C60    C     0.63175   0.74559   0.22469   0.00000  Uiso   1.00
C61    C     0.56909   0.67262   0.22443   0.00000  Uiso   1.00
C62    C     0.50649   0.66889   0.28064   0.00000  Uiso   1.00
C63    C     0.45559   0.59665   0.26984   0.00000  Uiso   1.00
C64    C     0.62524   0.77139   0.12830   0.00000  Uiso   1.00
C65    C     0.60988   0.85071   0.10369   0.00000  Uiso   1.00
C66    C     0.60625   0.86163   0.01197   0.00000  Uiso   1.00
C67    C     0.71524   0.70941   0.23969   0.00000  Uiso   1.00
C68    C     0.77555   0.73663   0.30871   0.00000  Uiso   1.00
C69    C     0.84772   0.69538   0.31074   0.00000  Uiso   1.00
H70    H     0.66150   0.57252   0.05518   0.00000  Uiso   1.00
H71    H     0.53842   0.48319   0.09875   0.00000  Uiso   1.00
H72    H     0.64180   0.66499   0.92184   0.00000  Uiso   1.00
H73    H     0.80745   0.55092   0.12682   0.00000  Uiso   1.00
H74    H     0.39695   0.41331   0.17557   0.00000  Uiso   1.00
H75    H     0.61495   0.79664   0.80254   0.00000  Uiso   1.00
H76    H     0.96426   0.55611   0.23477   0.00000  Uiso   1.00
H77    H     0.62291   0.79703   0.27507   0.00000  Uiso   1.00
H78    H     0.49772   0.72003   0.33071   0.00000  Uiso   1.00
H79    H     0.60110   0.90182   0.15379   0.00000  Uiso   1.00
H80    H     0.76675   0.78776   0.35877   0.00000  Uiso   1.00
H81    H     0.36391   0.60554   0.36383   0.00000  Uiso   1.00
H82    H     0.58191   0.98887   0.99079   0.00000  Uiso   1.00
H83    H     0.93122   0.74834   0.42303   0.00000  Uiso   1.00
O84    O     0.29876   0.45472   0.30231   0.00000  Uiso   1.00
O85    O     0.58478   0.95765   0.81291   0.00000  Uiso   1.00
O86    O     0.04306   0.64207   0.38000   0.00000  Uiso   1.00
N87    N     0.40637   0.46911   0.21225   0.00000  Uiso   1.00
N88    N     0.61017   0.82750   0.86349   0.00000  Uiso   1.00
N89    N     0.93675   0.60264   0.26758   0.00000  Uiso   1.00
N90    N     0.38859   0.57254   0.31356   0.00000  Uiso   1.00
N91    N     0.59239   0.93094   0.96479   0.00000  Uiso   1.00
N92    N     0.91898   0.70608   0.36888   0.00000  Uiso   1.00
C93    C     0.11696   0.65182   0.61611   0.00000  Uiso   1.00
C94    C     0.16831   0.57718   0.59626   0.00000  Uiso   1.00
C95    C     0.16097   0.52426   0.51668   0.00000  Uiso   1.00
C96    C     0.21367   0.45958   0.51177   0.00000  Uiso   1.00
C97    C     0.28457   0.34538   0.46999   0.00000  Uiso   1.00
C98    C     0.07834   0.63690   0.70301   0.00000  Uiso   1.00
C99    C     0.99536   0.63420   0.71319   0.00000  Uiso   1.00
C100   C     0.97232   0.61980   0.79815   0.00000  Uiso   1.00
C101   C     0.90354   0.59838   0.92212   0.00000  Uiso   1.00
C102   C     0.17729   0.72713   0.64005   0.00000  Uiso   1.00
C103   C     0.17749   0.80031   0.59732   0.00000  Uiso   1.00
C104   C     0.23775   0.86189   0.62928   0.00000  Uiso   1.00
C105   C     0.32261   0.98057   0.65550   0.00000  Uiso   1.00
C106   C     0.22359   0.63106   0.74888   0.00000  Uiso   1.00
C107   C     0.22623   0.56591   0.66838   0.00000  Uiso   1.00
C108   C     0.27895   0.50130   0.66358   0.00000  Uiso   1.00
C109   C     0.27169   0.44828   0.58401   0.00000  Uiso   1.00
C110   C     0.13626   0.62563   0.77513   0.00000  Uiso   1.00
C111   C     0.11334   0.61124   0.86009   0.00000  Uiso   1.00
C112   C     0.03034   0.60851   0.87039   0.00000  Uiso   1.00
C113   C     0.23521   0.71586   0.71217   0.00000  Uiso   1.00
C114   C     0.29548   0.77735   0.74421   0.00000  Uiso   1.00
C115   C     0.29577   0.85060   0.70153   0.00000  Uiso   1.00
H116   H     0.07186   0.66059   0.55997   0.00000  Uiso   1.00
H117   H     0.11614   0.53300   0.46089   0.00000  Uiso   1.00
H118   H     0.95055   0.64293   0.65738   0.00000  Uiso   1.00
H119   H     0.13266   0.80901   0.54152   0.00000  Uiso   1.00
H120   H     0.19074   0.38655   0.38286   0.00000  Uiso   1.00
H121   H     0.84160   0.61837   0.79716   0.00000  Uiso   1.00
H122   H     0.22562   0.96860   0.55285   0.00000  Uiso   1.00
H123   H     0.26869   0.62229   0.80503   0.00000  Uiso   1.00
H124   H     0.32377   0.49259   0.71940   0.00000  Uiso   1.00
H125   H     0.15817   0.60252   0.91588   0.00000  Uiso   1.00
H126   H     0.34029   0.76860   0.80002   0.00000  Uiso   1.00
H127   H     0.35926   0.35374   0.59267   0.00000  Uiso   1.00
H128   H     0.01011   0.58558   0.00698   0.00000  Uiso   1.00
H129   H     0.39413   0.93579   0.76266   0.00000  Uiso   1.00
O130   O     0.30767   0.28550   0.42702   0.00000  Uiso   1.00
O131   O     0.84960   0.58967   0.97058   0.00000  Uiso   1.00
O132   O     0.35342   0.04914   0.65004   0.00000  Uiso   1.00
N133   N     0.22286   0.39664   0.44399   0.00000  Uiso   1.00
N134   N     0.89642   0.61337   0.83133   0.00000  Uiso   1.00
N135   N     0.25544   0.94080   0.60293   0.00000  Uiso   1.00
N136   N     0.31354   0.37899   0.55688   0.00000  Uiso   1.00
N137   N     0.98710   0.59572   0.94423   0.00000  Uiso   1.00
N138   N     0.34611   0.92315   0.71583   0.00000  Uiso   1.00
C139   C     0.37318   0.88427   0.35269   0.00000  Uiso   1.00
C140   C     0.39159   0.83259   0.43234   0.00000  Uiso   1.00
C141   C     0.46259   0.84013   0.49095   0.00000  Uiso   1.00
C142   C     0.46768   0.78707   0.55958   0.00000  Uiso   1.00
C143   C     0.50593   0.71574   0.68182   0.00000  Uiso   1.00
C144   C     0.29325   0.92478   0.36848   0.00000  Uiso   1.00
C145   C     0.28156   0.00984   0.37340   0.00000  Uiso   1.00
C146   C     0.20386   0.03438   0.38827   0.00000  Uiso   1.00
C147   C     0.08942   0.10618   0.41130   0.00000  Uiso   1.00
C148   C     0.35436   0.82169   0.26935   0.00000  Uiso   1.00
C149   C     0.39404   0.82007   0.19089   0.00000  Uiso   1.00
C150   C     0.36777   0.75782   0.12228   0.00000  Uiso   1.00
C151   C     0.34822   0.66955   0.99139   0.00000  Uiso   1.00
C152   C     0.25595   0.77663   0.37032   0.00000  Uiso   1.00
C153   C     0.32791   0.77412   0.44191   0.00000  Uiso   1.00
C154   C     0.33289   0.72103   0.51046   0.00000  Uiso   1.00
C155   C     0.40389   0.72849   0.56917   0.00000  Uiso   1.00
C156   C     0.22957   0.86632   0.37806   0.00000  Uiso   1.00
C157   C     0.15186   0.89074   0.39291   0.00000  Uiso   1.00
C158   C     0.14007   0.97581   0.39786   0.00000  Uiso   1.00
C159   C     0.29068   0.76322   0.27892   0.00000  Uiso   1.00
C160   C     0.26434   0.70097   0.21041   0.00000  Uiso   1.00
C161   C     0.30398   0.69925   0.13187   0.00000  Uiso   1.00
H162   H     0.42275   0.92980   0.34524   0.00000  Uiso   1.00
H163   H     0.51185   0.88539   0.48353   0.00000  Uiso   1.00
H164   H     0.33085   0.05507   0.36598   0.00000  Uiso   1.00
H165   H     0.44331   0.86532   0.18351   0.00000  Uiso   1.00
H166   H     0.58255   0.81039   0.64109   0.00000  Uiso   1.00
H167   H     0.20089   0.16817   0.39321   0.00000  Uiso   1.00
H168   H     0.43804   0.76806   0.00842   0.00000  Uiso   1.00
H169   H     0.20637   0.73111   0.37778   0.00000  Uiso   1.00
H170   H     0.28361   0.67579   0.51786   0.00000  Uiso   1.00
H171   H     0.10260   0.84548   0.40032   0.00000  Uiso   1.00
H172   H     0.21507   0.65573   0.21784   0.00000  Uiso   1.00
H173   H     0.39729   0.64028   0.66896   0.00000  Uiso   1.00
H174   H     0.01563   0.99806   0.42108   0.00000  Uiso   1.00
H175   H     0.25279   0.59794   0.03629   0.00000  Uiso   1.00
O176   O     0.54462   0.69255   0.74660   0.00000  Uiso   1.00
O177   O     0.04389   0.16194   0.42138   0.00000  Uiso   1.00
O178   O     0.35504   0.63700   0.91656   0.00000  Uiso   1.00
N179   N     0.52836   0.77794   0.62841   0.00000  Uiso   1.00
N180   N     0.17153   0.11244   0.39668   0.00000  Uiso   1.00
N181   N     0.39323   0.73838   0.03692   0.00000  Uiso   1.00
N182   N     0.42867   0.68640   0.64341   0.00000  Uiso   1.00
N183   N     0.07185   0.02090   0.41167   0.00000  Uiso   1.00
N184   N     0.29355   0.64684   0.05192   0.00000  Uiso   1.00
C185   C     0.34734   0.37605   0.89444   0.00000  Uiso   1.00
C186   C     0.41956   0.39345   0.84027   0.00000  Uiso   1.00
C187   C     0.47038   0.46569   0.85116   0.00000  Uiso   1.00
C188   C     0.53304   0.46954   0.79499   0.00000  Uiso   1.00
C189   C     0.64346   0.50659   0.72075   0.00000  Uiso   1.00
C190   C     0.36340   0.29468   0.93640   0.00000  Uiso   1.00
C191   C     0.36700   0.28387   0.02811   0.00000  Uiso   1.00
C192   C     0.38237   0.20456   0.05285   0.00000  Uiso   1.00
C193   C     0.40556   0.08825   0.12784   0.00000  Uiso   1.00
C194   C     0.27340   0.35666   0.82502   0.00000  Uiso   1.00
C195   C     0.20131   0.39795   0.82310   0.00000  Uiso   1.00
C196   C     0.14091   0.37081   0.75409   0.00000  Uiso   1.00
C197   C     0.02436   0.35074   0.65615   0.00000  Uiso   1.00
C198   C     0.36825   0.25441   0.77531   0.00000  Uiso   1.00
C199   C     0.43091   0.32738   0.77557   0.00000  Uiso   1.00
C200   C     0.49351   0.33111   0.71936   0.00000  Uiso   1.00
C201   C     0.54441   0.40335   0.73016   0.00000  Uiso   1.00
C202   C     0.37476   0.22861   0.87170   0.00000  Uiso   1.00
C203   C     0.39012   0.14929   0.89631   0.00000  Uiso   1.00
C204   C     0.39375   0.13837   0.98803   0.00000  Uiso   1.00
C205   C     0.28476   0.29059   0.76031   0.00000  Uiso   1.00
C206   C     0.22445   0.26337   0.69129   0.00000  Uiso   1.00
C207   C     0.15228   0.30462   0.68927   0.00000  Uiso   1.00
H208   H     0.33850   0.42748   0.94482   0.00000  Uiso   1.00
H209   H     0.46158   0.51681   0.90125   0.00000  Uiso   1.00
H210   H     0.35820   0.33501   0.07816   0.00000  Uiso   1.00
H211   H     0.19255   0.44908   0.87318   0.00000  Uiso   1.00
H212   H     0.60305   0.58669   0.82443   0.00000  Uiso   1.00
H213   H     0.38505   0.20335   0.19746   0.00000  Uiso   1.00
H214   H     0.03574   0.44389   0.76523   0.00000  Uiso   1.00
H215   H     0.37709   0.20297   0.72493   0.00000  Uiso   1.00
H216   H     0.50228   0.27997   0.66929   0.00000  Uiso   1.00
H217   H     0.39890   0.09817   0.84621   0.00000  Uiso   1.00
H218   H     0.23325   0.21224   0.64123   0.00000  Uiso   1.00
H219   H     0.63609   0.39446   0.63617   0.00000  Uiso   1.00
H220   H     0.41809   0.01113   0.00921   0.00000  Uiso   1.00
H221   H     0.06878   0.25166   0.57697   0.00000  Uiso   1.00
O222   O     0.70124   0.54527   0.69769   0.00000  Uiso   1.00
O223   O     0.41522   0.04235   0.18709   0.00000  Uiso   1.00
O224   O     0.95694   0.35793   0.62000   0.00000  Uiso   1.00
N225   N     0.59363   0.53089   0.78775   0.00000  Uiso   1.00
N226   N     0.38983   0.17250   0.13651   0.00000  Uiso   1.00
N227   N     0.06325   0.39736   0.73242   0.00000  Uiso   1.00
N228   N     0.61141   0.42745   0.68644   0.00000  Uiso   1.00
N229   N     0.40761   0.06906   0.03521   0.00000  Uiso   1.00
N230   N     0.08102   0.29392   0.63112   0.00000  Uiso   1.00
C231   C     0.88304   0.34818   0.38389   0.00000  Uiso   1.00
C232   C     0.83169   0.42282   0.40374   0.00000  Uiso   1.00
C233   C     0.83903   0.47574   0.48332   0.00000  Uiso   1.00
C234   C     0.78633   0.54042   0.48823   0.00000  Uiso   1.00
C235   C     0.71543   0.65462   0.53001   0.00000  Uiso   1.00
C236   C     0.92166   0.36310   0.29699   0.00000  Uiso   1.00
C237   C     0.00464   0.36580   0.28681   0.00000  Uiso   1.00
C238   C     0.02768   0.38020   0.20185   0.00000  Uiso   1.00
C239   C     0.09646   0.40162   0.07788   0.00000  Uiso   1.00
C240   C     0.82271   0.27287   0.35995   0.00000  Uiso   1.00
C241   C     0.82251   0.19969   0.40268   0.00000  Uiso   1.00
C242   C     0.76225   0.13811   0.37072   0.00000  Uiso   1.00
C243   C     0.67739   0.01943   0.34450   0.00000  Uiso   1.00
C244   C     0.77641   0.36894   0.25112   0.00000  Uiso   1.00
C245   C     0.77377   0.43409   0.33162   0.00000  Uiso   1.00
C246   C     0.72105   0.49870   0.33642   0.00000  Uiso   1.00
C247   C     0.72831   0.55172   0.41599   0.00000  Uiso   1.00
C248   C     0.86374   0.37437   0.22487   0.00000  Uiso   1.00
C249   C     0.88666   0.38876   0.13991   0.00000  Uiso   1.00
C250   C     0.96966   0.39149   0.12961   0.00000  Uiso   1.00
C251   C     0.76479   0.28414   0.28783   0.00000  Uiso   1.00
C252   C     0.70452   0.22265   0.25579   0.00000  Uiso   1.00
C253   C     0.70423   0.14940   0.29847   0.00000  Uiso   1.00
H254   H     0.92814   0.33941   0.44003   0.00000  Uiso   1.00
H255   H     0.88386   0.46700   0.53911   0.00000  Uiso   1.00
H256   H     0.04945   0.35707   0.34262   0.00000  Uiso   1.00
H257   H     0.86734   0.19099   0.45848   0.00000  Uiso   1.00
H258   H     0.80926   0.61345   0.61714   0.00000  Uiso   1.00
H259   H     0.15840   0.38163   0.20284   0.00000  Uiso   1.00
H260   H     0.77438   0.03140   0.44715   0.00000  Uiso   1.00
H261   H     0.73131   0.37771   0.19497   0.00000  Uiso   1.00
H262   H     0.67623   0.50741   0.28060   0.00000  Uiso   1.00
H263   H     0.84183   0.39748   0.08412   0.00000  Uiso   1.00
H264   H     0.65971   0.23140   0.19998   0.00000  Uiso   1.00
H265   H     0.64074   0.64626   0.40733   0.00000  Uiso   1.00
H266   H     0.98989   0.41442   0.99302   0.00000  Uiso   1.00
H267   H     0.60587   0.06421   0.23734   0.00000  Uiso   1.00
O268   O     0.69233   0.71450   0.57298   0.00000  Uiso   1.00
O269   O     0.15040   0.41033   0.02942   0.00000  Uiso   1.00
O270   O     0.64658   0.95086   0.34996   0.00000  Uiso   1.00
N271   N     0.77714   0.60336   0.55601   0.00000  Uiso   1.00
N272   N     0.10358   0.38663   0.16867   0.00000  Uiso   1.00
N273   N     0.74457   0.05920   0.39707   0.00000  Uiso   1.00
N274   N     0.68646   0.62101   0.44312   0.00000  Uiso   1.00
N275   N     0.01290   0.40428   0.05577   0.00000  Uiso   1.00
N276   N     0.65389   0.07685   0.28417   0.00000  Uiso   1.00
