data_job_06016
_audit_creation_date              2018-12-19
_audit_creation_method            'Materials Studio'
_symmetry_space_group_name_H-M    'P1'
_symmetry_Int_Tables_number       1
_symmetry_cell_setting            triclinic
loop_
_symmetry_equiv_pos_as_xyz
  x,y,z
_cell_length_a                    12.4968
_cell_length_b                    19.0646
_cell_length_c                    19.3872
_cell_angle_alpha                 115.6920
_cell_angle_beta                  76.5198
_cell_angle_gamma                 79.8354
loop_
_atom_site_label
_atom_site_type_symbol
_atom_site_fract_x
_atom_site_fract_y
_atom_site_fract_z
_atom_site_U_iso_or_equiv
_atom_site_adp_type
_atom_site_occupancy
C1     C     0.29461   0.13117   0.35070   0.00000  Uiso   1.00
C2     C     0.26246   0.17711   0.44325   0.00000  Uiso   1.00
C3     C     0.20533   0.26055   0.49460   0.00000  Uiso   1.00
C4     C     0.18393   0.29083   0.57748   0.00000  Uiso   1.00
C5     C     0.12882   0.36999   0.71658   0.00000  Uiso   1.00
C6     C     0.42538   0.08875   0.31555   0.00000  Uiso   1.00
C7     C     0.50522   0.09790   0.25952   0.00000  Uiso   1.00
C8     C     0.62097   0.05379   0.23490   0.00000  Uiso   1.00
C9     C     0.81877   0.99573   0.17569   0.00000  Uiso   1.00
C10    C     0.23957   0.06281   0.33158   0.00000  Uiso   1.00
C11    C     0.16320   0.05012   0.28901   0.00000  Uiso   1.00
C12    C     0.12253   0.98415   0.27786   0.00000  Uiso   1.00
C13    C     0.03184   0.88581   0.24354   0.00000  Uiso   1.00
C14    C     0.35820   0.03657   0.40658   0.00000  Uiso   1.00
C15    C     0.29701   0.12573   0.47361   0.00000  Uiso   1.00
C16    C     0.27568   0.15589   0.55643   0.00000  Uiso   1.00
C17    C     0.21853   0.23936   0.60789   0.00000  Uiso   1.00
C18    C     0.45992   0.03737   0.34590   0.00000  Uiso   1.00
C19    C     0.57557   0.99324   0.32135   0.00000  Uiso   1.00
C20    C     0.65557   0.00232   0.26531   0.00000  Uiso   1.00
C21    C     0.27411   0.01142   0.36194   0.00000  Uiso   1.00
C22    C     0.23355   0.94546   0.35085   0.00000  Uiso   1.00
C23    C     0.15713   0.93268   0.30827   0.00000  Uiso   1.00
H24    H     0.26773   0.17117   0.32706   0.00000  Uiso   1.00
H25    H     0.17863   0.30029   0.47108   0.00000  Uiso   1.00
H26    H     0.47847   0.13766   0.23604   0.00000  Uiso   1.00
H27    H     0.13650   0.08989   0.26553   0.00000  Uiso   1.00
H28    H     0.09511   0.42080   0.64414   0.00000  Uiso   1.00
H29    H     0.72734   0.07786   0.14851   0.00000  Uiso   1.00
H30    H     0.00623   0.97713   0.21069   0.00000  Uiso   1.00
H31    H     0.38509   0.99656   0.43021   0.00000  Uiso   1.00
H32    H     0.30242   0.11611   0.57990   0.00000  Uiso   1.00
H33    H     0.60227   0.95348   0.34485   0.00000  Uiso   1.00
H34    H     0.26030   0.90571   0.37435   0.00000  Uiso   1.00
H35    H     0.19559   0.27131   0.73247   0.00000  Uiso   1.00
H36    H     0.82782   0.92837   0.23683   0.00000  Uiso   1.00
H37    H     0.10671   0.82764   0.29902   0.00000  Uiso   1.00
O38    O     0.08889   0.42785   0.78491   0.00000  Uiso   1.00
O39    O     0.91834   0.97792   0.13465   0.00000  Uiso   1.00
O40    O     0.97226   0.84576   0.21624   0.00000  Uiso   1.00
N41    N     0.13008   0.36921   0.64439   0.00000  Uiso   1.00
N42    N     0.72118   0.04859   0.18101   0.00000  Uiso   1.00
N43    N     0.04703   0.95440   0.23913   0.00000  Uiso   1.00
N44    N     0.18415   0.28877   0.69192   0.00000  Uiso   1.00
N45    N     0.77525   0.96815   0.22854   0.00000  Uiso   1.00
N46    N     0.10109   0.87396   0.28665   0.00000  Uiso   1.00
C47    C     0.64694   0.64253   0.78502   0.00000  Uiso   1.00
C48    C     0.70521   0.54981   0.73839   0.00000  Uiso   1.00
C49    C     0.69610   0.49768   0.77036   0.00000  Uiso   1.00
C50    C     0.75607   0.41478   0.71776   0.00000  Uiso   1.00
C51    C     0.83645   0.27532   0.65777   0.00000  Uiso   1.00
C52    C     0.74425   0.67983   0.77640   0.00000  Uiso   1.00
C53    C     0.76794   0.73702   0.84034   0.00000  Uiso   1.00
C54    C     0.86076   0.76357   0.81974   0.00000  Uiso   1.00
C55    C     0.00170   0.82601   0.81877   0.00000  Uiso   1.00
C56    C     0.57547   0.66059   0.73731   0.00000  Uiso   1.00
C57    C     0.45725   0.70164   0.76837   0.00000  Uiso   1.00
C58    C     0.40797   0.71202   0.71485   0.00000  Uiso   1.00
C59    C     0.28684   0.74459   0.65318   0.00000  Uiso   1.00
C60    C     0.76964   0.58800   0.63476   0.00000  Uiso   1.00
C61    C     0.77186   0.52020   0.65677   0.00000  Uiso   1.00
C62    C     0.83185   0.43735   0.60411   0.00000  Uiso   1.00
C63    C     0.82283   0.38511   0.63599   0.00000  Uiso   1.00
C64    C     0.81089   0.65021   0.69479   0.00000  Uiso   1.00
C65    C     0.90369   0.67669   0.67409   0.00000  Uiso   1.00
C66    C     0.92753   0.73390   0.73797   0.00000  Uiso   1.00
C67    C     0.64211   0.63097   0.65569   0.00000  Uiso   1.00
C68    C     0.59300   0.64130   0.60211   0.00000  Uiso   1.00
C69    C     0.47473   0.68235   0.63308   0.00000  Uiso   1.00
H70    H     0.59506   0.66559   0.84857   0.00000  Uiso   1.00
H71    H     0.64453   0.52063   0.83353   0.00000  Uiso   1.00
H72    H     0.71635   0.75993   0.90350   0.00000  Uiso   1.00
H73    H     0.40570   0.72455   0.83153   0.00000  Uiso   1.00
H74    H     0.72879   0.34685   0.78086   0.00000  Uiso   1.00
H75    H     0.88020   0.85146   0.92840   0.00000  Uiso   1.00
H76    H     0.22515   0.77685   0.77665   0.00000  Uiso   1.00
H77    H     0.82153   0.56495   0.57121   0.00000  Uiso   1.00
H78    H     0.88342   0.41445   0.54095   0.00000  Uiso   1.00
H79    H     0.95525   0.65376   0.61092   0.00000  Uiso   1.00
H80    H     0.64460   0.61838   0.53896   0.00000  Uiso   1.00
H81    H     0.92269   0.26067   0.54340   0.00000  Uiso   1.00
H82    H     0.07410   0.76529   0.69093   0.00000  Uiso   1.00
H83    H     0.41905   0.69067   0.53918   0.00000  Uiso   1.00
O84    O     0.86240   0.20658   0.64723   0.00000  Uiso   1.00
O85    O     0.06103   0.86862   0.84079   0.00000  Uiso   1.00
O86    O     0.20162   0.77073   0.64170   0.00000  Uiso   1.00
N87    N     0.76591   0.34721   0.72912   0.00000  Uiso   1.00
N88    N     0.90749   0.81899   0.86706   0.00000  Uiso   1.00
N89    N     0.29507   0.74925   0.72519   0.00000  Uiso   1.00
N90    N     0.87025   0.30084   0.60135   0.00000  Uiso   1.00
N91    N     0.01182   0.77262   0.73928   0.00000  Uiso   1.00
N92    N     0.39941   0.70288   0.59742   0.00000  Uiso   1.00
C93    C     0.42449   0.20572   0.86273   0.00000  Uiso   1.00
C94    C     0.43977   0.25318   0.81686   0.00000  Uiso   1.00
C95    C     0.46443   0.22118   0.73350   0.00000  Uiso   1.00
C96    C     0.47511   0.27461   0.70327   0.00000  Uiso   1.00
C97    C     0.50096   0.33575   0.62423   0.00000  Uiso   1.00
C98    C     0.51177   0.21601   0.90687   0.00000  Uiso   1.00
C99    C     0.59694   0.15277   0.89919   0.00000  Uiso   1.00
C100   C     0.66821   0.17492   0.94475   0.00000  Uiso   1.00
C101   C     0.80577   0.17836   0.00549   0.00000  Uiso   1.00
C102   C     0.30489   0.25197   0.92927   0.00000  Uiso   1.00
C103   C     0.21612   0.21897   0.94045   0.00000  Uiso   1.00
C104   C     0.11321   0.27139   0.00488   0.00000  Uiso   1.00
C105   C     0.92956   0.33066   0.10041   0.00000  Uiso   1.00
C106   C     0.39961   0.35749   0.95731   0.00000  Uiso   1.00
C107   C     0.42626   0.33561   0.86823   0.00000  Uiso   1.00
C108   C     0.43690   0.38911   0.83813   0.00000  Uiso   1.00
C109   C     0.46157   0.35720   0.75473   0.00000  Uiso   1.00
C110   C     0.49826   0.29845   0.95824   0.00000  Uiso   1.00
C111   C     0.56941   0.32070   0.00382   0.00000  Uiso   1.00
C112   C     0.65467   0.25751   0.99621   0.00000  Uiso   1.00
C113   C     0.29137   0.33441   0.98064   0.00000  Uiso   1.00
C114   C     0.18859   0.38689   0.04508   0.00000  Uiso   1.00
C115   C     0.09968   0.35397   0.05634   0.00000  Uiso   1.00
H116   H     0.43501   0.14154   0.82274   0.00000  Uiso   1.00
H117   H     0.47489   0.15738   0.69376   0.00000  Uiso   1.00
H118   H     0.60737   0.08898   0.85944   0.00000  Uiso   1.00
H119   H     0.22661   0.15517   0.90069   0.00000  Uiso   1.00
H120   H     0.51318   0.21129   0.57341   0.00000  Uiso   1.00
H121   H     0.79250   0.06708   0.92277   0.00000  Uiso   1.00
H122   H     0.98958   0.20664   0.00975   0.00000  Uiso   1.00
H123   H     0.38909   0.42168   0.99730   0.00000  Uiso   1.00
H124   H     0.42644   0.45290   0.87789   0.00000  Uiso   1.00
H125   H     0.55893   0.38450   0.04357   0.00000  Uiso   1.00
H126   H     0.17816   0.45068   0.08482   0.00000  Uiso   1.00
H127   H     0.47387   0.45115   0.72286   0.00000  Uiso   1.00
H128   H     0.75318   0.30693   0.07222   0.00000  Uiso   1.00
H129   H     0.95026   0.44649   0.15920   0.00000  Uiso   1.00
O130   O     0.51896   0.34670   0.56643   0.00000  Uiso   1.00
O131   O     0.88540   0.15749   0.02479   0.00000  Uiso   1.00
O132   O     0.83199   0.34059   0.13890   0.00000  Uiso   1.00
N133   N     0.49878   0.26346   0.62497   0.00000  Uiso   1.00
N134   N     0.75994   0.12863   0.95160   0.00000  Uiso   1.00
N135   N     0.00929   0.25910   0.03292   0.00000  Uiso   1.00
N136   N     0.47762   0.39253   0.70539   0.00000  Uiso   1.00
N137   N     0.73878   0.25769   0.03201   0.00000  Uiso   1.00
N138   N     0.98813   0.38816   0.11334   0.00000  Uiso   1.00
C139   C     0.70539   0.86883   0.64930   0.00000  Uiso   1.00
C140   C     0.73754   0.82289   0.55675   0.00000  Uiso   1.00
C141   C     0.79467   0.73945   0.50540   0.00000  Uiso   1.00
C142   C     0.81607   0.70917   0.42252   0.00000  Uiso   1.00
C143   C     0.87118   0.63001   0.28342   0.00000  Uiso   1.00
C144   C     0.57462   0.91125   0.68445   0.00000  Uiso   1.00
C145   C     0.49478   0.90210   0.74048   0.00000  Uiso   1.00
C146   C     0.37903   0.94621   0.76510   0.00000  Uiso   1.00
C147   C     0.18123   0.00427   0.82431   0.00000  Uiso   1.00
C148   C     0.76043   0.93719   0.66842   0.00000  Uiso   1.00
C149   C     0.83680   0.94988   0.71099   0.00000  Uiso   1.00
C150   C     0.87747   0.01585   0.72214   0.00000  Uiso   1.00
C151   C     0.96816   0.11419   0.75646   0.00000  Uiso   1.00
C152   C     0.64180   0.96343   0.59342   0.00000  Uiso   1.00
C153   C     0.70299   0.87427   0.52639   0.00000  Uiso   1.00
C154   C     0.72432   0.84411   0.44357   0.00000  Uiso   1.00
C155   C     0.78147   0.76064   0.39211   0.00000  Uiso   1.00
C156   C     0.54008   0.96263   0.65410   0.00000  Uiso   1.00
C157   C     0.42443   0.00676   0.67865   0.00000  Uiso   1.00
C158   C     0.34443   0.99768   0.73469   0.00000  Uiso   1.00
C159   C     0.72589   0.98858   0.63806   0.00000  Uiso   1.00
C160   C     0.76645   0.05454   0.64915   0.00000  Uiso   1.00
C161   C     0.84287   0.06732   0.69173   0.00000  Uiso   1.00
H162   H     0.73227   0.82883   0.67294   0.00000  Uiso   1.00
H163   H     0.82137   0.69971   0.52892   0.00000  Uiso   1.00
H164   H     0.52153   0.86234   0.76396   0.00000  Uiso   1.00
H165   H     0.86350   0.91011   0.73447   0.00000  Uiso   1.00
H166   H     0.90489   0.57920   0.35586   0.00000  Uiso   1.00
H167   H     0.27266   0.92214   0.85149   0.00000  Uiso   1.00
H168   H     0.99377   0.02287   0.78931   0.00000  Uiso   1.00
H169   H     0.61491   0.00344   0.56979   0.00000  Uiso   1.00
H170   H     0.69758   0.88389   0.42009   0.00000  Uiso   1.00
H171   H     0.39773   0.04652   0.65515   0.00000  Uiso   1.00
H172   H     0.73970   0.09429   0.62565   0.00000  Uiso   1.00
H173   H     0.80441   0.72869   0.26753   0.00000  Uiso   1.00
H174   H     0.17218   0.07163   0.76317   0.00000  Uiso   1.00
H175   H     0.89329   0.17236   0.70098   0.00000  Uiso   1.00
O176   O     0.91111   0.57215   0.21509   0.00000  Uiso   1.00
O177   O     0.08166   0.02208   0.86535   0.00000  Uiso   1.00
O178   O     0.02774   0.15424   0.78376   0.00000  Uiso   1.00
N179   N     0.86992   0.63079   0.35561   0.00000  Uiso   1.00
N180   N     0.27882   0.95141   0.81899   0.00000  Uiso   1.00
N181   N     0.95297   0.04560   0.76087   0.00000  Uiso   1.00
N182   N     0.81585   0.71123   0.30808   0.00000  Uiso   1.00
N183   N     0.22475   0.03185   0.77146   0.00000  Uiso   1.00
N184   N     0.89891   0.12604   0.71335   0.00000  Uiso   1.00
C185   C     0.35305   0.35747   0.21497   0.00000  Uiso   1.00
C186   C     0.29478   0.45019   0.26161   0.00000  Uiso   1.00
C187   C     0.30390   0.50232   0.22964   0.00000  Uiso   1.00
C188   C     0.24393   0.58522   0.28224   0.00000  Uiso   1.00
C189   C     0.16354   0.72468   0.34223   0.00000  Uiso   1.00
C190   C     0.25575   0.32017   0.22360   0.00000  Uiso   1.00
C191   C     0.23206   0.26298   0.15966   0.00000  Uiso   1.00
C192   C     0.13924   0.23643   0.18026   0.00000  Uiso   1.00
C193   C     0.99830   0.17399   0.18123   0.00000  Uiso   1.00
C194   C     0.42453   0.33941   0.26269   0.00000  Uiso   1.00
C195   C     0.54275   0.29836   0.23163   0.00000  Uiso   1.00
C196   C     0.59203   0.28798   0.28515   0.00000  Uiso   1.00
C197   C     0.71316   0.25541   0.34682   0.00000  Uiso   1.00
C198   C     0.23036   0.41200   0.36524   0.00000  Uiso   1.00
C199   C     0.22814   0.47980   0.34323   0.00000  Uiso   1.00
C200   C     0.16815   0.56265   0.39589   0.00000  Uiso   1.00
C201   C     0.17717   0.61489   0.36401   0.00000  Uiso   1.00
C202   C     0.18910   0.34979   0.30521   0.00000  Uiso   1.00
C203   C     0.09631   0.32331   0.32591   0.00000  Uiso   1.00
C204   C     0.07247   0.26610   0.26203   0.00000  Uiso   1.00
C205   C     0.35789   0.36902   0.34431   0.00000  Uiso   1.00
C206   C     0.40700   0.35870   0.39789   0.00000  Uiso   1.00
C207   C     0.52527   0.31765   0.36691   0.00000  Uiso   1.00
H208   H     0.40494   0.33441   0.15143   0.00000  Uiso   1.00
H209   H     0.35547   0.47937   0.16647   0.00000  Uiso   1.00
H210   H     0.28365   0.24007   0.09650   0.00000  Uiso   1.00
H211   H     0.59430   0.27545   0.16847   0.00000  Uiso   1.00
H212   H     0.27121   0.65315   0.21913   0.00000  Uiso   1.00
H213   H     0.11980   0.14854   0.07160   0.00000  Uiso   1.00
H214   H     0.77485   0.22315   0.22335   0.00000  Uiso   1.00
H215   H     0.17847   0.43505   0.42879   0.00000  Uiso   1.00
H216   H     0.11658   0.58555   0.45905   0.00000  Uiso   1.00
H217   H     0.04475   0.34624   0.38908   0.00000  Uiso   1.00
H218   H     0.35540   0.38162   0.46104   0.00000  Uiso   1.00
H219   H     0.07731   0.73933   0.45660   0.00000  Uiso   1.00
H220   H     0.92590   0.23471   0.30907   0.00000  Uiso   1.00
H221   H     0.58095   0.30933   0.46082   0.00000  Uiso   1.00
O222   O     0.13760   0.79342   0.35277   0.00000  Uiso   1.00
O223   O     0.93897   0.13138   0.15921   0.00000  Uiso   1.00
O224   O     0.79838   0.22927   0.35830   0.00000  Uiso   1.00
N225   N     0.23409   0.65278   0.27087   0.00000  Uiso   1.00
N226   N     0.09251   0.18101   0.13294   0.00000  Uiso   1.00
N227   N     0.70493   0.25075   0.27480   0.00000  Uiso   1.00
N228   N     0.12975   0.69916   0.39865   0.00000  Uiso   1.00
N229   N     0.98818   0.22738   0.26072   0.00000  Uiso   1.00
N230   N     0.60059   0.29712   0.40258   0.00000  Uiso   1.00
C231   C     0.57551   0.79428   0.13727   0.00000  Uiso   1.00
C232   C     0.56022   0.74682   0.18314   0.00000  Uiso   1.00
C233   C     0.53557   0.77882   0.26650   0.00000  Uiso   1.00
C234   C     0.52489   0.72539   0.29673   0.00000  Uiso   1.00
C235   C     0.49904   0.66425   0.37577   0.00000  Uiso   1.00
C236   C     0.48823   0.78399   0.09313   0.00000  Uiso   1.00
C237   C     0.40306   0.84723   0.10081   0.00000  Uiso   1.00
C238   C     0.33179   0.82508   0.05525   0.00000  Uiso   1.00
C239   C     0.19423   0.82164   0.99451   0.00000  Uiso   1.00
C240   C     0.69511   0.74803   0.07073   0.00000  Uiso   1.00
C241   C     0.78388   0.78103   0.05955   0.00000  Uiso   1.00
C242   C     0.88679   0.72861   0.99512   0.00000  Uiso   1.00
C243   C     0.07044   0.66934   0.89959   0.00000  Uiso   1.00
C244   C     0.60039   0.64251   0.04269   0.00000  Uiso   1.00
C245   C     0.57374   0.66439   0.13177   0.00000  Uiso   1.00
C246   C     0.56310   0.61089   0.16187   0.00000  Uiso   1.00
C247   C     0.53843   0.64280   0.24527   0.00000  Uiso   1.00
C248   C     0.50174   0.70155   0.04176   0.00000  Uiso   1.00
C249   C     0.43059   0.67930   0.99618   0.00000  Uiso   1.00
C250   C     0.34533   0.74249   0.00379   0.00000  Uiso   1.00
C251   C     0.70863   0.66559   0.01936   0.00000  Uiso   1.00
C252   C     0.81141   0.61311   0.95492   0.00000  Uiso   1.00
C253   C     0.90032   0.64603   0.94366   0.00000  Uiso   1.00
H254   H     0.56498   0.85846   0.17725   0.00000  Uiso   1.00
H255   H     0.52511   0.84262   0.30624   0.00000  Uiso   1.00
H256   H     0.39263   0.91102   0.14056   0.00000  Uiso   1.00
H257   H     0.77339   0.84483   0.09931   0.00000  Uiso   1.00
H258   H     0.48682   0.78871   0.42659   0.00000  Uiso   1.00
H259   H     0.20750   0.93292   0.07723   0.00000  Uiso   1.00
H260   H     0.01042   0.79336   0.99025   0.00000  Uiso   1.00
H261   H     0.61091   0.57832   0.00270   0.00000  Uiso   1.00
H262   H     0.57356   0.54710   0.12211   0.00000  Uiso   1.00
H263   H     0.44107   0.61550   0.95643   0.00000  Uiso   1.00
H264   H     0.82184   0.54932   0.91518   0.00000  Uiso   1.00
H265   H     0.52613   0.54885   0.27714   0.00000  Uiso   1.00
H266   H     0.24682   0.69307   0.92778   0.00000  Uiso   1.00
H267   H     0.04974   0.55351   0.84080   0.00000  Uiso   1.00
O268   O     0.48104   0.65330   0.43357   0.00000  Uiso   1.00
O269   O     0.11460   0.84251   0.97521   0.00000  Uiso   1.00
O270   O     0.16801   0.65941   0.86110   0.00000  Uiso   1.00
N271   N     0.50122   0.73654   0.37503   0.00000  Uiso   1.00
N272   N     0.24006   0.87137   0.04840   0.00000  Uiso   1.00
N273   N     0.99071   0.74090   0.96708   0.00000  Uiso   1.00
N274   N     0.52238   0.60747   0.29461   0.00000  Uiso   1.00
N275   N     0.26122   0.74231   0.96799   0.00000  Uiso   1.00
N276   N     0.01187   0.61184   0.88666   0.00000  Uiso   1.00
