data_job_01843
_audit_creation_date              2018-12-19
_audit_creation_method            'Materials Studio'
_symmetry_space_group_name_H-M    'P1'
_symmetry_Int_Tables_number       1
_symmetry_cell_setting            triclinic
loop_
_symmetry_equiv_pos_as_xyz
  x,y,z
_cell_length_a                    12.6034
_cell_length_b                    12.6034
_cell_length_c                    28.1423
_cell_angle_alpha                 90.0000
_cell_angle_beta                  90.0000
_cell_angle_gamma                 120.0000
loop_
_atom_site_label
_atom_site_type_symbol
_atom_site_fract_x
_atom_site_fract_y
_atom_site_fract_z
_atom_site_U_iso_or_equiv
_atom_site_adp_type
_atom_site_occupancy
C1     C     0.74171   0.20836   0.45723   0.00000  Uiso   1.00
C2     C     0.69026   0.08105   0.43559   0.00000  Uiso   1.00
C3     C     0.59213   0.97400   0.45316   0.00000  Uiso   1.00
C4     C     0.55912   0.86682   0.42825   0.00000  Uiso   1.00
C5     C     0.46971   0.66912   0.40090   0.00000  Uiso   1.00
C6     C     0.87717   0.25471   0.46640   0.00000  Uiso   1.00
C7     C     0.93619   0.29369   0.50987   0.00000  Uiso   1.00
C8     C     0.06053   0.33271   0.51089   0.00000  Uiso   1.00
C9     C     0.26131   0.40471   0.53136   0.00000  Uiso   1.00
C10    C     0.73711   0.28933   0.41796   0.00000  Uiso   1.00
C11    C     0.67839   0.35745   0.42070   0.00000  Uiso   1.00
C12    C     0.68484   0.42564   0.38094   0.00000  Uiso   1.00
C13    C     0.66815   0.55140   0.32620   0.00000  Uiso   1.00
C14    C     0.85759   0.20837   0.38172   0.00000  Uiso   1.00
C15    C     0.75321   0.08106   0.39458   0.00000  Uiso   1.00
C16    C     0.72034   0.97401   0.36963   0.00000  Uiso   1.00
C17    C     0.62217   0.86682   0.38716   0.00000  Uiso   1.00
C18    C     0.94012   0.25471   0.42539   0.00000  Uiso   1.00
C19    C     0.06440   0.29369   0.42634   0.00000  Uiso   1.00
C20    C     0.12359   0.33271   0.46980   0.00000  Uiso   1.00
C21    C     0.80005   0.28933   0.37694   0.00000  Uiso   1.00
C22    C     0.80660   0.35745   0.33717   0.00000  Uiso   1.00
C23    C     0.74790   0.42565   0.33986   0.00000  Uiso   1.00
H24    H     0.69271   0.20836   0.48915   0.00000  Uiso   1.00
H25    H     0.54345   0.97403   0.48490   0.00000  Uiso   1.00
H26    H     0.88746   0.29368   0.54160   0.00000  Uiso   1.00
H27    H     0.62970   0.35742   0.45244   0.00000  Uiso   1.00
H28    H     0.40575   0.71423   0.46212   0.00000  Uiso   1.00
H29    H     0.13112   0.38827   0.58166   0.00000  Uiso   1.00
H30    H     0.58758   0.52268   0.39366   0.00000  Uiso   1.00
H31    H     0.90660   0.20837   0.34980   0.00000  Uiso   1.00
H32    H     0.76907   0.97404   0.33790   0.00000  Uiso   1.00
H33    H     0.11308   0.29369   0.39460   0.00000  Uiso   1.00
H34    H     0.85532   0.35743   0.30544   0.00000  Uiso   1.00
H35    H     0.58888   0.71423   0.34280   0.00000  Uiso   1.00
H36    H     0.31425   0.38828   0.46235   0.00000  Uiso   1.00
H37    H     0.77070   0.52269   0.27435   0.00000  Uiso   1.00
O38    O     0.40301   0.56007   0.39715   0.00000  Uiso   1.00
O39    O     0.35467   0.44441   0.55399   0.00000  Uiso   1.00
O40    O     0.64155   0.62075   0.30734   0.00000  Uiso   1.00
N41    N     0.46771   0.74639   0.43566   0.00000  Uiso   1.00
N42    N     0.14588   0.37656   0.54743   0.00000  Uiso   1.00
N43    N     0.63774   0.50225   0.37167   0.00000  Uiso   1.00
N44    N     0.56625   0.74640   0.37146   0.00000  Uiso   1.00
N45    N     0.24442   0.37656   0.48323   0.00000  Uiso   1.00
N46    N     0.73628   0.50226   0.30747   0.00000  Uiso   1.00
C47    C     0.79164   0.53335   0.12389   0.00000  Uiso   1.00
C48    C     0.91895   0.60922   0.10226   0.00000  Uiso   1.00
C49    C     0.02600   0.61813   0.11983   0.00000  Uiso   1.00
C50    C     0.13318   0.69231   0.09492   0.00000  Uiso   1.00
C51    C     0.33088   0.80059   0.06757   0.00000  Uiso   1.00
C52    C     0.74529   0.62247   0.13306   0.00000  Uiso   1.00
C53    C     0.70631   0.64250   0.17654   0.00000  Uiso   1.00
C54    C     0.66729   0.72782   0.17755   0.00000  Uiso   1.00
C55    C     0.59529   0.85660   0.19803   0.00000  Uiso   1.00
C56    C     0.71067   0.44778   0.08462   0.00000  Uiso   1.00
C57    C     0.64255   0.32094   0.08737   0.00000  Uiso   1.00
C58    C     0.57436   0.25919   0.04760   0.00000  Uiso   1.00
C59    C     0.44860   0.11675   0.99287   0.00000  Uiso   1.00
C60    C     0.79163   0.64922   0.04839   0.00000  Uiso   1.00
C61    C     0.91894   0.67216   0.06125   0.00000  Uiso   1.00
C62    C     0.02599   0.74634   0.03630   0.00000  Uiso   1.00
C63    C     0.13318   0.75536   0.05383   0.00000  Uiso   1.00
C64    C     0.74529   0.68540   0.09206   0.00000  Uiso   1.00
C65    C     0.70631   0.77071   0.09301   0.00000  Uiso   1.00
C66    C     0.66729   0.79088   0.13647   0.00000  Uiso   1.00
C67    C     0.71067   0.51072   0.04361   0.00000  Uiso   1.00
C68    C     0.64255   0.44915   0.00384   0.00000  Uiso   1.00
C69    C     0.57435   0.32225   0.00652   0.00000  Uiso   1.00
H70    H     0.79164   0.48435   0.15582   0.00000  Uiso   1.00
H71    H     0.02597   0.56942   0.15157   0.00000  Uiso   1.00
H72    H     0.70632   0.59378   0.20827   0.00000  Uiso   1.00
H73    H     0.64258   0.27227   0.11911   0.00000  Uiso   1.00
H74    H     0.28577   0.69152   0.12878   0.00000  Uiso   1.00
H75    H     0.61173   0.74285   0.24833   0.00000  Uiso   1.00
H76    H     0.47732   0.06489   0.06033   0.00000  Uiso   1.00
H77    H     0.79163   0.69823   0.01646   0.00000  Uiso   1.00
H78    H     0.02596   0.79503   0.00456   0.00000  Uiso   1.00
H79    H     0.70631   0.81939   0.06126   0.00000  Uiso   1.00
H80    H     0.64257   0.49789   0.97211   0.00000  Uiso   1.00
H81    H     0.28577   0.87464   0.00947   0.00000  Uiso   1.00
H82    H     0.61172   0.92597   0.12901   0.00000  Uiso   1.00
H83    H     0.47731   0.24802   0.94101   0.00000  Uiso   1.00
O84    O     0.43993   0.84294   0.06382   0.00000  Uiso   1.00
O85    O     0.55559   0.91026   0.22066   0.00000  Uiso   1.00
O86    O     0.37925   0.02080   0.97400   0.00000  Uiso   1.00
N87    N     0.25361   0.72132   0.10233   0.00000  Uiso   1.00
N88    N     0.62344   0.76932   0.21410   0.00000  Uiso   1.00
N89    N     0.49775   0.13549   0.03834   0.00000  Uiso   1.00
N90    N     0.25360   0.81985   0.03813   0.00000  Uiso   1.00
N91    N     0.62344   0.86786   0.14990   0.00000  Uiso   1.00
N92    N     0.49774   0.23402   0.97414   0.00000  Uiso   1.00
C93    C     0.46665   0.25829   0.79056   0.00000  Uiso   1.00
C94    C     0.39078   0.30974   0.76892   0.00000  Uiso   1.00
C95    C     0.38187   0.40787   0.78650   0.00000  Uiso   1.00
C96    C     0.30769   0.44088   0.76158   0.00000  Uiso   1.00
C97    C     0.19941   0.53029   0.73424   0.00000  Uiso   1.00
C98    C     0.37753   0.12283   0.79973   0.00000  Uiso   1.00
C99    C     0.35750   0.06381   0.84321   0.00000  Uiso   1.00
C100   C     0.27218   0.93947   0.84422   0.00000  Uiso   1.00
C101   C     0.14340   0.73869   0.86470   0.00000  Uiso   1.00
C102   C     0.55222   0.26289   0.75129   0.00000  Uiso   1.00
C103   C     0.67906   0.32161   0.75404   0.00000  Uiso   1.00
C104   C     0.74081   0.31516   0.71427   0.00000  Uiso   1.00
C105   C     0.88325   0.33185   0.65954   0.00000  Uiso   1.00
C106   C     0.35078   0.14241   0.71506   0.00000  Uiso   1.00
C107   C     0.32784   0.24679   0.72791   0.00000  Uiso   1.00
C108   C     0.25366   0.27966   0.70296   0.00000  Uiso   1.00
C109   C     0.24464   0.37783   0.72050   0.00000  Uiso   1.00
C110   C     0.31460   0.05988   0.75872   0.00000  Uiso   1.00
C111   C     0.22929   0.93560   0.75967   0.00000  Uiso   1.00
C112   C     0.20912   0.87641   0.80314   0.00000  Uiso   1.00
C113   C     0.48928   0.19995   0.71028   0.00000  Uiso   1.00
C114   C     0.55085   0.19340   0.67050   0.00000  Uiso   1.00
C115   C     0.67775   0.25210   0.67319   0.00000  Uiso   1.00
H116   H     0.51565   0.30729   0.82249   0.00000  Uiso   1.00
H117   H     0.43058   0.45655   0.81824   0.00000  Uiso   1.00
H118   H     0.40622   0.11254   0.87493   0.00000  Uiso   1.00
H119   H     0.72773   0.37030   0.78578   0.00000  Uiso   1.00
H120   H     0.30848   0.59425   0.79545   0.00000  Uiso   1.00
H121   H     0.25715   0.86888   0.91499   0.00000  Uiso   1.00
H122   H     0.93511   0.41242   0.72699   0.00000  Uiso   1.00
H123   H     0.30177   0.09340   0.68313   0.00000  Uiso   1.00
H124   H     0.20497   0.23093   0.67123   0.00000  Uiso   1.00
H125   H     0.18061   0.88692   0.72793   0.00000  Uiso   1.00
H126   H     0.50211   0.14468   0.63877   0.00000  Uiso   1.00
H127   H     0.12536   0.41112   0.67613   0.00000  Uiso   1.00
H128   H     0.07403   0.68575   0.79568   0.00000  Uiso   1.00
H129   H     0.75198   0.22930   0.60768   0.00000  Uiso   1.00
O130   O     0.15706   0.59699   0.73049   0.00000  Uiso   1.00
O131   O     0.08974   0.64533   0.88732   0.00000  Uiso   1.00
O132   O     0.97920   0.35845   0.64067   0.00000  Uiso   1.00
N133   N     0.27868   0.53229   0.76900   0.00000  Uiso   1.00
N134   N     0.23068   0.85412   0.88077   0.00000  Uiso   1.00
N135   N     0.86451   0.36226   0.70500   0.00000  Uiso   1.00
N136   N     0.18015   0.43375   0.70479   0.00000  Uiso   1.00
N137   N     0.13214   0.75558   0.81656   0.00000  Uiso   1.00
N138   N     0.76598   0.26372   0.64080   0.00000  Uiso   1.00
C139   C     0.20836   0.74171   0.54277   0.00000  Uiso   1.00
C140   C     0.08105   0.69026   0.56441   0.00000  Uiso   1.00
C141   C     0.97400   0.59213   0.54684   0.00000  Uiso   1.00
C142   C     0.86682   0.55912   0.57175   0.00000  Uiso   1.00
C143   C     0.66912   0.46971   0.59910   0.00000  Uiso   1.00
C144   C     0.25471   0.87717   0.53360   0.00000  Uiso   1.00
C145   C     0.29369   0.93619   0.49013   0.00000  Uiso   1.00
C146   C     0.33271   0.06053   0.48911   0.00000  Uiso   1.00
C147   C     0.40471   0.26131   0.46864   0.00000  Uiso   1.00
C148   C     0.28933   0.73711   0.58204   0.00000  Uiso   1.00
C149   C     0.35745   0.67839   0.57930   0.00000  Uiso   1.00
C150   C     0.42564   0.68484   0.61906   0.00000  Uiso   1.00
C151   C     0.55140   0.66815   0.67380   0.00000  Uiso   1.00
C152   C     0.20837   0.85759   0.61828   0.00000  Uiso   1.00
C153   C     0.08106   0.75321   0.60542   0.00000  Uiso   1.00
C154   C     0.97401   0.72034   0.63037   0.00000  Uiso   1.00
C155   C     0.86682   0.62217   0.61284   0.00000  Uiso   1.00
C156   C     0.25471   0.94012   0.57461   0.00000  Uiso   1.00
C157   C     0.29369   0.06440   0.57366   0.00000  Uiso   1.00
C158   C     0.33271   0.12359   0.53020   0.00000  Uiso   1.00
C159   C     0.28933   0.80005   0.62306   0.00000  Uiso   1.00
C160   C     0.35745   0.80660   0.66283   0.00000  Uiso   1.00
C161   C     0.42565   0.74790   0.66014   0.00000  Uiso   1.00
H162   H     0.20836   0.69271   0.51085   0.00000  Uiso   1.00
H163   H     0.97403   0.54345   0.51510   0.00000  Uiso   1.00
H164   H     0.29368   0.88746   0.45840   0.00000  Uiso   1.00
H165   H     0.35742   0.62970   0.54756   0.00000  Uiso   1.00
H166   H     0.71423   0.40575   0.53788   0.00000  Uiso   1.00
H167   H     0.38827   0.13112   0.41834   0.00000  Uiso   1.00
H168   H     0.52268   0.58758   0.60634   0.00000  Uiso   1.00
H169   H     0.20837   0.90660   0.65020   0.00000  Uiso   1.00
H170   H     0.97404   0.76907   0.66210   0.00000  Uiso   1.00
H171   H     0.29369   0.11308   0.60540   0.00000  Uiso   1.00
H172   H     0.35743   0.85532   0.69456   0.00000  Uiso   1.00
H173   H     0.71423   0.58888   0.65720   0.00000  Uiso   1.00
H174   H     0.38828   0.31425   0.53765   0.00000  Uiso   1.00
H175   H     0.52269   0.77070   0.72565   0.00000  Uiso   1.00
O176   O     0.56007   0.40301   0.60285   0.00000  Uiso   1.00
O177   O     0.44441   0.35467   0.44601   0.00000  Uiso   1.00
O178   O     0.62075   0.64155   0.69266   0.00000  Uiso   1.00
N179   N     0.74639   0.46771   0.56434   0.00000  Uiso   1.00
N180   N     0.37656   0.14588   0.45257   0.00000  Uiso   1.00
N181   N     0.50225   0.63774   0.62833   0.00000  Uiso   1.00
N182   N     0.74640   0.56625   0.62854   0.00000  Uiso   1.00
N183   N     0.37656   0.24442   0.51677   0.00000  Uiso   1.00
N184   N     0.50226   0.73628   0.69253   0.00000  Uiso   1.00
C185   C     0.53335   0.79164   0.87611   0.00000  Uiso   1.00
C186   C     0.60922   0.91895   0.89774   0.00000  Uiso   1.00
C187   C     0.61813   0.02600   0.88017   0.00000  Uiso   1.00
C188   C     0.69231   0.13318   0.90508   0.00000  Uiso   1.00
C189   C     0.80059   0.33088   0.93243   0.00000  Uiso   1.00
C190   C     0.62247   0.74529   0.86694   0.00000  Uiso   1.00
C191   C     0.64250   0.70631   0.82346   0.00000  Uiso   1.00
C192   C     0.72782   0.66729   0.82245   0.00000  Uiso   1.00
C193   C     0.85660   0.59529   0.80197   0.00000  Uiso   1.00
C194   C     0.44778   0.71067   0.91538   0.00000  Uiso   1.00
C195   C     0.32094   0.64255   0.91263   0.00000  Uiso   1.00
C196   C     0.25919   0.57436   0.95240   0.00000  Uiso   1.00
C197   C     0.11675   0.44860   0.00713   0.00000  Uiso   1.00
C198   C     0.64922   0.79163   0.95161   0.00000  Uiso   1.00
C199   C     0.67216   0.91894   0.93875   0.00000  Uiso   1.00
C200   C     0.74634   0.02599   0.96370   0.00000  Uiso   1.00
C201   C     0.75536   0.13318   0.94617   0.00000  Uiso   1.00
C202   C     0.68540   0.74529   0.90794   0.00000  Uiso   1.00
C203   C     0.77071   0.70631   0.90699   0.00000  Uiso   1.00
C204   C     0.79088   0.66729   0.86353   0.00000  Uiso   1.00
C205   C     0.51072   0.71067   0.95639   0.00000  Uiso   1.00
C206   C     0.44915   0.64255   0.99616   0.00000  Uiso   1.00
C207   C     0.32225   0.57435   0.99348   0.00000  Uiso   1.00
H208   H     0.48435   0.79164   0.84418   0.00000  Uiso   1.00
H209   H     0.56942   0.02597   0.84843   0.00000  Uiso   1.00
H210   H     0.59378   0.70632   0.79173   0.00000  Uiso   1.00
H211   H     0.27227   0.64258   0.88089   0.00000  Uiso   1.00
H212   H     0.69152   0.28577   0.87122   0.00000  Uiso   1.00
H213   H     0.74285   0.61173   0.75167   0.00000  Uiso   1.00
H214   H     0.06489   0.47732   0.93967   0.00000  Uiso   1.00
H215   H     0.69823   0.79163   0.98354   0.00000  Uiso   1.00
H216   H     0.79503   0.02596   0.99544   0.00000  Uiso   1.00
H217   H     0.81939   0.70631   0.93874   0.00000  Uiso   1.00
H218   H     0.49789   0.64257   0.02789   0.00000  Uiso   1.00
H219   H     0.87464   0.28577   0.99053   0.00000  Uiso   1.00
H220   H     0.92597   0.61172   0.87099   0.00000  Uiso   1.00
H221   H     0.24802   0.47731   0.05899   0.00000  Uiso   1.00
O222   O     0.84294   0.43993   0.93618   0.00000  Uiso   1.00
O223   O     0.91026   0.55559   0.77934   0.00000  Uiso   1.00
O224   O     0.02080   0.37925   0.02600   0.00000  Uiso   1.00
N225   N     0.72132   0.25361   0.89767   0.00000  Uiso   1.00
N226   N     0.76932   0.62344   0.78590   0.00000  Uiso   1.00
N227   N     0.13549   0.49775   0.96166   0.00000  Uiso   1.00
N228   N     0.81985   0.25360   0.96187   0.00000  Uiso   1.00
N229   N     0.86786   0.62344   0.85010   0.00000  Uiso   1.00
N230   N     0.23402   0.49774   0.02586   0.00000  Uiso   1.00
C231   C     0.25829   0.46665   0.20944   0.00000  Uiso   1.00
C232   C     0.30974   0.39078   0.23108   0.00000  Uiso   1.00
C233   C     0.40787   0.38187   0.21350   0.00000  Uiso   1.00
C234   C     0.44088   0.30769   0.23842   0.00000  Uiso   1.00
C235   C     0.53029   0.19941   0.26576   0.00000  Uiso   1.00
C236   C     0.12283   0.37753   0.20027   0.00000  Uiso   1.00
C237   C     0.06381   0.35750   0.15679   0.00000  Uiso   1.00
C238   C     0.93947   0.27218   0.15578   0.00000  Uiso   1.00
C239   C     0.73869   0.14340   0.13530   0.00000  Uiso   1.00
C240   C     0.26289   0.55222   0.24871   0.00000  Uiso   1.00
C241   C     0.32161   0.67906   0.24596   0.00000  Uiso   1.00
C242   C     0.31516   0.74081   0.28573   0.00000  Uiso   1.00
C243   C     0.33185   0.88325   0.34046   0.00000  Uiso   1.00
C244   C     0.14241   0.35078   0.28494   0.00000  Uiso   1.00
C245   C     0.24679   0.32784   0.27209   0.00000  Uiso   1.00
C246   C     0.27966   0.25366   0.29704   0.00000  Uiso   1.00
C247   C     0.37783   0.24464   0.27950   0.00000  Uiso   1.00
C248   C     0.05988   0.31460   0.24128   0.00000  Uiso   1.00
C249   C     0.93560   0.22929   0.24033   0.00000  Uiso   1.00
C250   C     0.87641   0.20912   0.19686   0.00000  Uiso   1.00
C251   C     0.19995   0.48928   0.28972   0.00000  Uiso   1.00
C252   C     0.19340   0.55085   0.32950   0.00000  Uiso   1.00
C253   C     0.25210   0.67775   0.32681   0.00000  Uiso   1.00
H254   H     0.30729   0.51565   0.17751   0.00000  Uiso   1.00
H255   H     0.45655   0.43058   0.18176   0.00000  Uiso   1.00
H256   H     0.11254   0.40622   0.12507   0.00000  Uiso   1.00
H257   H     0.37030   0.72773   0.21422   0.00000  Uiso   1.00
H258   H     0.59425   0.30848   0.20455   0.00000  Uiso   1.00
H259   H     0.86888   0.25715   0.08501   0.00000  Uiso   1.00
H260   H     0.41242   0.93511   0.27301   0.00000  Uiso   1.00
H261   H     0.09340   0.30177   0.31687   0.00000  Uiso   1.00
H262   H     0.23093   0.20497   0.32877   0.00000  Uiso   1.00
H263   H     0.88692   0.18061   0.27207   0.00000  Uiso   1.00
H264   H     0.14468   0.50211   0.36123   0.00000  Uiso   1.00
H265   H     0.41112   0.12536   0.32387   0.00000  Uiso   1.00
H266   H     0.68575   0.07403   0.20432   0.00000  Uiso   1.00
H267   H     0.22930   0.75198   0.39232   0.00000  Uiso   1.00
O268   O     0.59699   0.15706   0.26951   0.00000  Uiso   1.00
O269   O     0.64533   0.08974   0.11268   0.00000  Uiso   1.00
O270   O     0.35845   0.97920   0.35933   0.00000  Uiso   1.00
N271   N     0.53229   0.27868   0.23100   0.00000  Uiso   1.00
N272   N     0.85412   0.23068   0.11923   0.00000  Uiso   1.00
N273   N     0.36226   0.86451   0.29500   0.00000  Uiso   1.00
N274   N     0.43375   0.18015   0.29521   0.00000  Uiso   1.00
N275   N     0.75558   0.13214   0.18344   0.00000  Uiso   1.00
N276   N     0.26372   0.76598   0.35920   0.00000  Uiso   1.00
