data_job_03411
_audit_creation_date              2018-12-19
_audit_creation_method            'Materials Studio'
_symmetry_space_group_name_H-M    'P1'
_symmetry_Int_Tables_number       1
_symmetry_cell_setting            triclinic
loop_
_symmetry_equiv_pos_as_xyz
  x,y,z
_cell_length_a                    15.5357
_cell_length_b                    16.9366
_cell_length_c                    24.6982
_cell_angle_alpha                 90.0000
_cell_angle_beta                  90.0000
_cell_angle_gamma                 90.0000
loop_
_atom_site_label
_atom_site_type_symbol
_atom_site_fract_x
_atom_site_fract_y
_atom_site_fract_z
_atom_site_U_iso_or_equiv
_atom_site_adp_type
_atom_site_occupancy
C1     C     0.89581   0.81849   0.30592   0.00000  Uiso   1.00
C2     C     0.82606   0.83765   0.26450   0.00000  Uiso   1.00
C3     C     0.83931   0.87245   0.21432   0.00000  Uiso   1.00
C4     C     0.76712   0.88509   0.18234   0.00000  Uiso   1.00
C5     C     0.67135   0.91814   0.11537   0.00000  Uiso   1.00
C6     C     0.86953   0.86044   0.35798   0.00000  Uiso   1.00
C7     C     0.91933   0.91440   0.38640   0.00000  Uiso   1.00
C8     C     0.88372   0.94622   0.43312   0.00000  Uiso   1.00
C9     C     0.85547   0.01461   0.51130   0.00000  Uiso   1.00
C10    C     0.88782   0.73036   0.31750   0.00000  Uiso   1.00
C11    C     0.95301   0.67493   0.31188   0.00000  Uiso   1.00
C12    C     0.93281   0.59723   0.32453   0.00000  Uiso   1.00
C13    C     0.93297   0.46364   0.33984   0.00000  Uiso   1.00
C14    C     0.74404   0.77906   0.33836   0.00000  Uiso   1.00
C15    C     0.74363   0.81623   0.28213   0.00000  Uiso   1.00
C16    C     0.67139   0.82882   0.25022   0.00000  Uiso   1.00
C17    C     0.68453   0.86363   0.20000   0.00000  Uiso   1.00
C18    C     0.78710   0.83903   0.37561   0.00000  Uiso   1.00
C19    C     0.75141   0.87077   0.42230   0.00000  Uiso   1.00
C20    C     0.80114   0.92477   0.45077   0.00000  Uiso   1.00
C21    C     0.80539   0.70894   0.33512   0.00000  Uiso   1.00
C22    C     0.78509   0.63131   0.34778   0.00000  Uiso   1.00
C23    C     0.85023   0.57577   0.34218   0.00000  Uiso   1.00
H24    H     0.95999   0.83516   0.29220   0.00000  Uiso   1.00
H25    H     0.90311   0.88902   0.20070   0.00000  Uiso   1.00
H26    H     0.98312   0.93096   0.37275   0.00000  Uiso   1.00
H27    H     0.01679   0.69153   0.29824   0.00000  Uiso   1.00
H28    H     0.80370   0.93931   0.10704   0.00000  Uiso   1.00
H29    H     0.97241   0.02771   0.46983   0.00000  Uiso   1.00
H30    H     0.04342   0.52283   0.31272   0.00000  Uiso   1.00
H31    H     0.67986   0.76238   0.35208   0.00000  Uiso   1.00
H32    H     0.60761   0.81225   0.26387   0.00000  Uiso   1.00
H33    H     0.68762   0.85418   0.43592   0.00000  Uiso   1.00
H34    H     0.72129   0.61475   0.36141   0.00000  Uiso   1.00
H35    H     0.56386   0.87700   0.15831   0.00000  Uiso   1.00
H36    H     0.73257   0.96540   0.52111   0.00000  Uiso   1.00
H37    H     0.80358   0.46052   0.36399   0.00000  Uiso   1.00
O38    O     0.64131   0.94230   0.07357   0.00000  Uiso   1.00
O39    O     0.86266   0.05826   0.54955   0.00000  Uiso   1.00
O40    O     0.95582   0.39587   0.34341   0.00000  Uiso   1.00
N41    N     0.75717   0.91779   0.13121   0.00000  Uiso   1.00
N42    N     0.91490   0.00045   0.47039   0.00000  Uiso   1.00
N43    N     0.98130   0.52843   0.32352   0.00000  Uiso   1.00
N44    N     0.62811   0.88426   0.15879   0.00000  Uiso   1.00
N45    N     0.78585   0.96692   0.49798   0.00000  Uiso   1.00
N46    N     0.85224   0.49490   0.35111   0.00000  Uiso   1.00
C47    C     0.60419   0.68151   0.80592   0.00000  Uiso   1.00
C48    C     0.67394   0.66235   0.76450   0.00000  Uiso   1.00
C49    C     0.66069   0.62755   0.71432   0.00000  Uiso   1.00
C50    C     0.73288   0.61491   0.68234   0.00000  Uiso   1.00
C51    C     0.82865   0.58186   0.61537   0.00000  Uiso   1.00
C52    C     0.63047   0.63956   0.85798   0.00000  Uiso   1.00
C53    C     0.58067   0.58560   0.88640   0.00000  Uiso   1.00
C54    C     0.61628   0.55378   0.93312   0.00000  Uiso   1.00
C55    C     0.64453   0.48539   0.01130   0.00000  Uiso   1.00
C56    C     0.61218   0.76964   0.81750   0.00000  Uiso   1.00
C57    C     0.54699   0.82507   0.81188   0.00000  Uiso   1.00
C58    C     0.56719   0.90277   0.82453   0.00000  Uiso   1.00
C59    C     0.56703   0.03636   0.83984   0.00000  Uiso   1.00
C60    C     0.75596   0.72094   0.83836   0.00000  Uiso   1.00
C61    C     0.75637   0.68377   0.78213   0.00000  Uiso   1.00
C62    C     0.82861   0.67118   0.75022   0.00000  Uiso   1.00
C63    C     0.81547   0.63637   0.70000   0.00000  Uiso   1.00
C64    C     0.71290   0.66097   0.87561   0.00000  Uiso   1.00
C65    C     0.74859   0.62923   0.92230   0.00000  Uiso   1.00
C66    C     0.69886   0.57523   0.95077   0.00000  Uiso   1.00
C67    C     0.69461   0.79106   0.83512   0.00000  Uiso   1.00
C68    C     0.71491   0.86869   0.84778   0.00000  Uiso   1.00
C69    C     0.64977   0.92423   0.84218   0.00000  Uiso   1.00
H70    H     0.54001   0.66484   0.79220   0.00000  Uiso   1.00
H71    H     0.59689   0.61098   0.70070   0.00000  Uiso   1.00
H72    H     0.51688   0.56904   0.87275   0.00000  Uiso   1.00
H73    H     0.48321   0.80847   0.79824   0.00000  Uiso   1.00
H74    H     0.69630   0.56069   0.60704   0.00000  Uiso   1.00
H75    H     0.52759   0.47229   0.96983   0.00000  Uiso   1.00
H76    H     0.45658   0.97717   0.81272   0.00000  Uiso   1.00
H77    H     0.82014   0.73762   0.85208   0.00000  Uiso   1.00
H78    H     0.89239   0.68775   0.76387   0.00000  Uiso   1.00
H79    H     0.81238   0.64582   0.93592   0.00000  Uiso   1.00
H80    H     0.77871   0.88525   0.86141   0.00000  Uiso   1.00
H81    H     0.93614   0.62300   0.65831   0.00000  Uiso   1.00
H82    H     0.76743   0.53460   0.02111   0.00000  Uiso   1.00
H83    H     0.69642   0.03948   0.86399   0.00000  Uiso   1.00
O84    O     0.85869   0.55770   0.57357   0.00000  Uiso   1.00
O85    O     0.63734   0.44174   0.04955   0.00000  Uiso   1.00
O86    O     0.54418   0.10413   0.84341   0.00000  Uiso   1.00
N87    N     0.74283   0.58221   0.63121   0.00000  Uiso   1.00
N88    N     0.58510   0.49955   0.97039   0.00000  Uiso   1.00
N89    N     0.51870   0.97157   0.82352   0.00000  Uiso   1.00
N90    N     0.87189   0.61574   0.65879   0.00000  Uiso   1.00
N91    N     0.71415   0.53308   0.99798   0.00000  Uiso   1.00
N92    N     0.64776   0.00510   0.85111   0.00000  Uiso   1.00
C93    C     0.10419   0.81849   0.19408   0.00000  Uiso   1.00
C94    C     0.17394   0.83765   0.23550   0.00000  Uiso   1.00
C95    C     0.16069   0.87245   0.28568   0.00000  Uiso   1.00
C96    C     0.23288   0.88509   0.31766   0.00000  Uiso   1.00
C97    C     0.32865   0.91814   0.38463   0.00000  Uiso   1.00
C98    C     0.13047   0.86044   0.14202   0.00000  Uiso   1.00
C99    C     0.08067   0.91440   0.11360   0.00000  Uiso   1.00
C100   C     0.11628   0.94622   0.06688   0.00000  Uiso   1.00
C101   C     0.14453   0.01461   0.98870   0.00000  Uiso   1.00
C102   C     0.11218   0.73036   0.18250   0.00000  Uiso   1.00
C103   C     0.04699   0.67493   0.18812   0.00000  Uiso   1.00
C104   C     0.06719   0.59723   0.17547   0.00000  Uiso   1.00
C105   C     0.06703   0.46364   0.16016   0.00000  Uiso   1.00
C106   C     0.25596   0.77906   0.16164   0.00000  Uiso   1.00
C107   C     0.25637   0.81623   0.21787   0.00000  Uiso   1.00
C108   C     0.32861   0.82882   0.24978   0.00000  Uiso   1.00
C109   C     0.31547   0.86363   0.30000   0.00000  Uiso   1.00
C110   C     0.21290   0.83903   0.12439   0.00000  Uiso   1.00
C111   C     0.24859   0.87077   0.07770   0.00000  Uiso   1.00
C112   C     0.19886   0.92477   0.04923   0.00000  Uiso   1.00
C113   C     0.19461   0.70894   0.16488   0.00000  Uiso   1.00
C114   C     0.21491   0.63131   0.15222   0.00000  Uiso   1.00
C115   C     0.14977   0.57577   0.15782   0.00000  Uiso   1.00
H116   H     0.04001   0.83516   0.20780   0.00000  Uiso   1.00
H117   H     0.09689   0.88902   0.29930   0.00000  Uiso   1.00
H118   H     0.01688   0.93096   0.12725   0.00000  Uiso   1.00
H119   H     0.98321   0.69153   0.20176   0.00000  Uiso   1.00
H120   H     0.19630   0.93931   0.39296   0.00000  Uiso   1.00
H121   H     0.02759   0.02771   0.03017   0.00000  Uiso   1.00
H122   H     0.95658   0.52283   0.18728   0.00000  Uiso   1.00
H123   H     0.32014   0.76238   0.14792   0.00000  Uiso   1.00
H124   H     0.39239   0.81225   0.23613   0.00000  Uiso   1.00
H125   H     0.31238   0.85418   0.06408   0.00000  Uiso   1.00
H126   H     0.27871   0.61475   0.13859   0.00000  Uiso   1.00
H127   H     0.43614   0.87700   0.34169   0.00000  Uiso   1.00
H128   H     0.26743   0.96540   0.97889   0.00000  Uiso   1.00
H129   H     0.19642   0.46052   0.13601   0.00000  Uiso   1.00
O130   O     0.35869   0.94230   0.42643   0.00000  Uiso   1.00
O131   O     0.13734   0.05826   0.95045   0.00000  Uiso   1.00
O132   O     0.04418   0.39587   0.15659   0.00000  Uiso   1.00
N133   N     0.24283   0.91779   0.36879   0.00000  Uiso   1.00
N134   N     0.08510   0.00045   0.02961   0.00000  Uiso   1.00
N135   N     0.01870   0.52843   0.17648   0.00000  Uiso   1.00
N136   N     0.37189   0.88426   0.34121   0.00000  Uiso   1.00
N137   N     0.21415   0.96692   0.00202   0.00000  Uiso   1.00
N138   N     0.14776   0.49490   0.14889   0.00000  Uiso   1.00
C139   C     0.39581   0.68151   0.69408   0.00000  Uiso   1.00
C140   C     0.32606   0.66235   0.73550   0.00000  Uiso   1.00
C141   C     0.33931   0.62755   0.78568   0.00000  Uiso   1.00
C142   C     0.26712   0.61491   0.81766   0.00000  Uiso   1.00
C143   C     0.17135   0.58186   0.88463   0.00000  Uiso   1.00
C144   C     0.36953   0.63956   0.64202   0.00000  Uiso   1.00
C145   C     0.41933   0.58560   0.61360   0.00000  Uiso   1.00
C146   C     0.38372   0.55378   0.56688   0.00000  Uiso   1.00
C147   C     0.35547   0.48539   0.48870   0.00000  Uiso   1.00
C148   C     0.38782   0.76964   0.68250   0.00000  Uiso   1.00
C149   C     0.45301   0.82507   0.68812   0.00000  Uiso   1.00
C150   C     0.43281   0.90277   0.67547   0.00000  Uiso   1.00
C151   C     0.43297   0.03636   0.66016   0.00000  Uiso   1.00
C152   C     0.24404   0.72094   0.66164   0.00000  Uiso   1.00
C153   C     0.24363   0.68377   0.71787   0.00000  Uiso   1.00
C154   C     0.17139   0.67118   0.74978   0.00000  Uiso   1.00
C155   C     0.18453   0.63637   0.80000   0.00000  Uiso   1.00
C156   C     0.28710   0.66097   0.62439   0.00000  Uiso   1.00
C157   C     0.25141   0.62923   0.57770   0.00000  Uiso   1.00
C158   C     0.30114   0.57523   0.54923   0.00000  Uiso   1.00
C159   C     0.30539   0.79106   0.66488   0.00000  Uiso   1.00
C160   C     0.28509   0.86869   0.65222   0.00000  Uiso   1.00
C161   C     0.35023   0.92423   0.65782   0.00000  Uiso   1.00
H162   H     0.45999   0.66484   0.70780   0.00000  Uiso   1.00
H163   H     0.40311   0.61098   0.79930   0.00000  Uiso   1.00
H164   H     0.48312   0.56904   0.62725   0.00000  Uiso   1.00
H165   H     0.51679   0.80847   0.70176   0.00000  Uiso   1.00
H166   H     0.30370   0.56069   0.89296   0.00000  Uiso   1.00
H167   H     0.47241   0.47229   0.53017   0.00000  Uiso   1.00
H168   H     0.54342   0.97717   0.68728   0.00000  Uiso   1.00
H169   H     0.17986   0.73762   0.64792   0.00000  Uiso   1.00
H170   H     0.10761   0.68775   0.73613   0.00000  Uiso   1.00
H171   H     0.18762   0.64582   0.56408   0.00000  Uiso   1.00
H172   H     0.22129   0.88525   0.63859   0.00000  Uiso   1.00
H173   H     0.06386   0.62300   0.84169   0.00000  Uiso   1.00
H174   H     0.23257   0.53460   0.47889   0.00000  Uiso   1.00
H175   H     0.30358   0.03948   0.63601   0.00000  Uiso   1.00
O176   O     0.14131   0.55770   0.92643   0.00000  Uiso   1.00
O177   O     0.36266   0.44174   0.45045   0.00000  Uiso   1.00
O178   O     0.45582   0.10413   0.65659   0.00000  Uiso   1.00
N179   N     0.25717   0.58221   0.86879   0.00000  Uiso   1.00
N180   N     0.41490   0.49955   0.52961   0.00000  Uiso   1.00
N181   N     0.48130   0.97157   0.67648   0.00000  Uiso   1.00
N182   N     0.12811   0.61574   0.84121   0.00000  Uiso   1.00
N183   N     0.28585   0.53308   0.50202   0.00000  Uiso   1.00
N184   N     0.35224   0.00510   0.64889   0.00000  Uiso   1.00
C185   C     0.10419   0.18151   0.69408   0.00000  Uiso   1.00
C186   C     0.17394   0.16235   0.73550   0.00000  Uiso   1.00
C187   C     0.16069   0.12755   0.78568   0.00000  Uiso   1.00
C188   C     0.23288   0.11491   0.81766   0.00000  Uiso   1.00
C189   C     0.32865   0.08186   0.88463   0.00000  Uiso   1.00
C190   C     0.13047   0.13956   0.64202   0.00000  Uiso   1.00
C191   C     0.08067   0.08560   0.61360   0.00000  Uiso   1.00
C192   C     0.11628   0.05378   0.56688   0.00000  Uiso   1.00
C193   C     0.14453   0.98539   0.48870   0.00000  Uiso   1.00
C194   C     0.11218   0.26964   0.68250   0.00000  Uiso   1.00
C195   C     0.04699   0.32507   0.68812   0.00000  Uiso   1.00
C196   C     0.06719   0.40277   0.67547   0.00000  Uiso   1.00
C197   C     0.06703   0.53636   0.66016   0.00000  Uiso   1.00
C198   C     0.25596   0.22094   0.66164   0.00000  Uiso   1.00
C199   C     0.25637   0.18377   0.71787   0.00000  Uiso   1.00
C200   C     0.32861   0.17118   0.74978   0.00000  Uiso   1.00
C201   C     0.31547   0.13637   0.80000   0.00000  Uiso   1.00
C202   C     0.21290   0.16097   0.62439   0.00000  Uiso   1.00
C203   C     0.24859   0.12923   0.57770   0.00000  Uiso   1.00
C204   C     0.19886   0.07523   0.54923   0.00000  Uiso   1.00
C205   C     0.19461   0.29106   0.66488   0.00000  Uiso   1.00
C206   C     0.21491   0.36869   0.65222   0.00000  Uiso   1.00
C207   C     0.14977   0.42423   0.65782   0.00000  Uiso   1.00
H208   H     0.04001   0.16484   0.70780   0.00000  Uiso   1.00
H209   H     0.09689   0.11098   0.79930   0.00000  Uiso   1.00
H210   H     0.01688   0.06904   0.62725   0.00000  Uiso   1.00
H211   H     0.98321   0.30847   0.70176   0.00000  Uiso   1.00
H212   H     0.19630   0.06069   0.89296   0.00000  Uiso   1.00
H213   H     0.02759   0.97229   0.53017   0.00000  Uiso   1.00
H214   H     0.95658   0.47717   0.68728   0.00000  Uiso   1.00
H215   H     0.32014   0.23762   0.64792   0.00000  Uiso   1.00
H216   H     0.39239   0.18775   0.73613   0.00000  Uiso   1.00
H217   H     0.31238   0.14582   0.56408   0.00000  Uiso   1.00
H218   H     0.27871   0.38525   0.63859   0.00000  Uiso   1.00
H219   H     0.43614   0.12300   0.84169   0.00000  Uiso   1.00
H220   H     0.26743   0.03460   0.47889   0.00000  Uiso   1.00
H221   H     0.19642   0.53948   0.63601   0.00000  Uiso   1.00
O222   O     0.35869   0.05770   0.92643   0.00000  Uiso   1.00
O223   O     0.13734   0.94174   0.45045   0.00000  Uiso   1.00
O224   O     0.04418   0.60413   0.65659   0.00000  Uiso   1.00
N225   N     0.24283   0.08221   0.86879   0.00000  Uiso   1.00
N226   N     0.08510   0.99955   0.52961   0.00000  Uiso   1.00
N227   N     0.01870   0.47157   0.67648   0.00000  Uiso   1.00
N228   N     0.37189   0.11574   0.84121   0.00000  Uiso   1.00
N229   N     0.21415   0.03308   0.50202   0.00000  Uiso   1.00
N230   N     0.14776   0.50510   0.64889   0.00000  Uiso   1.00
C231   C     0.39581   0.31849   0.19408   0.00000  Uiso   1.00
C232   C     0.32606   0.33765   0.23550   0.00000  Uiso   1.00
C233   C     0.33931   0.37245   0.28568   0.00000  Uiso   1.00
C234   C     0.26712   0.38509   0.31766   0.00000  Uiso   1.00
C235   C     0.17135   0.41814   0.38463   0.00000  Uiso   1.00
C236   C     0.36953   0.36044   0.14202   0.00000  Uiso   1.00
C237   C     0.41933   0.41440   0.11360   0.00000  Uiso   1.00
C238   C     0.38372   0.44622   0.06688   0.00000  Uiso   1.00
C239   C     0.35547   0.51461   0.98870   0.00000  Uiso   1.00
C240   C     0.38782   0.23036   0.18250   0.00000  Uiso   1.00
C241   C     0.45301   0.17493   0.18812   0.00000  Uiso   1.00
C242   C     0.43281   0.09723   0.17547   0.00000  Uiso   1.00
C243   C     0.43297   0.96364   0.16016   0.00000  Uiso   1.00
C244   C     0.24404   0.27906   0.16164   0.00000  Uiso   1.00
C245   C     0.24363   0.31623   0.21787   0.00000  Uiso   1.00
C246   C     0.17139   0.32882   0.24978   0.00000  Uiso   1.00
C247   C     0.18453   0.36363   0.30000   0.00000  Uiso   1.00
C248   C     0.28710   0.33903   0.12439   0.00000  Uiso   1.00
C249   C     0.25141   0.37077   0.07770   0.00000  Uiso   1.00
C250   C     0.30114   0.42477   0.04923   0.00000  Uiso   1.00
C251   C     0.30539   0.20894   0.16488   0.00000  Uiso   1.00
C252   C     0.28509   0.13131   0.15222   0.00000  Uiso   1.00
C253   C     0.35023   0.07577   0.15782   0.00000  Uiso   1.00
H254   H     0.45999   0.33516   0.20780   0.00000  Uiso   1.00
H255   H     0.40311   0.38902   0.29930   0.00000  Uiso   1.00
H256   H     0.48312   0.43096   0.12725   0.00000  Uiso   1.00
H257   H     0.51679   0.19153   0.20176   0.00000  Uiso   1.00
H258   H     0.30370   0.43931   0.39296   0.00000  Uiso   1.00
H259   H     0.47241   0.52771   0.03017   0.00000  Uiso   1.00
H260   H     0.54342   0.02283   0.18728   0.00000  Uiso   1.00
H261   H     0.17986   0.26238   0.14792   0.00000  Uiso   1.00
H262   H     0.10761   0.31225   0.23613   0.00000  Uiso   1.00
H263   H     0.18762   0.35418   0.06408   0.00000  Uiso   1.00
H264   H     0.22129   0.11475   0.13859   0.00000  Uiso   1.00
H265   H     0.06386   0.37700   0.34169   0.00000  Uiso   1.00
H266   H     0.23257   0.46540   0.97889   0.00000  Uiso   1.00
H267   H     0.30358   0.96052   0.13601   0.00000  Uiso   1.00
O268   O     0.14131   0.44230   0.42643   0.00000  Uiso   1.00
O269   O     0.36266   0.55826   0.95045   0.00000  Uiso   1.00
O270   O     0.45582   0.89587   0.15659   0.00000  Uiso   1.00
N271   N     0.25717   0.41779   0.36879   0.00000  Uiso   1.00
N272   N     0.41490   0.50045   0.02961   0.00000  Uiso   1.00
N273   N     0.48130   0.02843   0.17648   0.00000  Uiso   1.00
N274   N     0.12811   0.38426   0.34121   0.00000  Uiso   1.00
N275   N     0.28585   0.46692   0.00202   0.00000  Uiso   1.00
N276   N     0.35224   0.99490   0.14889   0.00000  Uiso   1.00
C277   C     0.89581   0.18151   0.80592   0.00000  Uiso   1.00
C278   C     0.82606   0.16235   0.76450   0.00000  Uiso   1.00
C279   C     0.83931   0.12755   0.71432   0.00000  Uiso   1.00
C280   C     0.76712   0.11491   0.68234   0.00000  Uiso   1.00
C281   C     0.67135   0.08186   0.61537   0.00000  Uiso   1.00
C282   C     0.86953   0.13956   0.85798   0.00000  Uiso   1.00
C283   C     0.91933   0.08560   0.88640   0.00000  Uiso   1.00
C284   C     0.88372   0.05378   0.93312   0.00000  Uiso   1.00
C285   C     0.85547   0.98539   0.01130   0.00000  Uiso   1.00
C286   C     0.88782   0.26964   0.81750   0.00000  Uiso   1.00
C287   C     0.95301   0.32507   0.81188   0.00000  Uiso   1.00
C288   C     0.93281   0.40277   0.82453   0.00000  Uiso   1.00
C289   C     0.93297   0.53636   0.83984   0.00000  Uiso   1.00
C290   C     0.74404   0.22094   0.83836   0.00000  Uiso   1.00
C291   C     0.74363   0.18377   0.78213   0.00000  Uiso   1.00
C292   C     0.67139   0.17118   0.75022   0.00000  Uiso   1.00
C293   C     0.68453   0.13637   0.70000   0.00000  Uiso   1.00
C294   C     0.78710   0.16097   0.87561   0.00000  Uiso   1.00
C295   C     0.75141   0.12923   0.92230   0.00000  Uiso   1.00
C296   C     0.80114   0.07523   0.95077   0.00000  Uiso   1.00
C297   C     0.80539   0.29106   0.83512   0.00000  Uiso   1.00
C298   C     0.78509   0.36869   0.84778   0.00000  Uiso   1.00
C299   C     0.85023   0.42423   0.84218   0.00000  Uiso   1.00
H300   H     0.95999   0.16484   0.79220   0.00000  Uiso   1.00
H301   H     0.90311   0.11098   0.70070   0.00000  Uiso   1.00
H302   H     0.98312   0.06904   0.87275   0.00000  Uiso   1.00
H303   H     0.01679   0.30847   0.79824   0.00000  Uiso   1.00
H304   H     0.80370   0.06069   0.60704   0.00000  Uiso   1.00
H305   H     0.97241   0.97229   0.96983   0.00000  Uiso   1.00
H306   H     0.04342   0.47717   0.81272   0.00000  Uiso   1.00
H307   H     0.67986   0.23762   0.85208   0.00000  Uiso   1.00
H308   H     0.60761   0.18775   0.76387   0.00000  Uiso   1.00
H309   H     0.68762   0.14582   0.93592   0.00000  Uiso   1.00
H310   H     0.72129   0.38525   0.86141   0.00000  Uiso   1.00
H311   H     0.56386   0.12300   0.65831   0.00000  Uiso   1.00
H312   H     0.73257   0.03460   0.02111   0.00000  Uiso   1.00
H313   H     0.80358   0.53948   0.86399   0.00000  Uiso   1.00
O314   O     0.64131   0.05770   0.57357   0.00000  Uiso   1.00
O315   O     0.86266   0.94174   0.04955   0.00000  Uiso   1.00
O316   O     0.95582   0.60413   0.84341   0.00000  Uiso   1.00
N317   N     0.75717   0.08221   0.63121   0.00000  Uiso   1.00
N318   N     0.91490   0.99955   0.97039   0.00000  Uiso   1.00
N319   N     0.98130   0.47157   0.82352   0.00000  Uiso   1.00
N320   N     0.62811   0.11574   0.65879   0.00000  Uiso   1.00
N321   N     0.78585   0.03308   0.99798   0.00000  Uiso   1.00
N322   N     0.85224   0.50510   0.85111   0.00000  Uiso   1.00
C323   C     0.60419   0.31849   0.30592   0.00000  Uiso   1.00
C324   C     0.67394   0.33765   0.26450   0.00000  Uiso   1.00
C325   C     0.66069   0.37245   0.21432   0.00000  Uiso   1.00
C326   C     0.73288   0.38509   0.18234   0.00000  Uiso   1.00
C327   C     0.82865   0.41814   0.11537   0.00000  Uiso   1.00
C328   C     0.63047   0.36044   0.35798   0.00000  Uiso   1.00
C329   C     0.58067   0.41440   0.38640   0.00000  Uiso   1.00
C330   C     0.61628   0.44622   0.43312   0.00000  Uiso   1.00
C331   C     0.64453   0.51461   0.51130   0.00000  Uiso   1.00
C332   C     0.61218   0.23036   0.31750   0.00000  Uiso   1.00
C333   C     0.54699   0.17493   0.31188   0.00000  Uiso   1.00
C334   C     0.56719   0.09723   0.32453   0.00000  Uiso   1.00
C335   C     0.56703   0.96364   0.33984   0.00000  Uiso   1.00
C336   C     0.75596   0.27906   0.33836   0.00000  Uiso   1.00
C337   C     0.75637   0.31623   0.28213   0.00000  Uiso   1.00
C338   C     0.82861   0.32882   0.25022   0.00000  Uiso   1.00
C339   C     0.81547   0.36363   0.20000   0.00000  Uiso   1.00
C340   C     0.71290   0.33903   0.37561   0.00000  Uiso   1.00
C341   C     0.74859   0.37077   0.42230   0.00000  Uiso   1.00
C342   C     0.69886   0.42477   0.45077   0.00000  Uiso   1.00
C343   C     0.69461   0.20894   0.33512   0.00000  Uiso   1.00
C344   C     0.71491   0.13131   0.34778   0.00000  Uiso   1.00
C345   C     0.64977   0.07577   0.34218   0.00000  Uiso   1.00
H346   H     0.54001   0.33516   0.29220   0.00000  Uiso   1.00
H347   H     0.59689   0.38902   0.20070   0.00000  Uiso   1.00
H348   H     0.51688   0.43096   0.37275   0.00000  Uiso   1.00
H349   H     0.48321   0.19153   0.29824   0.00000  Uiso   1.00
H350   H     0.69630   0.43931   0.10704   0.00000  Uiso   1.00
H351   H     0.52759   0.52771   0.46983   0.00000  Uiso   1.00
H352   H     0.45658   0.02283   0.31272   0.00000  Uiso   1.00
H353   H     0.82014   0.26238   0.35208   0.00000  Uiso   1.00
H354   H     0.89239   0.31225   0.26387   0.00000  Uiso   1.00
H355   H     0.81238   0.35418   0.43592   0.00000  Uiso   1.00
H356   H     0.77871   0.11475   0.36141   0.00000  Uiso   1.00
H357   H     0.93614   0.37700   0.15831   0.00000  Uiso   1.00
H358   H     0.76743   0.46540   0.52111   0.00000  Uiso   1.00
H359   H     0.69642   0.96052   0.36399   0.00000  Uiso   1.00
O360   O     0.85869   0.44230   0.07357   0.00000  Uiso   1.00
O361   O     0.63734   0.55826   0.54955   0.00000  Uiso   1.00
O362   O     0.54418   0.89587   0.34341   0.00000  Uiso   1.00
N363   N     0.74283   0.41779   0.13121   0.00000  Uiso   1.00
N364   N     0.58510   0.50045   0.47039   0.00000  Uiso   1.00
N365   N     0.51870   0.02843   0.32352   0.00000  Uiso   1.00
N366   N     0.87189   0.38426   0.15879   0.00000  Uiso   1.00
N367   N     0.71415   0.46692   0.49798   0.00000  Uiso   1.00
N368   N     0.64776   0.99490   0.35111   0.00000  Uiso   1.00
