data_job_01339
_audit_creation_date              2018-12-19
_audit_creation_method            'Materials Studio'
_symmetry_space_group_name_H-M    'P1'
_symmetry_Int_Tables_number       1
_symmetry_cell_setting            triclinic
loop_
_symmetry_equiv_pos_as_xyz
  x,y,z
_cell_length_a                    46.9276
_cell_length_b                    7.2711
_cell_length_c                    18.5825
_cell_angle_alpha                 90.0000
_cell_angle_beta                  90.0000
_cell_angle_gamma                 90.0000
loop_
_atom_site_label
_atom_site_type_symbol
_atom_site_fract_x
_atom_site_fract_y
_atom_site_fract_z
_atom_site_U_iso_or_equiv
_atom_site_adp_type
_atom_site_occupancy
C1     C     0.62348   0.90490   0.57231   0.00000  Uiso   1.00
C2     C     0.59725   0.99217   0.60663   0.00000  Uiso   1.00
C3     C     0.57626   0.89938   0.64471   0.00000  Uiso   1.00
C4     C     0.55396   0.00399   0.67186   0.00000  Uiso   1.00
C5     C     0.51340   0.11050   0.72673   0.00000  Uiso   1.00
C6     C     0.62254   0.95773   0.49293   0.00000  Uiso   1.00
C7     C     0.62282   0.83599   0.43541   0.00000  Uiso   1.00
C8     C     0.62182   0.91162   0.36685   0.00000  Uiso   1.00
C9     C     0.62054   0.96467   0.24520   0.00000  Uiso   1.00
C10    C     0.64911   0.00518   0.60401   0.00000  Uiso   1.00
C11    C     0.67174   0.92334   0.63987   0.00000  Uiso   1.00
C12    C     0.69312   0.03893   0.66481   0.00000  Uiso   1.00
C13    C     0.73311   0.16565   0.71563   0.00000  Uiso   1.00
C14    C     0.62122   0.25568   0.55282   0.00000  Uiso   1.00
C15    C     0.59601   0.18270   0.59604   0.00000  Uiso   1.00
C16    C     0.57375   0.28748   0.62315   0.00000  Uiso   1.00
C17    C     0.55273   0.19487   0.66126   0.00000  Uiso   1.00
C18    C     0.62130   0.14825   0.48234   0.00000  Uiso   1.00
C19    C     0.62031   0.22408   0.41385   0.00000  Uiso   1.00
C20    C     0.62058   0.10249   0.35624   0.00000  Uiso   1.00
C21    C     0.64788   0.19572   0.59342   0.00000  Uiso   1.00
C22    C     0.66923   0.31144   0.61831   0.00000  Uiso   1.00
C23    C     0.69189   0.22980   0.65421   0.00000  Uiso   1.00
H24    H     0.62444   0.75657   0.58054   0.00000  Uiso   1.00
H25    H     0.57722   0.75193   0.65288   0.00000  Uiso   1.00
H26    H     0.62377   0.68856   0.44362   0.00000  Uiso   1.00
H27    H     0.67269   0.77590   0.64805   0.00000  Uiso   1.00
H28    H     0.52431   0.83081   0.72839   0.00000  Uiso   1.00
H29    H     0.62248   0.69718   0.28715   0.00000  Uiso   1.00
H30    H     0.72564   0.88136   0.71822   0.00000  Uiso   1.00
H31    H     0.62026   0.40402   0.54458   0.00000  Uiso   1.00
H32    H     0.57280   0.43492   0.61495   0.00000  Uiso   1.00
H33    H     0.61936   0.37153   0.40568   0.00000  Uiso   1.00
H34    H     0.66827   0.45888   0.61011   0.00000  Uiso   1.00
H35    H     0.52072   0.38514   0.69760   0.00000  Uiso   1.00
H36    H     0.61890   0.25151   0.25635   0.00000  Uiso   1.00
H37    H     0.72205   0.43569   0.68743   0.00000  Uiso   1.00
O38    O     0.49137   0.11661   0.75991   0.00000  Uiso   1.00
O39    O     0.62017   0.94129   0.18102   0.00000  Uiso   1.00
O40    O     0.75551   0.18293   0.74659   0.00000  Uiso   1.00
N41    N     0.52998   0.95704   0.71150   0.00000  Uiso   1.00
N42    N     0.62176   0.83209   0.29896   0.00000  Uiso   1.00
N43    N     0.71821   0.00428   0.70197   0.00000  Uiso   1.00
N44    N     0.52805   0.25532   0.69493   0.00000  Uiso   1.00
N45    N     0.61983   0.13038   0.28239   0.00000  Uiso   1.00
N46    N     0.71628   0.30257   0.68540   0.00000  Uiso   1.00
C47    C     0.87652   0.09510   0.07231   0.00000  Uiso   1.00
C48    C     0.90275   0.00783   0.10663   0.00000  Uiso   1.00
C49    C     0.92374   0.10062   0.14471   0.00000  Uiso   1.00
C50    C     0.94604   0.99601   0.17186   0.00000  Uiso   1.00
C51    C     0.98660   0.88950   0.22673   0.00000  Uiso   1.00
C52    C     0.87746   0.04227   0.99293   0.00000  Uiso   1.00
C53    C     0.87718   0.16401   0.93541   0.00000  Uiso   1.00
C54    C     0.87818   0.08838   0.86685   0.00000  Uiso   1.00
C55    C     0.87946   0.03533   0.74520   0.00000  Uiso   1.00
C56    C     0.85089   0.99482   0.10401   0.00000  Uiso   1.00
C57    C     0.82826   0.07666   0.13987   0.00000  Uiso   1.00
C58    C     0.80688   0.96107   0.16481   0.00000  Uiso   1.00
C59    C     0.76689   0.83435   0.21563   0.00000  Uiso   1.00
C60    C     0.87878   0.74432   0.05282   0.00000  Uiso   1.00
C61    C     0.90399   0.81730   0.09604   0.00000  Uiso   1.00
C62    C     0.92625   0.71252   0.12315   0.00000  Uiso   1.00
C63    C     0.94727   0.80513   0.16126   0.00000  Uiso   1.00
C64    C     0.87870   0.85175   0.98234   0.00000  Uiso   1.00
C65    C     0.87969   0.77592   0.91385   0.00000  Uiso   1.00
C66    C     0.87942   0.89751   0.85624   0.00000  Uiso   1.00
C67    C     0.85212   0.80428   0.09342   0.00000  Uiso   1.00
C68    C     0.83077   0.68856   0.11831   0.00000  Uiso   1.00
C69    C     0.80811   0.77020   0.15421   0.00000  Uiso   1.00
H70    H     0.87556   0.24343   0.08054   0.00000  Uiso   1.00
H71    H     0.92278   0.24807   0.15288   0.00000  Uiso   1.00
H72    H     0.87623   0.31144   0.94362   0.00000  Uiso   1.00
H73    H     0.82731   0.22410   0.14805   0.00000  Uiso   1.00
H74    H     0.97569   0.16919   0.22839   0.00000  Uiso   1.00
H75    H     0.87752   0.30282   0.78715   0.00000  Uiso   1.00
H76    H     0.77436   0.11864   0.21822   0.00000  Uiso   1.00
H77    H     0.87974   0.59598   0.04458   0.00000  Uiso   1.00
H78    H     0.92720   0.56508   0.11495   0.00000  Uiso   1.00
H79    H     0.88064   0.62847   0.90568   0.00000  Uiso   1.00
H80    H     0.83173   0.54112   0.11011   0.00000  Uiso   1.00
H81    H     0.97928   0.61486   0.19760   0.00000  Uiso   1.00
H82    H     0.88110   0.74849   0.75635   0.00000  Uiso   1.00
H83    H     0.77795   0.56431   0.18743   0.00000  Uiso   1.00
O84    O     0.00863   0.88339   0.25991   0.00000  Uiso   1.00
O85    O     0.87983   0.05871   0.68102   0.00000  Uiso   1.00
O86    O     0.74449   0.81707   0.24659   0.00000  Uiso   1.00
N87    N     0.97002   0.04296   0.21150   0.00000  Uiso   1.00
N88    N     0.87824   0.16791   0.79896   0.00000  Uiso   1.00
N89    N     0.78179   0.99572   0.20197   0.00000  Uiso   1.00
N90    N     0.97195   0.74468   0.19493   0.00000  Uiso   1.00
N91    N     0.88017   0.86962   0.78239   0.00000  Uiso   1.00
N92    N     0.78372   0.69743   0.18540   0.00000  Uiso   1.00
C93    C     0.37652   0.40490   0.92769   0.00000  Uiso   1.00
C94    C     0.40275   0.49217   0.89337   0.00000  Uiso   1.00
C95    C     0.42374   0.39938   0.85529   0.00000  Uiso   1.00
C96    C     0.44604   0.50399   0.82814   0.00000  Uiso   1.00
C97    C     0.48660   0.61050   0.77327   0.00000  Uiso   1.00
C98    C     0.37746   0.45773   0.00707   0.00000  Uiso   1.00
C99    C     0.37718   0.33599   0.06459   0.00000  Uiso   1.00
C100   C     0.37818   0.41162   0.13315   0.00000  Uiso   1.00
C101   C     0.37946   0.46467   0.25480   0.00000  Uiso   1.00
C102   C     0.35089   0.50518   0.89599   0.00000  Uiso   1.00
C103   C     0.32826   0.42334   0.86013   0.00000  Uiso   1.00
C104   C     0.30688   0.53893   0.83519   0.00000  Uiso   1.00
C105   C     0.26689   0.66565   0.78437   0.00000  Uiso   1.00
C106   C     0.37878   0.75568   0.94718   0.00000  Uiso   1.00
C107   C     0.40399   0.68270   0.90396   0.00000  Uiso   1.00
C108   C     0.42625   0.78748   0.87685   0.00000  Uiso   1.00
C109   C     0.44727   0.69487   0.83874   0.00000  Uiso   1.00
C110   C     0.37870   0.64825   0.01766   0.00000  Uiso   1.00
C111   C     0.37969   0.72408   0.08615   0.00000  Uiso   1.00
C112   C     0.37942   0.60249   0.14376   0.00000  Uiso   1.00
C113   C     0.35212   0.69572   0.90658   0.00000  Uiso   1.00
C114   C     0.33077   0.81144   0.88169   0.00000  Uiso   1.00
C115   C     0.30811   0.72980   0.84579   0.00000  Uiso   1.00
H116   H     0.37556   0.25657   0.91946   0.00000  Uiso   1.00
H117   H     0.42278   0.25193   0.84712   0.00000  Uiso   1.00
H118   H     0.37623   0.18856   0.05638   0.00000  Uiso   1.00
H119   H     0.32731   0.27590   0.85195   0.00000  Uiso   1.00
H120   H     0.47569   0.33081   0.77161   0.00000  Uiso   1.00
H121   H     0.37752   0.19718   0.21285   0.00000  Uiso   1.00
H122   H     0.27436   0.38136   0.78178   0.00000  Uiso   1.00
H123   H     0.37974   0.90402   0.95542   0.00000  Uiso   1.00
H124   H     0.42720   0.93492   0.88505   0.00000  Uiso   1.00
H125   H     0.38064   0.87153   0.09432   0.00000  Uiso   1.00
H126   H     0.33173   0.95888   0.88989   0.00000  Uiso   1.00
H127   H     0.47928   0.88514   0.80240   0.00000  Uiso   1.00
H128   H     0.38110   0.75151   0.24365   0.00000  Uiso   1.00
H129   H     0.27795   0.93569   0.81257   0.00000  Uiso   1.00
O130   O     0.50863   0.61661   0.74009   0.00000  Uiso   1.00
O131   O     0.37983   0.44129   0.31898   0.00000  Uiso   1.00
O132   O     0.24449   0.68293   0.75341   0.00000  Uiso   1.00
N133   N     0.47002   0.45704   0.78850   0.00000  Uiso   1.00
N134   N     0.37824   0.33209   0.20104   0.00000  Uiso   1.00
N135   N     0.28179   0.50428   0.79803   0.00000  Uiso   1.00
N136   N     0.47195   0.75532   0.80507   0.00000  Uiso   1.00
N137   N     0.38017   0.63038   0.21761   0.00000  Uiso   1.00
N138   N     0.28372   0.80257   0.81460   0.00000  Uiso   1.00
C139   C     0.12348   0.59510   0.42769   0.00000  Uiso   1.00
C140   C     0.09725   0.50783   0.39337   0.00000  Uiso   1.00
C141   C     0.07626   0.60062   0.35529   0.00000  Uiso   1.00
C142   C     0.05396   0.49601   0.32814   0.00000  Uiso   1.00
C143   C     0.01340   0.38950   0.27327   0.00000  Uiso   1.00
C144   C     0.12254   0.54227   0.50707   0.00000  Uiso   1.00
C145   C     0.12282   0.66401   0.56459   0.00000  Uiso   1.00
C146   C     0.12182   0.58838   0.63315   0.00000  Uiso   1.00
C147   C     0.12054   0.53533   0.75480   0.00000  Uiso   1.00
C148   C     0.14911   0.49482   0.39599   0.00000  Uiso   1.00
C149   C     0.17174   0.57666   0.36013   0.00000  Uiso   1.00
C150   C     0.19312   0.46107   0.33519   0.00000  Uiso   1.00
C151   C     0.23311   0.33435   0.28437   0.00000  Uiso   1.00
C152   C     0.12122   0.24432   0.44718   0.00000  Uiso   1.00
C153   C     0.09601   0.31730   0.40396   0.00000  Uiso   1.00
C154   C     0.07375   0.21252   0.37685   0.00000  Uiso   1.00
C155   C     0.05273   0.30513   0.33874   0.00000  Uiso   1.00
C156   C     0.12130   0.35175   0.51766   0.00000  Uiso   1.00
C157   C     0.12031   0.27592   0.58615   0.00000  Uiso   1.00
C158   C     0.12058   0.39751   0.64376   0.00000  Uiso   1.00
C159   C     0.14788   0.30428   0.40658   0.00000  Uiso   1.00
C160   C     0.16923   0.18856   0.38169   0.00000  Uiso   1.00
C161   C     0.19189   0.27020   0.34579   0.00000  Uiso   1.00
H162   H     0.12444   0.74343   0.41946   0.00000  Uiso   1.00
H163   H     0.07722   0.74807   0.34712   0.00000  Uiso   1.00
H164   H     0.12377   0.81144   0.55638   0.00000  Uiso   1.00
H165   H     0.17269   0.72410   0.35195   0.00000  Uiso   1.00
H166   H     0.02431   0.66919   0.27161   0.00000  Uiso   1.00
H167   H     0.12248   0.80282   0.71285   0.00000  Uiso   1.00
H168   H     0.22564   0.61864   0.28178   0.00000  Uiso   1.00
H169   H     0.12026   0.09598   0.45542   0.00000  Uiso   1.00
H170   H     0.07280   0.06508   0.38505   0.00000  Uiso   1.00
H171   H     0.11936   0.12847   0.59432   0.00000  Uiso   1.00
H172   H     0.16827   0.04112   0.38989   0.00000  Uiso   1.00
H173   H     0.02072   0.11486   0.30240   0.00000  Uiso   1.00
H174   H     0.11890   0.24849   0.74365   0.00000  Uiso   1.00
H175   H     0.22205   0.06431   0.31257   0.00000  Uiso   1.00
O176   O     0.99137   0.38339   0.24009   0.00000  Uiso   1.00
O177   O     0.12017   0.55871   0.81898   0.00000  Uiso   1.00
O178   O     0.25551   0.31707   0.25341   0.00000  Uiso   1.00
N179   N     0.02998   0.54296   0.28850   0.00000  Uiso   1.00
N180   N     0.12176   0.66791   0.70104   0.00000  Uiso   1.00
N181   N     0.21821   0.49572   0.29803   0.00000  Uiso   1.00
N182   N     0.02805   0.24468   0.30507   0.00000  Uiso   1.00
N183   N     0.11983   0.36962   0.71761   0.00000  Uiso   1.00
N184   N     0.21628   0.19743   0.31460   0.00000  Uiso   1.00
C185   C     0.37652   0.09510   0.42769   0.00000  Uiso   1.00
C186   C     0.40275   0.00783   0.39337   0.00000  Uiso   1.00
C187   C     0.42374   0.10062   0.35529   0.00000  Uiso   1.00
C188   C     0.44604   0.99601   0.32814   0.00000  Uiso   1.00
C189   C     0.48660   0.88950   0.27327   0.00000  Uiso   1.00
C190   C     0.37746   0.04227   0.50707   0.00000  Uiso   1.00
C191   C     0.37718   0.16401   0.56459   0.00000  Uiso   1.00
C192   C     0.37818   0.08838   0.63315   0.00000  Uiso   1.00
C193   C     0.37946   0.03533   0.75480   0.00000  Uiso   1.00
C194   C     0.35089   0.99482   0.39599   0.00000  Uiso   1.00
C195   C     0.32826   0.07666   0.36013   0.00000  Uiso   1.00
C196   C     0.30688   0.96107   0.33519   0.00000  Uiso   1.00
C197   C     0.26689   0.83435   0.28437   0.00000  Uiso   1.00
C198   C     0.37878   0.74432   0.44718   0.00000  Uiso   1.00
C199   C     0.40399   0.81730   0.40396   0.00000  Uiso   1.00
C200   C     0.42625   0.71252   0.37685   0.00000  Uiso   1.00
C201   C     0.44727   0.80513   0.33874   0.00000  Uiso   1.00
C202   C     0.37870   0.85175   0.51766   0.00000  Uiso   1.00
C203   C     0.37969   0.77592   0.58615   0.00000  Uiso   1.00
C204   C     0.37942   0.89751   0.64376   0.00000  Uiso   1.00
C205   C     0.35212   0.80428   0.40658   0.00000  Uiso   1.00
C206   C     0.33077   0.68856   0.38169   0.00000  Uiso   1.00
C207   C     0.30811   0.77020   0.34579   0.00000  Uiso   1.00
H208   H     0.37556   0.24343   0.41946   0.00000  Uiso   1.00
H209   H     0.42278   0.24807   0.34712   0.00000  Uiso   1.00
H210   H     0.37623   0.31144   0.55638   0.00000  Uiso   1.00
H211   H     0.32731   0.22410   0.35195   0.00000  Uiso   1.00
H212   H     0.47569   0.16919   0.27161   0.00000  Uiso   1.00
H213   H     0.37752   0.30282   0.71285   0.00000  Uiso   1.00
H214   H     0.27436   0.11864   0.28178   0.00000  Uiso   1.00
H215   H     0.37974   0.59598   0.45542   0.00000  Uiso   1.00
H216   H     0.42720   0.56508   0.38505   0.00000  Uiso   1.00
H217   H     0.38064   0.62847   0.59432   0.00000  Uiso   1.00
H218   H     0.33173   0.54112   0.38989   0.00000  Uiso   1.00
H219   H     0.47928   0.61486   0.30240   0.00000  Uiso   1.00
H220   H     0.38110   0.74849   0.74365   0.00000  Uiso   1.00
H221   H     0.27795   0.56431   0.31257   0.00000  Uiso   1.00
O222   O     0.50863   0.88339   0.24009   0.00000  Uiso   1.00
O223   O     0.37983   0.05871   0.81898   0.00000  Uiso   1.00
O224   O     0.24449   0.81707   0.25341   0.00000  Uiso   1.00
N225   N     0.47002   0.04296   0.28850   0.00000  Uiso   1.00
N226   N     0.37824   0.16791   0.70104   0.00000  Uiso   1.00
N227   N     0.28179   0.99572   0.29803   0.00000  Uiso   1.00
N228   N     0.47195   0.74468   0.30507   0.00000  Uiso   1.00
N229   N     0.38017   0.86962   0.71761   0.00000  Uiso   1.00
N230   N     0.28372   0.69743   0.31460   0.00000  Uiso   1.00
C231   C     0.12348   0.90490   0.92769   0.00000  Uiso   1.00
C232   C     0.09725   0.99217   0.89337   0.00000  Uiso   1.00
C233   C     0.07626   0.89938   0.85529   0.00000  Uiso   1.00
C234   C     0.05396   0.00399   0.82814   0.00000  Uiso   1.00
C235   C     0.01340   0.11050   0.77327   0.00000  Uiso   1.00
C236   C     0.12254   0.95773   0.00707   0.00000  Uiso   1.00
C237   C     0.12282   0.83599   0.06459   0.00000  Uiso   1.00
C238   C     0.12182   0.91162   0.13315   0.00000  Uiso   1.00
C239   C     0.12054   0.96467   0.25480   0.00000  Uiso   1.00
C240   C     0.14911   0.00518   0.89599   0.00000  Uiso   1.00
C241   C     0.17174   0.92334   0.86013   0.00000  Uiso   1.00
C242   C     0.19312   0.03893   0.83519   0.00000  Uiso   1.00
C243   C     0.23311   0.16565   0.78437   0.00000  Uiso   1.00
C244   C     0.12122   0.25568   0.94718   0.00000  Uiso   1.00
C245   C     0.09601   0.18270   0.90396   0.00000  Uiso   1.00
C246   C     0.07375   0.28748   0.87685   0.00000  Uiso   1.00
C247   C     0.05273   0.19487   0.83874   0.00000  Uiso   1.00
C248   C     0.12130   0.14825   0.01766   0.00000  Uiso   1.00
C249   C     0.12031   0.22408   0.08615   0.00000  Uiso   1.00
C250   C     0.12058   0.10249   0.14376   0.00000  Uiso   1.00
C251   C     0.14788   0.19572   0.90658   0.00000  Uiso   1.00
C252   C     0.16923   0.31144   0.88169   0.00000  Uiso   1.00
C253   C     0.19189   0.22980   0.84579   0.00000  Uiso   1.00
H254   H     0.12444   0.75657   0.91946   0.00000  Uiso   1.00
H255   H     0.07722   0.75193   0.84712   0.00000  Uiso   1.00
H256   H     0.12377   0.68856   0.05638   0.00000  Uiso   1.00
H257   H     0.17269   0.77590   0.85195   0.00000  Uiso   1.00
H258   H     0.02431   0.83081   0.77161   0.00000  Uiso   1.00
H259   H     0.12248   0.69718   0.21285   0.00000  Uiso   1.00
H260   H     0.22564   0.88136   0.78178   0.00000  Uiso   1.00
H261   H     0.12026   0.40402   0.95542   0.00000  Uiso   1.00
H262   H     0.07280   0.43492   0.88505   0.00000  Uiso   1.00
H263   H     0.11936   0.37153   0.09432   0.00000  Uiso   1.00
H264   H     0.16827   0.45888   0.88989   0.00000  Uiso   1.00
H265   H     0.02072   0.38514   0.80240   0.00000  Uiso   1.00
H266   H     0.11890   0.25151   0.24365   0.00000  Uiso   1.00
H267   H     0.22205   0.43569   0.81257   0.00000  Uiso   1.00
O268   O     0.99137   0.11661   0.74009   0.00000  Uiso   1.00
O269   O     0.12017   0.94129   0.31898   0.00000  Uiso   1.00
O270   O     0.25551   0.18293   0.75341   0.00000  Uiso   1.00
N271   N     0.02998   0.95704   0.78850   0.00000  Uiso   1.00
N272   N     0.12176   0.83209   0.20104   0.00000  Uiso   1.00
N273   N     0.21821   0.00428   0.79803   0.00000  Uiso   1.00
N274   N     0.02805   0.25532   0.80507   0.00000  Uiso   1.00
N275   N     0.11983   0.13038   0.21761   0.00000  Uiso   1.00
N276   N     0.21628   0.30257   0.81460   0.00000  Uiso   1.00
C277   C     0.62348   0.59510   0.07231   0.00000  Uiso   1.00
C278   C     0.59725   0.50783   0.10663   0.00000  Uiso   1.00
C279   C     0.57626   0.60062   0.14471   0.00000  Uiso   1.00
C280   C     0.55396   0.49601   0.17186   0.00000  Uiso   1.00
C281   C     0.51340   0.38950   0.22673   0.00000  Uiso   1.00
C282   C     0.62254   0.54227   0.99293   0.00000  Uiso   1.00
C283   C     0.62282   0.66401   0.93541   0.00000  Uiso   1.00
C284   C     0.62182   0.58838   0.86685   0.00000  Uiso   1.00
C285   C     0.62054   0.53533   0.74520   0.00000  Uiso   1.00
C286   C     0.64911   0.49482   0.10401   0.00000  Uiso   1.00
C287   C     0.67174   0.57666   0.13987   0.00000  Uiso   1.00
C288   C     0.69312   0.46107   0.16481   0.00000  Uiso   1.00
C289   C     0.73311   0.33435   0.21563   0.00000  Uiso   1.00
C290   C     0.62122   0.24432   0.05282   0.00000  Uiso   1.00
C291   C     0.59601   0.31730   0.09604   0.00000  Uiso   1.00
C292   C     0.57375   0.21252   0.12315   0.00000  Uiso   1.00
C293   C     0.55273   0.30513   0.16126   0.00000  Uiso   1.00
C294   C     0.62130   0.35175   0.98234   0.00000  Uiso   1.00
C295   C     0.62031   0.27592   0.91385   0.00000  Uiso   1.00
C296   C     0.62058   0.39751   0.85624   0.00000  Uiso   1.00
C297   C     0.64788   0.30428   0.09342   0.00000  Uiso   1.00
C298   C     0.66923   0.18856   0.11831   0.00000  Uiso   1.00
C299   C     0.69189   0.27020   0.15421   0.00000  Uiso   1.00
H300   H     0.62444   0.74343   0.08054   0.00000  Uiso   1.00
H301   H     0.57722   0.74807   0.15288   0.00000  Uiso   1.00
H302   H     0.62377   0.81144   0.94362   0.00000  Uiso   1.00
H303   H     0.67269   0.72410   0.14805   0.00000  Uiso   1.00
H304   H     0.52431   0.66919   0.22839   0.00000  Uiso   1.00
H305   H     0.62248   0.80282   0.78715   0.00000  Uiso   1.00
H306   H     0.72564   0.61864   0.21822   0.00000  Uiso   1.00
H307   H     0.62026   0.09598   0.04458   0.00000  Uiso   1.00
H308   H     0.57280   0.06508   0.11495   0.00000  Uiso   1.00
H309   H     0.61936   0.12847   0.90568   0.00000  Uiso   1.00
H310   H     0.66827   0.04112   0.11011   0.00000  Uiso   1.00
H311   H     0.52072   0.11486   0.19760   0.00000  Uiso   1.00
H312   H     0.61890   0.24849   0.75635   0.00000  Uiso   1.00
H313   H     0.72205   0.06431   0.18743   0.00000  Uiso   1.00
O314   O     0.49137   0.38339   0.25991   0.00000  Uiso   1.00
O315   O     0.62017   0.55871   0.68102   0.00000  Uiso   1.00
O316   O     0.75551   0.31707   0.24659   0.00000  Uiso   1.00
N317   N     0.52998   0.54296   0.21150   0.00000  Uiso   1.00
N318   N     0.62176   0.66791   0.79896   0.00000  Uiso   1.00
N319   N     0.71821   0.49572   0.20197   0.00000  Uiso   1.00
N320   N     0.52805   0.24468   0.19493   0.00000  Uiso   1.00
N321   N     0.61983   0.36962   0.78239   0.00000  Uiso   1.00
N322   N     0.71628   0.19743   0.18540   0.00000  Uiso   1.00
C323   C     0.87652   0.40490   0.57231   0.00000  Uiso   1.00
C324   C     0.90275   0.49217   0.60663   0.00000  Uiso   1.00
C325   C     0.92374   0.39938   0.64471   0.00000  Uiso   1.00
C326   C     0.94604   0.50399   0.67186   0.00000  Uiso   1.00
C327   C     0.98660   0.61050   0.72673   0.00000  Uiso   1.00
C328   C     0.87746   0.45773   0.49293   0.00000  Uiso   1.00
C329   C     0.87718   0.33599   0.43541   0.00000  Uiso   1.00
C330   C     0.87818   0.41162   0.36685   0.00000  Uiso   1.00
C331   C     0.87946   0.46467   0.24520   0.00000  Uiso   1.00
C332   C     0.85089   0.50518   0.60401   0.00000  Uiso   1.00
C333   C     0.82826   0.42334   0.63987   0.00000  Uiso   1.00
C334   C     0.80688   0.53893   0.66481   0.00000  Uiso   1.00
C335   C     0.76689   0.66565   0.71563   0.00000  Uiso   1.00
C336   C     0.87878   0.75568   0.55282   0.00000  Uiso   1.00
C337   C     0.90399   0.68270   0.59604   0.00000  Uiso   1.00
C338   C     0.92625   0.78748   0.62315   0.00000  Uiso   1.00
C339   C     0.94727   0.69487   0.66126   0.00000  Uiso   1.00
C340   C     0.87870   0.64825   0.48234   0.00000  Uiso   1.00
C341   C     0.87969   0.72408   0.41385   0.00000  Uiso   1.00
C342   C     0.87942   0.60249   0.35624   0.00000  Uiso   1.00
C343   C     0.85212   0.69572   0.59342   0.00000  Uiso   1.00
C344   C     0.83077   0.81144   0.61831   0.00000  Uiso   1.00
C345   C     0.80811   0.72980   0.65421   0.00000  Uiso   1.00
H346   H     0.87556   0.25657   0.58054   0.00000  Uiso   1.00
H347   H     0.92278   0.25193   0.65288   0.00000  Uiso   1.00
H348   H     0.87623   0.18856   0.44362   0.00000  Uiso   1.00
H349   H     0.82731   0.27590   0.64805   0.00000  Uiso   1.00
H350   H     0.97569   0.33081   0.72839   0.00000  Uiso   1.00
H351   H     0.87752   0.19718   0.28715   0.00000  Uiso   1.00
H352   H     0.77436   0.38136   0.71822   0.00000  Uiso   1.00
H353   H     0.87974   0.90402   0.54458   0.00000  Uiso   1.00
H354   H     0.92720   0.93492   0.61495   0.00000  Uiso   1.00
H355   H     0.88064   0.87153   0.40568   0.00000  Uiso   1.00
H356   H     0.83173   0.95888   0.61011   0.00000  Uiso   1.00
H357   H     0.97928   0.88514   0.69760   0.00000  Uiso   1.00
H358   H     0.88110   0.75151   0.25635   0.00000  Uiso   1.00
H359   H     0.77795   0.93569   0.68743   0.00000  Uiso   1.00
O360   O     0.00863   0.61661   0.75991   0.00000  Uiso   1.00
O361   O     0.87983   0.44129   0.18102   0.00000  Uiso   1.00
O362   O     0.74449   0.68293   0.74659   0.00000  Uiso   1.00
N363   N     0.97002   0.45704   0.71150   0.00000  Uiso   1.00
N364   N     0.87824   0.33209   0.29896   0.00000  Uiso   1.00
N365   N     0.78179   0.50428   0.70197   0.00000  Uiso   1.00
N366   N     0.97195   0.75532   0.69493   0.00000  Uiso   1.00
N367   N     0.88017   0.63038   0.28239   0.00000  Uiso   1.00
N368   N     0.78372   0.80257   0.68540   0.00000  Uiso   1.00
