data_job_05053
_audit_creation_date              2018-12-19
_audit_creation_method            'Materials Studio'
_symmetry_space_group_name_H-M    'P1'
_symmetry_Int_Tables_number       1
_symmetry_cell_setting            triclinic
loop_
_symmetry_equiv_pos_as_xyz
  x,y,z
_cell_length_a                    40.9972
_cell_length_b                    12.4528
_cell_length_c                    13.1430
_cell_angle_alpha                 90.0000
_cell_angle_beta                  90.0000
_cell_angle_gamma                 90.0000
loop_
_atom_site_label
_atom_site_type_symbol
_atom_site_fract_x
_atom_site_fract_y
_atom_site_fract_z
_atom_site_U_iso_or_equiv
_atom_site_adp_type
_atom_site_occupancy
C1     C     0.15490   0.86794   0.92005   0.00000  Uiso   1.00
C2     C     0.17015   0.95055   0.99126   0.00000  Uiso   1.00
C3     C     0.18409   0.04728   0.96195   0.00000  Uiso   1.00
C4     C     0.19673   0.11172   0.03861   0.00000  Uiso   1.00
C5     C     0.22062   0.24473   0.13362   0.00000  Uiso   1.00
C6     C     0.17283   0.76274   0.94003   0.00000  Uiso   1.00
C7     C     0.18901   0.70156   0.86762   0.00000  Uiso   1.00
C8     C     0.20390   0.60788   0.90116   0.00000  Uiso   1.00
C9     C     0.23193   0.44927   0.91661   0.00000  Uiso   1.00
C10    C     0.12011   0.85105   0.95791   0.00000  Uiso   1.00
C11    C     0.09197   0.86409   0.90053   0.00000  Uiso   1.00
C12    C     0.06248   0.84473   0.94912   0.00000  Uiso   1.00
C13    C     0.00866   0.82324   0.99233   0.00000  Uiso   1.00
C14    C     0.15256   0.81035   0.10834   0.00000  Uiso   1.00
C15    C     0.16888   0.91927   0.09353   0.00000  Uiso   1.00
C16    C     0.18150   0.98357   0.17027   0.00000  Uiso   1.00
C17    C     0.19545   0.08038   0.14107   0.00000  Uiso   1.00
C18    C     0.17156   0.73146   0.04229   0.00000  Uiso   1.00
C19    C     0.18643   0.63785   0.07594   0.00000  Uiso   1.00
C20    C     0.20263   0.57654   0.00362   0.00000  Uiso   1.00
C21    C     0.11884   0.81977   0.06018   0.00000  Uiso   1.00
C22    C     0.08939   0.80038   0.10886   0.00000  Uiso   1.00
C23    C     0.06121   0.81339   0.05158   0.00000  Uiso   1.00
H24    H     0.15588   0.89228   0.84043   0.00000  Uiso   1.00
H25    H     0.18507   0.07146   0.88279   0.00000  Uiso   1.00
H26    H     0.18998   0.72578   0.78848   0.00000  Uiso   1.00
H27    H     0.09296   0.88829   0.82139   0.00000  Uiso   1.00
H28    H     0.21687   0.25629   0.97485   0.00000  Uiso   1.00
H29    H     0.22723   0.52740   0.77599   0.00000  Uiso   1.00
H30    H     0.02264   0.87008   0.84539   0.00000  Uiso   1.00
H31    H     0.15157   0.78599   0.18797   0.00000  Uiso   1.00
H32    H     0.18052   0.95935   0.24940   0.00000  Uiso   1.00
H33    H     0.18544   0.61366   0.15509   0.00000  Uiso   1.00
H34    H     0.08842   0.77618   0.18800   0.00000  Uiso   1.00
H35    H     0.21318   0.16530   0.27241   0.00000  Uiso   1.00
H36    H     0.22354   0.43639   0.07355   0.00000  Uiso   1.00
H37    H     0.01895   0.77908   0.14294   0.00000  Uiso   1.00
O38    O     0.23415   0.32673   0.15777   0.00000  Uiso   1.00
O39    O     0.24774   0.37044   0.89687   0.00000  Uiso   1.00
O40    O     0.97933   0.82004   0.98791   0.00000  Uiso   1.00
N41    N     0.21202   0.21110   0.03645   0.00000  Uiso   1.00
N42    N     0.22172   0.52963   0.85053   0.00000  Uiso   1.00
N43    N     0.03044   0.84998   0.91540   0.00000  Uiso   1.00
N44    N     0.21004   0.16213   0.19656   0.00000  Uiso   1.00
N45    N     0.21973   0.48067   0.01065   0.00000  Uiso   1.00
N46    N     0.02846   0.80102   0.07552   0.00000  Uiso   1.00
C47    C     0.83455   0.83130   0.65513   0.00000  Uiso   1.00
C48    C     0.82574   0.74873   0.57398   0.00000  Uiso   1.00
C49    C     0.80975   0.65215   0.59093   0.00000  Uiso   1.00
C50    C     0.80393   0.58773   0.50664   0.00000  Uiso   1.00
C51    C     0.78873   0.45481   0.39548   0.00000  Uiso   1.00
C52    C     0.81901   0.93662   0.62118   0.00000  Uiso   1.00
C53    C     0.79736   0.99801   0.67783   0.00000  Uiso   1.00
C54    C     0.78588   0.09178   0.63327   0.00000  Uiso   1.00
C55    C     0.76025   0.25059   0.59543   0.00000  Uiso   1.00
C56    C     0.87131   0.84786   0.64699   0.00000  Uiso   1.00
C57    C     0.89365   0.83466   0.72534   0.00000  Uiso   1.00
C58    C     0.92621   0.85372   0.70252   0.00000  Uiso   1.00
C59    C     0.98179   0.87473   0.70474   0.00000  Uiso   1.00
C60    C     0.85265   0.88866   0.47529   0.00000  Uiso   1.00
C61    C     0.83557   0.77989   0.47630   0.00000  Uiso   1.00
C62    C     0.82977   0.71561   0.39196   0.00000  Uiso   1.00
C63    C     0.81378   0.61894   0.40878   0.00000  Uiso   1.00
C64    C     0.82884   0.96778   0.52350   0.00000  Uiso   1.00
C65    C     0.81739   0.06148   0.47886   0.00000  Uiso   1.00
C66    C     0.79573   0.12299   0.53542   0.00000  Uiso   1.00
C67    C     0.88114   0.87902   0.54930   0.00000  Uiso   1.00
C68    C     0.91367   0.89812   0.52636   0.00000  Uiso   1.00
C69    C     0.93605   0.88494   0.60466   0.00000  Uiso   1.00
H70    H     0.82690   0.80705   0.73118   0.00000  Uiso   1.00
H71    H     0.80214   0.62807   0.66654   0.00000  Uiso   1.00
H72    H     0.78976   0.97389   0.75342   0.00000  Uiso   1.00
H73    H     0.88603   0.81055   0.80092   0.00000  Uiso   1.00
H74    H     0.77902   0.44339   0.55178   0.00000  Uiso   1.00
H75    H     0.75292   0.17259   0.73500   0.00000  Uiso   1.00
H76    H     0.95593   0.82816   0.83516   0.00000  Uiso   1.00
H77    H     0.86030   0.91292   0.39924   0.00000  Uiso   1.00
H78    H     0.83738   0.73974   0.31637   0.00000  Uiso   1.00
H79    H     0.82500   0.08556   0.40326   0.00000  Uiso   1.00
H80    H     0.92127   0.92223   0.45076   0.00000  Uiso   1.00
H81    H     0.80762   0.53403   0.26758   0.00000  Uiso   1.00
H82    H     0.78152   0.26323   0.45080   0.00000  Uiso   1.00
H83    H     0.98453   0.91880   0.55096   0.00000  Uiso   1.00
O84    O     0.77763   0.37289   0.36115   0.00000  Uiso   1.00
O85    O     0.74340   0.32958   0.60154   0.00000  Uiso   1.00
O86    O     0.00973   0.87770   0.73295   0.00000  Uiso   1.00
N87    N     0.78890   0.48848   0.49627   0.00000  Uiso   1.00
N88    N     0.76450   0.17023   0.66756   0.00000  Uiso   1.00
N89    N     0.95429   0.84825   0.76121   0.00000  Uiso   1.00
N90    N     0.80429   0.53725   0.34334   0.00000  Uiso   1.00
N91    N     0.77989   0.21900   0.51464   0.00000  Uiso   1.00
N92    N     0.96968   0.89702   0.60828   0.00000  Uiso   1.00
C93    C     0.84510   0.13206   0.92005   0.00000  Uiso   1.00
C94    C     0.82985   0.04945   0.99126   0.00000  Uiso   1.00
C95    C     0.81591   0.95272   0.96195   0.00000  Uiso   1.00
C96    C     0.80327   0.88828   0.03861   0.00000  Uiso   1.00
C97    C     0.77938   0.75527   0.13362   0.00000  Uiso   1.00
C98    C     0.82717   0.23726   0.94003   0.00000  Uiso   1.00
C99    C     0.81099   0.29844   0.86762   0.00000  Uiso   1.00
C100   C     0.79610   0.39212   0.90116   0.00000  Uiso   1.00
C101   C     0.76807   0.55073   0.91661   0.00000  Uiso   1.00
C102   C     0.87989   0.14895   0.95791   0.00000  Uiso   1.00
C103   C     0.90803   0.13591   0.90053   0.00000  Uiso   1.00
C104   C     0.93752   0.15527   0.94912   0.00000  Uiso   1.00
C105   C     0.99134   0.17676   0.99233   0.00000  Uiso   1.00
C106   C     0.84744   0.18965   0.10834   0.00000  Uiso   1.00
C107   C     0.83112   0.08073   0.09353   0.00000  Uiso   1.00
C108   C     0.81850   0.01643   0.17027   0.00000  Uiso   1.00
C109   C     0.80455   0.91962   0.14107   0.00000  Uiso   1.00
C110   C     0.82844   0.26854   0.04229   0.00000  Uiso   1.00
C111   C     0.81357   0.36215   0.07594   0.00000  Uiso   1.00
C112   C     0.79737   0.42346   0.00362   0.00000  Uiso   1.00
C113   C     0.88116   0.18023   0.06018   0.00000  Uiso   1.00
C114   C     0.91061   0.19962   0.10886   0.00000  Uiso   1.00
C115   C     0.93879   0.18661   0.05158   0.00000  Uiso   1.00
H116   H     0.84412   0.10772   0.84043   0.00000  Uiso   1.00
H117   H     0.81493   0.92854   0.88279   0.00000  Uiso   1.00
H118   H     0.81002   0.27422   0.78848   0.00000  Uiso   1.00
H119   H     0.90704   0.11171   0.82139   0.00000  Uiso   1.00
H120   H     0.78313   0.74371   0.97485   0.00000  Uiso   1.00
H121   H     0.77277   0.47260   0.77599   0.00000  Uiso   1.00
H122   H     0.97736   0.12992   0.84539   0.00000  Uiso   1.00
H123   H     0.84843   0.21401   0.18797   0.00000  Uiso   1.00
H124   H     0.81948   0.04065   0.24940   0.00000  Uiso   1.00
H125   H     0.81456   0.38634   0.15509   0.00000  Uiso   1.00
H126   H     0.91158   0.22382   0.18800   0.00000  Uiso   1.00
H127   H     0.78682   0.83470   0.27241   0.00000  Uiso   1.00
H128   H     0.77646   0.56361   0.07355   0.00000  Uiso   1.00
H129   H     0.98105   0.22092   0.14294   0.00000  Uiso   1.00
O130   O     0.76585   0.67327   0.15777   0.00000  Uiso   1.00
O131   O     0.75226   0.62956   0.89687   0.00000  Uiso   1.00
O132   O     0.02067   0.17996   0.98791   0.00000  Uiso   1.00
N133   N     0.78798   0.78890   0.03645   0.00000  Uiso   1.00
N134   N     0.77828   0.47037   0.85053   0.00000  Uiso   1.00
N135   N     0.96956   0.15002   0.91540   0.00000  Uiso   1.00
N136   N     0.78996   0.83787   0.19656   0.00000  Uiso   1.00
N137   N     0.78027   0.51933   0.01065   0.00000  Uiso   1.00
N138   N     0.97154   0.19898   0.07552   0.00000  Uiso   1.00
C139   C     0.16545   0.16870   0.65513   0.00000  Uiso   1.00
C140   C     0.17426   0.25127   0.57398   0.00000  Uiso   1.00
C141   C     0.19025   0.34785   0.59093   0.00000  Uiso   1.00
C142   C     0.19607   0.41227   0.50664   0.00000  Uiso   1.00
C143   C     0.21127   0.54519   0.39548   0.00000  Uiso   1.00
C144   C     0.18099   0.06338   0.62118   0.00000  Uiso   1.00
C145   C     0.20264   0.00199   0.67783   0.00000  Uiso   1.00
C146   C     0.21412   0.90822   0.63327   0.00000  Uiso   1.00
C147   C     0.23975   0.74941   0.59543   0.00000  Uiso   1.00
C148   C     0.12869   0.15214   0.64699   0.00000  Uiso   1.00
C149   C     0.10635   0.16534   0.72534   0.00000  Uiso   1.00
C150   C     0.07379   0.14628   0.70252   0.00000  Uiso   1.00
C151   C     0.01821   0.12527   0.70474   0.00000  Uiso   1.00
C152   C     0.14735   0.11134   0.47529   0.00000  Uiso   1.00
C153   C     0.16443   0.22011   0.47630   0.00000  Uiso   1.00
C154   C     0.17023   0.28439   0.39196   0.00000  Uiso   1.00
C155   C     0.18622   0.38106   0.40878   0.00000  Uiso   1.00
C156   C     0.17116   0.03222   0.52350   0.00000  Uiso   1.00
C157   C     0.18261   0.93852   0.47886   0.00000  Uiso   1.00
C158   C     0.20427   0.87701   0.53542   0.00000  Uiso   1.00
C159   C     0.11886   0.12098   0.54930   0.00000  Uiso   1.00
C160   C     0.08633   0.10188   0.52636   0.00000  Uiso   1.00
C161   C     0.06395   0.11506   0.60466   0.00000  Uiso   1.00
H162   H     0.17310   0.19295   0.73118   0.00000  Uiso   1.00
H163   H     0.19786   0.37193   0.66654   0.00000  Uiso   1.00
H164   H     0.21024   0.02611   0.75342   0.00000  Uiso   1.00
H165   H     0.11397   0.18945   0.80092   0.00000  Uiso   1.00
H166   H     0.22098   0.55661   0.55178   0.00000  Uiso   1.00
H167   H     0.24708   0.82741   0.73500   0.00000  Uiso   1.00
H168   H     0.04407   0.17184   0.83516   0.00000  Uiso   1.00
H169   H     0.13970   0.08708   0.39924   0.00000  Uiso   1.00
H170   H     0.16262   0.26026   0.31637   0.00000  Uiso   1.00
H171   H     0.17500   0.91444   0.40326   0.00000  Uiso   1.00
H172   H     0.07873   0.07777   0.45076   0.00000  Uiso   1.00
H173   H     0.19238   0.46597   0.26758   0.00000  Uiso   1.00
H174   H     0.21848   0.73677   0.45080   0.00000  Uiso   1.00
H175   H     0.01547   0.08120   0.55096   0.00000  Uiso   1.00
O176   O     0.22237   0.62711   0.36115   0.00000  Uiso   1.00
O177   O     0.25660   0.67042   0.60154   0.00000  Uiso   1.00
O178   O     0.99027   0.12230   0.73295   0.00000  Uiso   1.00
N179   N     0.21110   0.51152   0.49627   0.00000  Uiso   1.00
N180   N     0.23550   0.82977   0.66756   0.00000  Uiso   1.00
N181   N     0.04571   0.15175   0.76121   0.00000  Uiso   1.00
N182   N     0.19571   0.46275   0.34334   0.00000  Uiso   1.00
N183   N     0.22011   0.78100   0.51464   0.00000  Uiso   1.00
N184   N     0.03032   0.10298   0.60828   0.00000  Uiso   1.00
C185   C     0.34510   0.36794   0.07995   0.00000  Uiso   1.00
C186   C     0.32985   0.45055   0.00874   0.00000  Uiso   1.00
C187   C     0.31591   0.54728   0.03805   0.00000  Uiso   1.00
C188   C     0.30327   0.61172   0.96139   0.00000  Uiso   1.00
C189   C     0.27938   0.74473   0.86638   0.00000  Uiso   1.00
C190   C     0.32717   0.26274   0.05997   0.00000  Uiso   1.00
C191   C     0.31099   0.20156   0.13238   0.00000  Uiso   1.00
C192   C     0.29610   0.10788   0.09884   0.00000  Uiso   1.00
C193   C     0.26807   0.94927   0.08339   0.00000  Uiso   1.00
C194   C     0.37989   0.35105   0.04209   0.00000  Uiso   1.00
C195   C     0.40803   0.36409   0.09947   0.00000  Uiso   1.00
C196   C     0.43752   0.34473   0.05088   0.00000  Uiso   1.00
C197   C     0.49134   0.32324   0.00767   0.00000  Uiso   1.00
C198   C     0.34744   0.31035   0.89166   0.00000  Uiso   1.00
C199   C     0.33112   0.41927   0.90647   0.00000  Uiso   1.00
C200   C     0.31850   0.48357   0.82973   0.00000  Uiso   1.00
C201   C     0.30455   0.58038   0.85893   0.00000  Uiso   1.00
C202   C     0.32844   0.23146   0.95771   0.00000  Uiso   1.00
C203   C     0.31357   0.13785   0.92406   0.00000  Uiso   1.00
C204   C     0.29737   0.07654   0.99638   0.00000  Uiso   1.00
C205   C     0.38116   0.31977   0.93982   0.00000  Uiso   1.00
C206   C     0.41061   0.30038   0.89114   0.00000  Uiso   1.00
C207   C     0.43879   0.31339   0.94842   0.00000  Uiso   1.00
H208   H     0.34412   0.39228   0.15957   0.00000  Uiso   1.00
H209   H     0.31493   0.57146   0.11721   0.00000  Uiso   1.00
H210   H     0.31002   0.22578   0.21152   0.00000  Uiso   1.00
H211   H     0.40704   0.38829   0.17861   0.00000  Uiso   1.00
H212   H     0.28313   0.75629   0.02515   0.00000  Uiso   1.00
H213   H     0.27277   0.02740   0.22401   0.00000  Uiso   1.00
H214   H     0.47736   0.37008   0.15461   0.00000  Uiso   1.00
H215   H     0.34843   0.28599   0.81203   0.00000  Uiso   1.00
H216   H     0.31948   0.45935   0.75060   0.00000  Uiso   1.00
H217   H     0.31456   0.11366   0.84491   0.00000  Uiso   1.00
H218   H     0.41158   0.27618   0.81200   0.00000  Uiso   1.00
H219   H     0.28682   0.66530   0.72759   0.00000  Uiso   1.00
H220   H     0.27646   0.93639   0.92645   0.00000  Uiso   1.00
H221   H     0.48105   0.27908   0.85706   0.00000  Uiso   1.00
O222   O     0.26585   0.82673   0.84223   0.00000  Uiso   1.00
O223   O     0.25226   0.87044   0.10313   0.00000  Uiso   1.00
O224   O     0.52067   0.32004   0.01209   0.00000  Uiso   1.00
N225   N     0.28798   0.71110   0.96355   0.00000  Uiso   1.00
N226   N     0.27828   0.02963   0.14947   0.00000  Uiso   1.00
N227   N     0.46956   0.34998   0.08460   0.00000  Uiso   1.00
N228   N     0.28996   0.66213   0.80344   0.00000  Uiso   1.00
N229   N     0.28027   0.98067   0.98935   0.00000  Uiso   1.00
N230   N     0.47154   0.30102   0.92448   0.00000  Uiso   1.00
C231   C     0.66545   0.33130   0.34487   0.00000  Uiso   1.00
C232   C     0.67426   0.24873   0.42602   0.00000  Uiso   1.00
C233   C     0.69025   0.15215   0.40907   0.00000  Uiso   1.00
C234   C     0.69607   0.08773   0.49336   0.00000  Uiso   1.00
C235   C     0.71127   0.95481   0.60452   0.00000  Uiso   1.00
C236   C     0.68099   0.43662   0.37882   0.00000  Uiso   1.00
C237   C     0.70264   0.49801   0.32217   0.00000  Uiso   1.00
C238   C     0.71412   0.59178   0.36673   0.00000  Uiso   1.00
C239   C     0.73975   0.75059   0.40457   0.00000  Uiso   1.00
C240   C     0.62869   0.34786   0.35301   0.00000  Uiso   1.00
C241   C     0.60635   0.33466   0.27466   0.00000  Uiso   1.00
C242   C     0.57379   0.35372   0.29748   0.00000  Uiso   1.00
C243   C     0.51821   0.37473   0.29526   0.00000  Uiso   1.00
C244   C     0.64735   0.38866   0.52471   0.00000  Uiso   1.00
C245   C     0.66443   0.27989   0.52370   0.00000  Uiso   1.00
C246   C     0.67023   0.21561   0.60804   0.00000  Uiso   1.00
C247   C     0.68622   0.11894   0.59122   0.00000  Uiso   1.00
C248   C     0.67116   0.46778   0.47650   0.00000  Uiso   1.00
C249   C     0.68261   0.56148   0.52114   0.00000  Uiso   1.00
C250   C     0.70427   0.62299   0.46458   0.00000  Uiso   1.00
C251   C     0.61886   0.37902   0.45070   0.00000  Uiso   1.00
C252   C     0.58633   0.39812   0.47364   0.00000  Uiso   1.00
C253   C     0.56395   0.38494   0.39534   0.00000  Uiso   1.00
H254   H     0.67310   0.30705   0.26882   0.00000  Uiso   1.00
H255   H     0.69786   0.12807   0.33346   0.00000  Uiso   1.00
H256   H     0.71024   0.47389   0.24658   0.00000  Uiso   1.00
H257   H     0.61397   0.31055   0.19908   0.00000  Uiso   1.00
H258   H     0.72098   0.94339   0.44822   0.00000  Uiso   1.00
H259   H     0.74708   0.67259   0.26500   0.00000  Uiso   1.00
H260   H     0.54407   0.32816   0.16484   0.00000  Uiso   1.00
H261   H     0.63970   0.41292   0.60076   0.00000  Uiso   1.00
H262   H     0.66262   0.23974   0.68363   0.00000  Uiso   1.00
H263   H     0.67500   0.58556   0.59674   0.00000  Uiso   1.00
H264   H     0.57873   0.42223   0.54924   0.00000  Uiso   1.00
H265   H     0.69238   0.03403   0.73242   0.00000  Uiso   1.00
H266   H     0.71848   0.76323   0.54920   0.00000  Uiso   1.00
H267   H     0.51547   0.41880   0.44904   0.00000  Uiso   1.00
O268   O     0.72237   0.87289   0.63885   0.00000  Uiso   1.00
O269   O     0.75660   0.82958   0.39846   0.00000  Uiso   1.00
O270   O     0.49027   0.37770   0.26705   0.00000  Uiso   1.00
N271   N     0.71110   0.98848   0.50373   0.00000  Uiso   1.00
N272   N     0.73550   0.67023   0.33244   0.00000  Uiso   1.00
N273   N     0.54571   0.34825   0.23879   0.00000  Uiso   1.00
N274   N     0.69571   0.03725   0.65666   0.00000  Uiso   1.00
N275   N     0.72011   0.71900   0.48536   0.00000  Uiso   1.00
N276   N     0.53032   0.39702   0.39172   0.00000  Uiso   1.00
C277   C     0.65490   0.63206   0.07995   0.00000  Uiso   1.00
C278   C     0.67015   0.54945   0.00874   0.00000  Uiso   1.00
C279   C     0.68409   0.45272   0.03805   0.00000  Uiso   1.00
C280   C     0.69673   0.38828   0.96139   0.00000  Uiso   1.00
C281   C     0.72062   0.25527   0.86638   0.00000  Uiso   1.00
C282   C     0.67283   0.73726   0.05997   0.00000  Uiso   1.00
C283   C     0.68901   0.79844   0.13238   0.00000  Uiso   1.00
C284   C     0.70390   0.89212   0.09884   0.00000  Uiso   1.00
C285   C     0.73193   0.05073   0.08339   0.00000  Uiso   1.00
C286   C     0.62011   0.64895   0.04209   0.00000  Uiso   1.00
C287   C     0.59197   0.63591   0.09947   0.00000  Uiso   1.00
C288   C     0.56248   0.65527   0.05088   0.00000  Uiso   1.00
C289   C     0.50866   0.67676   0.00767   0.00000  Uiso   1.00
C290   C     0.65256   0.68965   0.89166   0.00000  Uiso   1.00
C291   C     0.66888   0.58073   0.90647   0.00000  Uiso   1.00
C292   C     0.68150   0.51643   0.82973   0.00000  Uiso   1.00
C293   C     0.69545   0.41962   0.85893   0.00000  Uiso   1.00
C294   C     0.67156   0.76854   0.95771   0.00000  Uiso   1.00
C295   C     0.68643   0.86215   0.92406   0.00000  Uiso   1.00
C296   C     0.70263   0.92346   0.99638   0.00000  Uiso   1.00
C297   C     0.61884   0.68023   0.93982   0.00000  Uiso   1.00
C298   C     0.58939   0.69962   0.89114   0.00000  Uiso   1.00
C299   C     0.56121   0.68661   0.94842   0.00000  Uiso   1.00
H300   H     0.65588   0.60772   0.15957   0.00000  Uiso   1.00
H301   H     0.68507   0.42854   0.11721   0.00000  Uiso   1.00
H302   H     0.68998   0.77422   0.21152   0.00000  Uiso   1.00
H303   H     0.59296   0.61171   0.17861   0.00000  Uiso   1.00
H304   H     0.71687   0.24371   0.02515   0.00000  Uiso   1.00
H305   H     0.72723   0.97260   0.22401   0.00000  Uiso   1.00
H306   H     0.52264   0.62992   0.15461   0.00000  Uiso   1.00
H307   H     0.65157   0.71401   0.81203   0.00000  Uiso   1.00
H308   H     0.68052   0.54065   0.75060   0.00000  Uiso   1.00
H309   H     0.68544   0.88634   0.84491   0.00000  Uiso   1.00
H310   H     0.58842   0.72382   0.81200   0.00000  Uiso   1.00
H311   H     0.71318   0.33470   0.72759   0.00000  Uiso   1.00
H312   H     0.72354   0.06361   0.92645   0.00000  Uiso   1.00
H313   H     0.51895   0.72092   0.85706   0.00000  Uiso   1.00
O314   O     0.73415   0.17327   0.84223   0.00000  Uiso   1.00
O315   O     0.74774   0.12956   0.10313   0.00000  Uiso   1.00
O316   O     0.47933   0.67996   0.01209   0.00000  Uiso   1.00
N317   N     0.71202   0.28890   0.96355   0.00000  Uiso   1.00
N318   N     0.72172   0.97037   0.14947   0.00000  Uiso   1.00
N319   N     0.53044   0.65002   0.08460   0.00000  Uiso   1.00
N320   N     0.71004   0.33787   0.80344   0.00000  Uiso   1.00
N321   N     0.71973   0.01933   0.98935   0.00000  Uiso   1.00
N322   N     0.52846   0.69898   0.92448   0.00000  Uiso   1.00
C323   C     0.33455   0.66870   0.34487   0.00000  Uiso   1.00
C324   C     0.32574   0.75127   0.42602   0.00000  Uiso   1.00
C325   C     0.30975   0.84785   0.40907   0.00000  Uiso   1.00
C326   C     0.30393   0.91227   0.49336   0.00000  Uiso   1.00
C327   C     0.28873   0.04519   0.60452   0.00000  Uiso   1.00
C328   C     0.31901   0.56338   0.37882   0.00000  Uiso   1.00
C329   C     0.29736   0.50199   0.32217   0.00000  Uiso   1.00
C330   C     0.28588   0.40822   0.36673   0.00000  Uiso   1.00
C331   C     0.26025   0.24941   0.40457   0.00000  Uiso   1.00
C332   C     0.37131   0.65214   0.35301   0.00000  Uiso   1.00
C333   C     0.39365   0.66534   0.27466   0.00000  Uiso   1.00
C334   C     0.42621   0.64628   0.29748   0.00000  Uiso   1.00
C335   C     0.48179   0.62527   0.29526   0.00000  Uiso   1.00
C336   C     0.35265   0.61134   0.52471   0.00000  Uiso   1.00
C337   C     0.33557   0.72011   0.52370   0.00000  Uiso   1.00
C338   C     0.32977   0.78439   0.60804   0.00000  Uiso   1.00
C339   C     0.31378   0.88106   0.59122   0.00000  Uiso   1.00
C340   C     0.32884   0.53222   0.47650   0.00000  Uiso   1.00
C341   C     0.31739   0.43852   0.52114   0.00000  Uiso   1.00
C342   C     0.29573   0.37701   0.46458   0.00000  Uiso   1.00
C343   C     0.38114   0.62098   0.45070   0.00000  Uiso   1.00
C344   C     0.41367   0.60188   0.47364   0.00000  Uiso   1.00
C345   C     0.43605   0.61506   0.39534   0.00000  Uiso   1.00
H346   H     0.32690   0.69295   0.26882   0.00000  Uiso   1.00
H347   H     0.30214   0.87193   0.33346   0.00000  Uiso   1.00
H348   H     0.28976   0.52611   0.24658   0.00000  Uiso   1.00
H349   H     0.38603   0.68945   0.19908   0.00000  Uiso   1.00
H350   H     0.27902   0.05661   0.44822   0.00000  Uiso   1.00
H351   H     0.25292   0.32741   0.26500   0.00000  Uiso   1.00
H352   H     0.45593   0.67184   0.16484   0.00000  Uiso   1.00
H353   H     0.36030   0.58708   0.60076   0.00000  Uiso   1.00
H354   H     0.33738   0.76026   0.68363   0.00000  Uiso   1.00
H355   H     0.32500   0.41444   0.59674   0.00000  Uiso   1.00
H356   H     0.42127   0.57777   0.54924   0.00000  Uiso   1.00
H357   H     0.30762   0.96597   0.73242   0.00000  Uiso   1.00
H358   H     0.28152   0.23677   0.54920   0.00000  Uiso   1.00
H359   H     0.48453   0.58120   0.44904   0.00000  Uiso   1.00
O360   O     0.27763   0.12711   0.63885   0.00000  Uiso   1.00
O361   O     0.24340   0.17042   0.39846   0.00000  Uiso   1.00
O362   O     0.50973   0.62230   0.26705   0.00000  Uiso   1.00
N363   N     0.28890   0.01152   0.50373   0.00000  Uiso   1.00
N364   N     0.26450   0.32977   0.33244   0.00000  Uiso   1.00
N365   N     0.45429   0.65175   0.23879   0.00000  Uiso   1.00
N366   N     0.30429   0.96275   0.65666   0.00000  Uiso   1.00
N367   N     0.27989   0.28100   0.48536   0.00000  Uiso   1.00
N368   N     0.46968   0.60298   0.39172   0.00000  Uiso   1.00
