data_job_03774
_audit_creation_date              2018-12-19
_audit_creation_method            'Materials Studio'
_symmetry_space_group_name_H-M    'P1'
_symmetry_Int_Tables_number       1
_symmetry_cell_setting            triclinic
loop_
_symmetry_equiv_pos_as_xyz
  x,y,z
_cell_length_a                    12.3114
_cell_length_b                    21.4142
_cell_length_c                    12.4486
_cell_angle_alpha                 90.0000
_cell_angle_beta                  84.5294
_cell_angle_gamma                 90.0000
loop_
_atom_site_label
_atom_site_type_symbol
_atom_site_fract_x
_atom_site_fract_y
_atom_site_fract_z
_atom_site_U_iso_or_equiv
_atom_site_adp_type
_atom_site_occupancy
C1     C     0.45926   0.36899   0.20448   0.00000  Uiso   1.00
C2     C     0.36858   0.41395   0.24552   0.00000  Uiso   1.00
C3     C     0.27196   0.42367   0.19896   0.00000  Uiso   1.00
C4     C     0.19945   0.46679   0.24869   0.00000  Uiso   1.00
C5     C     0.05512   0.53173   0.29825   0.00000  Uiso   1.00
C6     C     0.56281   0.40819   0.18673   0.00000  Uiso   1.00
C7     C     0.62951   0.41307   0.09073   0.00000  Uiso   1.00
C8     C     0.72051   0.45134   0.09098   0.00000  Uiso   1.00
C9     C     0.87778   0.50730   0.04927   0.00000  Uiso   1.00
C10    C     0.47588   0.32547   0.29847   0.00000  Uiso   1.00
C11    C     0.46951   0.26078   0.29643   0.00000  Uiso   1.00
C12    C     0.48735   0.22940   0.39076   0.00000  Uiso   1.00
C13    C     0.50963   0.15692   0.52256   0.00000  Uiso   1.00
C14    C     0.50231   0.42829   0.37563   0.00000  Uiso   1.00
C15    C     0.39197   0.44616   0.33848   0.00000  Uiso   1.00
C16    C     0.31959   0.48928   0.38831   0.00000  Uiso   1.00
C17    C     0.22287   0.49906   0.34182   0.00000  Uiso   1.00
C18    C     0.58620   0.44040   0.27968   0.00000  Uiso   1.00
C19    C     0.67713   0.47867   0.28008   0.00000  Uiso   1.00
C20    C     0.74394   0.48361   0.18410   0.00000  Uiso   1.00
C21    C     0.49926   0.35767   0.39144   0.00000  Uiso   1.00
C22    C     0.51713   0.32639   0.48578   0.00000  Uiso   1.00
C23    C     0.51078   0.26167   0.48388   0.00000  Uiso   1.00
H24    H     0.44106   0.34392   0.13211   0.00000  Uiso   1.00
H25    H     0.25390   0.39874   0.12701   0.00000  Uiso   1.00
H26    H     0.61140   0.38813   0.01881   0.00000  Uiso   1.00
H27    H     0.45141   0.23587   0.22448   0.00000  Uiso   1.00
H28    H     0.05672   0.47374   0.16233   0.00000  Uiso   1.00
H29    H     0.81055   0.45136   0.93418   0.00000  Uiso   1.00
H30    H     0.47320   0.13028   0.36788   0.00000  Uiso   1.00
H31    H     0.52051   0.45336   0.44800   0.00000  Uiso   1.00
H32    H     0.33770   0.51420   0.46024   0.00000  Uiso   1.00
H33    H     0.69521   0.50359   0.35203   0.00000  Uiso   1.00
H34    H     0.53522   0.35133   0.55770   0.00000  Uiso   1.00
H35    H     0.12475   0.56745   0.43279   0.00000  Uiso   1.00
H36    H     0.87858   0.54507   0.20464   0.00000  Uiso   1.00
H37    H     0.54122   0.22400   0.63834   0.00000  Uiso   1.00
O38    O     0.96906   0.55866   0.29989   0.00000  Uiso   1.00
O39    O     0.95806   0.52928   0.00057   0.00000  Uiso   1.00
O40    O     0.51545   0.10804   0.56958   0.00000  Uiso   1.00
N41    N     0.09781   0.48744   0.22432   0.00000  Uiso   1.00
N42    N     0.80258   0.46652   0.01101   0.00000  Uiso   1.00
N43    N     0.48721   0.16634   0.41647   0.00000  Uiso   1.00
N44    N     0.13441   0.53787   0.36985   0.00000  Uiso   1.00
N45    N     0.83919   0.51694   0.15654   0.00000  Uiso   1.00
N46    N     0.52382   0.21677   0.56200   0.00000  Uiso   1.00
C47    C     0.95926   0.86899   0.20448   0.00000  Uiso   1.00
C48    C     0.86858   0.91395   0.24552   0.00000  Uiso   1.00
C49    C     0.77196   0.92367   0.19896   0.00000  Uiso   1.00
C50    C     0.69945   0.96679   0.24869   0.00000  Uiso   1.00
C51    C     0.55512   0.03173   0.29825   0.00000  Uiso   1.00
C52    C     0.06281   0.90819   0.18673   0.00000  Uiso   1.00
C53    C     0.12951   0.91307   0.09073   0.00000  Uiso   1.00
C54    C     0.22051   0.95134   0.09098   0.00000  Uiso   1.00
C55    C     0.37778   0.00730   0.04927   0.00000  Uiso   1.00
C56    C     0.97588   0.82547   0.29847   0.00000  Uiso   1.00
C57    C     0.96951   0.76078   0.29643   0.00000  Uiso   1.00
C58    C     0.98735   0.72940   0.39076   0.00000  Uiso   1.00
C59    C     0.00963   0.65692   0.52256   0.00000  Uiso   1.00
C60    C     0.00231   0.92829   0.37563   0.00000  Uiso   1.00
C61    C     0.89197   0.94616   0.33848   0.00000  Uiso   1.00
C62    C     0.81959   0.98928   0.38831   0.00000  Uiso   1.00
C63    C     0.72287   0.99906   0.34182   0.00000  Uiso   1.00
C64    C     0.08620   0.94040   0.27968   0.00000  Uiso   1.00
C65    C     0.17713   0.97867   0.28008   0.00000  Uiso   1.00
C66    C     0.24394   0.98361   0.18410   0.00000  Uiso   1.00
C67    C     0.99926   0.85767   0.39144   0.00000  Uiso   1.00
C68    C     0.01713   0.82639   0.48578   0.00000  Uiso   1.00
C69    C     0.01078   0.76167   0.48388   0.00000  Uiso   1.00
H70    H     0.94106   0.84392   0.13211   0.00000  Uiso   1.00
H71    H     0.75390   0.89874   0.12701   0.00000  Uiso   1.00
H72    H     0.11140   0.88813   0.01881   0.00000  Uiso   1.00
H73    H     0.95141   0.73587   0.22448   0.00000  Uiso   1.00
H74    H     0.55672   0.97374   0.16233   0.00000  Uiso   1.00
H75    H     0.31055   0.95136   0.93418   0.00000  Uiso   1.00
H76    H     0.97320   0.63028   0.36788   0.00000  Uiso   1.00
H77    H     0.02051   0.95336   0.44800   0.00000  Uiso   1.00
H78    H     0.83770   0.01420   0.46024   0.00000  Uiso   1.00
H79    H     0.19521   0.00359   0.35203   0.00000  Uiso   1.00
H80    H     0.03522   0.85133   0.55770   0.00000  Uiso   1.00
H81    H     0.62475   0.06745   0.43279   0.00000  Uiso   1.00
H82    H     0.37858   0.04507   0.20464   0.00000  Uiso   1.00
H83    H     0.04122   0.72400   0.63834   0.00000  Uiso   1.00
O84    O     0.46906   0.05866   0.29989   0.00000  Uiso   1.00
O85    O     0.45806   0.02928   0.00057   0.00000  Uiso   1.00
O86    O     0.01545   0.60804   0.56958   0.00000  Uiso   1.00
N87    N     0.59781   0.98744   0.22432   0.00000  Uiso   1.00
N88    N     0.30258   0.96652   0.01101   0.00000  Uiso   1.00
N89    N     0.98721   0.66634   0.41647   0.00000  Uiso   1.00
N90    N     0.63441   0.03787   0.36985   0.00000  Uiso   1.00
N91    N     0.33919   0.01694   0.15654   0.00000  Uiso   1.00
N92    N     0.02382   0.71677   0.56200   0.00000  Uiso   1.00
C93    C     0.45926   0.63101   0.70448   0.00000  Uiso   1.00
C94    C     0.36858   0.58605   0.74552   0.00000  Uiso   1.00
C95    C     0.27196   0.57633   0.69896   0.00000  Uiso   1.00
C96    C     0.19945   0.53321   0.74869   0.00000  Uiso   1.00
C97    C     0.05512   0.46827   0.79825   0.00000  Uiso   1.00
C98    C     0.56281   0.59181   0.68673   0.00000  Uiso   1.00
C99    C     0.62951   0.58693   0.59073   0.00000  Uiso   1.00
C100   C     0.72051   0.54866   0.59098   0.00000  Uiso   1.00
C101   C     0.87778   0.49270   0.54927   0.00000  Uiso   1.00
C102   C     0.47588   0.67453   0.79847   0.00000  Uiso   1.00
C103   C     0.46951   0.73922   0.79643   0.00000  Uiso   1.00
C104   C     0.48735   0.77060   0.89076   0.00000  Uiso   1.00
C105   C     0.50963   0.84308   0.02256   0.00000  Uiso   1.00
C106   C     0.50231   0.57171   0.87563   0.00000  Uiso   1.00
C107   C     0.39197   0.55384   0.83848   0.00000  Uiso   1.00
C108   C     0.31959   0.51072   0.88831   0.00000  Uiso   1.00
C109   C     0.22287   0.50094   0.84182   0.00000  Uiso   1.00
C110   C     0.58620   0.55960   0.77968   0.00000  Uiso   1.00
C111   C     0.67713   0.52133   0.78008   0.00000  Uiso   1.00
C112   C     0.74394   0.51639   0.68410   0.00000  Uiso   1.00
C113   C     0.49926   0.64233   0.89144   0.00000  Uiso   1.00
C114   C     0.51713   0.67361   0.98578   0.00000  Uiso   1.00
C115   C     0.51078   0.73833   0.98388   0.00000  Uiso   1.00
H116   H     0.44106   0.65608   0.63211   0.00000  Uiso   1.00
H117   H     0.25390   0.60126   0.62701   0.00000  Uiso   1.00
H118   H     0.61140   0.61187   0.51881   0.00000  Uiso   1.00
H119   H     0.45141   0.76413   0.72448   0.00000  Uiso   1.00
H120   H     0.05672   0.52626   0.66233   0.00000  Uiso   1.00
H121   H     0.81055   0.54864   0.43418   0.00000  Uiso   1.00
H122   H     0.47320   0.86972   0.86788   0.00000  Uiso   1.00
H123   H     0.52051   0.54664   0.94800   0.00000  Uiso   1.00
H124   H     0.33770   0.48580   0.96024   0.00000  Uiso   1.00
H125   H     0.69521   0.49641   0.85203   0.00000  Uiso   1.00
H126   H     0.53522   0.64867   0.05770   0.00000  Uiso   1.00
H127   H     0.12475   0.43255   0.93279   0.00000  Uiso   1.00
H128   H     0.87858   0.45493   0.70464   0.00000  Uiso   1.00
H129   H     0.54122   0.77600   0.13834   0.00000  Uiso   1.00
O130   O     0.96906   0.44134   0.79989   0.00000  Uiso   1.00
O131   O     0.95806   0.47072   0.50057   0.00000  Uiso   1.00
O132   O     0.51545   0.89196   0.06958   0.00000  Uiso   1.00
N133   N     0.09781   0.51256   0.72432   0.00000  Uiso   1.00
N134   N     0.80258   0.53348   0.51101   0.00000  Uiso   1.00
N135   N     0.48721   0.83366   0.91647   0.00000  Uiso   1.00
N136   N     0.13441   0.46213   0.86985   0.00000  Uiso   1.00
N137   N     0.83919   0.48306   0.65654   0.00000  Uiso   1.00
N138   N     0.52382   0.78323   0.06200   0.00000  Uiso   1.00
C139   C     0.95926   0.13101   0.70448   0.00000  Uiso   1.00
C140   C     0.86858   0.08605   0.74552   0.00000  Uiso   1.00
C141   C     0.77196   0.07633   0.69896   0.00000  Uiso   1.00
C142   C     0.69945   0.03321   0.74869   0.00000  Uiso   1.00
C143   C     0.55512   0.96827   0.79825   0.00000  Uiso   1.00
C144   C     0.06281   0.09181   0.68673   0.00000  Uiso   1.00
C145   C     0.12951   0.08693   0.59073   0.00000  Uiso   1.00
C146   C     0.22051   0.04866   0.59098   0.00000  Uiso   1.00
C147   C     0.37778   0.99270   0.54927   0.00000  Uiso   1.00
C148   C     0.97588   0.17453   0.79847   0.00000  Uiso   1.00
C149   C     0.96951   0.23922   0.79643   0.00000  Uiso   1.00
C150   C     0.98735   0.27060   0.89076   0.00000  Uiso   1.00
C151   C     0.00963   0.34308   0.02256   0.00000  Uiso   1.00
C152   C     0.00231   0.07171   0.87563   0.00000  Uiso   1.00
C153   C     0.89197   0.05384   0.83848   0.00000  Uiso   1.00
C154   C     0.81959   0.01072   0.88831   0.00000  Uiso   1.00
C155   C     0.72287   0.00094   0.84182   0.00000  Uiso   1.00
C156   C     0.08620   0.05960   0.77968   0.00000  Uiso   1.00
C157   C     0.17713   0.02133   0.78008   0.00000  Uiso   1.00
C158   C     0.24394   0.01639   0.68410   0.00000  Uiso   1.00
C159   C     0.99926   0.14233   0.89144   0.00000  Uiso   1.00
C160   C     0.01713   0.17361   0.98578   0.00000  Uiso   1.00
C161   C     0.01078   0.23833   0.98388   0.00000  Uiso   1.00
H162   H     0.94106   0.15608   0.63211   0.00000  Uiso   1.00
H163   H     0.75390   0.10126   0.62701   0.00000  Uiso   1.00
H164   H     0.11140   0.11187   0.51881   0.00000  Uiso   1.00
H165   H     0.95141   0.26413   0.72448   0.00000  Uiso   1.00
H166   H     0.55672   0.02626   0.66233   0.00000  Uiso   1.00
H167   H     0.31055   0.04864   0.43418   0.00000  Uiso   1.00
H168   H     0.97320   0.36972   0.86788   0.00000  Uiso   1.00
H169   H     0.02051   0.04664   0.94800   0.00000  Uiso   1.00
H170   H     0.83770   0.98580   0.96024   0.00000  Uiso   1.00
H171   H     0.19521   0.99641   0.85203   0.00000  Uiso   1.00
H172   H     0.03522   0.14867   0.05770   0.00000  Uiso   1.00
H173   H     0.62475   0.93255   0.93279   0.00000  Uiso   1.00
H174   H     0.37858   0.95493   0.70464   0.00000  Uiso   1.00
H175   H     0.04122   0.27600   0.13834   0.00000  Uiso   1.00
O176   O     0.46906   0.94134   0.79989   0.00000  Uiso   1.00
O177   O     0.45806   0.97072   0.50057   0.00000  Uiso   1.00
O178   O     0.01545   0.39196   0.06958   0.00000  Uiso   1.00
N179   N     0.59781   0.01256   0.72432   0.00000  Uiso   1.00
N180   N     0.30258   0.03348   0.51101   0.00000  Uiso   1.00
N181   N     0.98721   0.33366   0.91647   0.00000  Uiso   1.00
N182   N     0.63441   0.96213   0.86985   0.00000  Uiso   1.00
N183   N     0.33919   0.98306   0.65654   0.00000  Uiso   1.00
N184   N     0.02382   0.28323   0.06200   0.00000  Uiso   1.00
