data_job_06847
_audit_creation_date              2018-12-19
_audit_creation_method            'Materials Studio'
_symmetry_space_group_name_H-M    'P1'
_symmetry_Int_Tables_number       1
_symmetry_cell_setting            triclinic
loop_
_symmetry_equiv_pos_as_xyz
  x,y,z
_cell_length_a                    18.7489
_cell_length_b                    21.0692
_cell_length_c                    23.8514
_cell_angle_alpha                 106.2370
_cell_angle_beta                  111.5834
_cell_angle_gamma                 80.0783
loop_
_atom_site_label
_atom_site_type_symbol
_atom_site_fract_x
_atom_site_fract_y
_atom_site_fract_z
_atom_site_U_iso_or_equiv
_atom_site_adp_type
_atom_site_occupancy
C1     C     0.82321   0.22743   0.50739   0.00000  Uiso   1.00
C2     C     0.77485   0.23928   0.44349   0.00000  Uiso   1.00
C3     C     0.70098   0.27014   0.42758   0.00000  Uiso   1.00
C4     C     0.66649   0.27619   0.36670   0.00000  Uiso   1.00
C5     C     0.58559   0.29821   0.27407   0.00000  Uiso   1.00
C6     C     0.84483   0.15297   0.49755   0.00000  Uiso   1.00
C7     C     0.82980   0.11125   0.52710   0.00000  Uiso   1.00
C8     C     0.85422   0.04465   0.51172   0.00000  Uiso   1.00
C9     C     0.88202   0.93268   0.50305   0.00000  Uiso   1.00
C10    C     0.89800   0.25979   0.52642   0.00000  Uiso   1.00
C11    C     0.92769   0.30789   0.58025   0.00000  Uiso   1.00
C12    C     0.99689   0.33121   0.58919   0.00000  Uiso   1.00
C13    C     0.10723   0.38510   0.62535   0.00000  Uiso   1.00
C14    C     0.89332   0.18331   0.42756   0.00000  Uiso   1.00
C15    C     0.81293   0.21532   0.40013   0.00000  Uiso   1.00
C16    C     0.77854   0.22133   0.33926   0.00000  Uiso   1.00
C17    C     0.70463   0.25219   0.32326   0.00000  Uiso   1.00
C18    C     0.88291   0.12901   0.45419   0.00000  Uiso   1.00
C19    C     0.90736   0.06245   0.43877   0.00000  Uiso   1.00
C20    C     0.89237   0.02064   0.46828   0.00000  Uiso   1.00
C21    C     0.93608   0.23583   0.48306   0.00000  Uiso   1.00
C22    C     0.00525   0.25908   0.49192   0.00000  Uiso   1.00
C23    C     0.03504   0.30721   0.54575   0.00000  Uiso   1.00
H24    H     0.79357   0.24608   0.54115   0.00000  Uiso   1.00
H25    H     0.67153   0.28867   0.46115   0.00000  Uiso   1.00
H26    H     0.80034   0.12981   0.56065   0.00000  Uiso   1.00
H27    H     0.89821   0.32642   0.61379   0.00000  Uiso   1.00
H28    H     0.55301   0.32530   0.35332   0.00000  Uiso   1.00
H29    H     0.82463   0.99034   0.56315   0.00000  Uiso   1.00
H30    H     0.03101   0.40493   0.67521   0.00000  Uiso   1.00
H31    H     0.92297   0.16466   0.39380   0.00000  Uiso   1.00
H32    H     0.80803   0.20278   0.30571   0.00000  Uiso   1.00
H33    H     0.93683   0.04393   0.40522   0.00000  Uiso   1.00
H34    H     0.03470   0.24053   0.45836   0.00000  Uiso   1.00
H35    H     0.66379   0.25559   0.22717   0.00000  Uiso   1.00
H36    H     0.93542   0.92064   0.43699   0.00000  Uiso   1.00
H37    H     0.14179   0.33522   0.54905   0.00000  Uiso   1.00
O38    O     0.53044   0.31697   0.23495   0.00000  Uiso   1.00
O39    O     0.88682   0.87753   0.51024   0.00000  Uiso   1.00
O40    O     0.15757   0.42145   0.65726   0.00000  Uiso   1.00
N41    N     0.59486   0.30367   0.33573   0.00000  Uiso   1.00
N42    N     0.84880   0.99051   0.53189   0.00000  Uiso   1.00
N43    N     0.04176   0.37809   0.63667   0.00000  Uiso   1.00
N44    N     0.65447   0.26616   0.26784   0.00000  Uiso   1.00
N45    N     0.90841   0.95300   0.46401   0.00000  Uiso   1.00
N46    N     0.10137   0.34059   0.56878   0.00000  Uiso   1.00
C47    C     0.31929   0.43614   0.58055   0.00000  Uiso   1.00
C48    C     0.32237   0.36204   0.57558   0.00000  Uiso   1.00
C49    C     0.29750   0.33353   0.61035   0.00000  Uiso   1.00
C50    C     0.30525   0.26481   0.59887   0.00000  Uiso   1.00
C51    C     0.30528   0.15564   0.59795   0.00000  Uiso   1.00
C52    C     0.40153   0.45114   0.59413   0.00000  Uiso   1.00
C53    C     0.44320   0.49757   0.64450   0.00000  Uiso   1.00
C54    C     0.51758   0.50386   0.64863   0.00000  Uiso   1.00
C55    C     0.64048   0.53307   0.67650   0.00000  Uiso   1.00
C56    C     0.27373   0.44634   0.51560   0.00000  Uiso   1.00
C57    C     0.20796   0.48874   0.49994   0.00000  Uiso   1.00
C58    C     0.17477   0.49099   0.43795   0.00000  Uiso   1.00
C59    C     0.09924   0.51274   0.34389   0.00000  Uiso   1.00
C60    C     0.37730   0.36478   0.49831   0.00000  Uiso   1.00
C61    C     0.35388   0.32328   0.53091   0.00000  Uiso   1.00
C62    C     0.36167   0.25458   0.51936   0.00000  Uiso   1.00
C63    C     0.33681   0.22598   0.55411   0.00000  Uiso   1.00
C64    C     0.43303   0.41239   0.54946   0.00000  Uiso   1.00
C65    C     0.50737   0.41862   0.55351   0.00000  Uiso   1.00
C66    C     0.54915   0.46503   0.60388   0.00000  Uiso   1.00
C67    C     0.30524   0.40758   0.47093   0.00000  Uiso   1.00
C68    C     0.27214   0.40978   0.40895   0.00000  Uiso   1.00
C69    C     0.20633   0.45217   0.39320   0.00000  Uiso   1.00
H70    H     0.29477   0.46632   0.61533   0.00000  Uiso   1.00
H71    H     0.27312   0.36354   0.64492   0.00000  Uiso   1.00
H72    H     0.41880   0.52756   0.67906   0.00000  Uiso   1.00
H73    H     0.18360   0.51872   0.53452   0.00000  Uiso   1.00
H74    H     0.26305   0.23251   0.65804   0.00000  Uiso   1.00
H75    H     0.57020   0.57836   0.73002   0.00000  Uiso   1.00
H76    H     0.07424   0.55973   0.42523   0.00000  Uiso   1.00
H77    H     0.40183   0.33461   0.46353   0.00000  Uiso   1.00
H78    H     0.38606   0.22460   0.48479   0.00000  Uiso   1.00
H79    H     0.53173   0.38862   0.51893   0.00000  Uiso   1.00
H80    H     0.29654   0.37978   0.37440   0.00000  Uiso   1.00
H81    H     0.35471   0.11974   0.52808   0.00000  Uiso   1.00
H82    H     0.66186   0.46559   0.60005   0.00000  Uiso   1.00
H83    H     0.16591   0.44696   0.29527   0.00000  Uiso   1.00
O84    O     0.29660   0.10613   0.60980   0.00000  Uiso   1.00
O85    O     0.69956   0.55989   0.70422   0.00000  Uiso   1.00
O86    O     0.04888   0.53544   0.30435   0.00000  Uiso   1.00
N87    N     0.28677   0.22106   0.62453   0.00000  Uiso   1.00
N88    N     0.57395   0.54441   0.69183   0.00000  Uiso   1.00
N89    N     0.11028   0.52700   0.40688   0.00000  Uiso   1.00
N90    N     0.33609   0.16038   0.55460   0.00000  Uiso   1.00
N91    N     0.62327   0.48372   0.62189   0.00000  Uiso   1.00
N92    N     0.15960   0.46632   0.33695   0.00000  Uiso   1.00
C93    C     0.69387   0.60289   0.19461   0.00000  Uiso   1.00
C94    C     0.76473   0.62422   0.18985   0.00000  Uiso   1.00
C95    C     0.81849   0.66426   0.23721   0.00000  Uiso   1.00
C96    C     0.87923   0.67809   0.22357   0.00000  Uiso   1.00
C97    C     0.98822   0.71509   0.22513   0.00000  Uiso   1.00
C98    C     0.62518   0.62519   0.14342   0.00000  Uiso   1.00
C99    C     0.56159   0.66602   0.15175   0.00000  Uiso   1.00
C100   C     0.50485   0.68065   0.09902   0.00000  Uiso   1.00
C101   C     0.39716   0.71912   0.02850   0.00000  Uiso   1.00
C102   C     0.70011   0.52730   0.17624   0.00000  Uiso   1.00
C103   C     0.69951   0.48583   0.21215   0.00000  Uiso   1.00
C104   C     0.70584   0.41805   0.18705   0.00000  Uiso   1.00
C105   C     0.71450   0.30453   0.16748   0.00000  Uiso   1.00
C106   C     0.70615   0.55625   0.08617   0.00000  Uiso   1.00
C107   C     0.77140   0.59889   0.13094   0.00000  Uiso   1.00
C108   C     0.83208   0.61266   0.11723   0.00000  Uiso   1.00
C109   C     0.88592   0.65271   0.16456   0.00000  Uiso   1.00
C110   C     0.63185   0.59985   0.08452   0.00000  Uiso   1.00
C111   C     0.57518   0.61442   0.03177   0.00000  Uiso   1.00
C112   C     0.51153   0.65528   0.04001   0.00000  Uiso   1.00
C113   C     0.70679   0.50196   0.11734   0.00000  Uiso   1.00
C114   C     0.71311   0.43423   0.09217   0.00000  Uiso   1.00
C115   C     0.71253   0.39267   0.12804   0.00000  Uiso   1.00
H116   H     0.68867   0.62261   0.24046   0.00000  Uiso   1.00
H117   H     0.81330   0.68386   0.28278   0.00000  Uiso   1.00
H118   H     0.55644   0.68562   0.19733   0.00000  Uiso   1.00
H119   H     0.69435   0.50546   0.25773   0.00000  Uiso   1.00
H120   H     0.95440   0.74061   0.30372   0.00000  Uiso   1.00
H121   H     0.41279   0.74430   0.12354   0.00000  Uiso   1.00
H122   H     0.70359   0.36439   0.25090   0.00000  Uiso   1.00
H123   H     0.71134   0.53652   0.04031   0.00000  Uiso   1.00
H124   H     0.83723   0.59304   0.07164   0.00000  Uiso   1.00
H125   H     0.58036   0.59480   0.98619   0.00000  Uiso   1.00
H126   H     0.71827   0.41464   0.04659   0.00000  Uiso   1.00
H127   H     0.97382   0.66691   0.13235   0.00000  Uiso   1.00
H128   H     0.43220   0.67059   0.95217   0.00000  Uiso   1.00
H129   H     0.72301   0.29069   0.07953   0.00000  Uiso   1.00
O130   O     0.04650   0.74251   0.24226   0.00000  Uiso   1.00
O131   O     0.33592   0.74734   0.00587   0.00000  Uiso   1.00
O132   O     0.71744   0.24892   0.17297   0.00000  Uiso   1.00
N133   N     0.94171   0.71550   0.25909   0.00000  Uiso   1.00
N134   N     0.43534   0.71895   0.09064   0.00000  Uiso   1.00
N135   N     0.70719   0.36377   0.20970   0.00000  Uiso   1.00
N136   N     0.95215   0.67584   0.16688   0.00000  Uiso   1.00
N137   N     0.44578   0.67929   0.99843   0.00000  Uiso   1.00
N138   N     0.71764   0.32411   0.11749   0.00000  Uiso   1.00
C139   C     0.17833   0.63224   0.17936   0.00000  Uiso   1.00
C140   C     0.26270   0.61370   0.18545   0.00000  Uiso   1.00
C141   C     0.32530   0.63403   0.23809   0.00000  Uiso   1.00
C142   C     0.39789   0.61168   0.23432   0.00000  Uiso   1.00
C143   C     0.52743   0.58914   0.25208   0.00000  Uiso   1.00
C144   C     0.14132   0.56690   0.15975   0.00000  Uiso   1.00
C145   C     0.10186   0.54790   0.19078   0.00000  Uiso   1.00
C146   C     0.07227   0.48615   0.16537   0.00000  Uiso   1.00
C147   C     0.01333   0.39098   0.14321   0.00000  Uiso   1.00
C148   C     0.14302   0.66413   0.12413   0.00000  Uiso   1.00
C149   C     0.10498   0.72686   0.12520   0.00000  Uiso   1.00
C150   C     0.07680   0.74697   0.06978   0.00000  Uiso   1.00
C151   C     0.02050   0.80276   0.99231   0.00000  Uiso   1.00
C152   C     0.19592   0.55640   0.07904   0.00000  Uiso   1.00
C153   C     0.27225   0.57251   0.13096   0.00000  Uiso   1.00
C154   C     0.34476   0.55012   0.12711   0.00000  Uiso   1.00
C155   C     0.40746   0.57042   0.17974   0.00000  Uiso   1.00
C156   C     0.15087   0.52571   0.10527   0.00000  Uiso   1.00
C157   C     0.12132   0.46399   0.07980   0.00000  Uiso   1.00
C158   C     0.08184   0.44489   0.11078   0.00000  Uiso   1.00
C159   C     0.15258   0.62294   0.06964   0.00000  Uiso   1.00
C160   C     0.12444   0.64295   0.01421   0.00000  Uiso   1.00
C161   C     0.08637   0.70571   0.01520   0.00000  Uiso   1.00
H162   H     0.17089   0.66431   0.22178   0.00000  Uiso   1.00
H163   H     0.31788   0.66591   0.28025   0.00000  Uiso   1.00
H164   H     0.09447   0.57979   0.23294   0.00000  Uiso   1.00
H165   H     0.09759   0.75873   0.16737   0.00000  Uiso   1.00
H166   H     0.48506   0.64949   0.32106   0.00000  Uiso   1.00
H167   H     0.01398   0.46792   0.22130   0.00000  Uiso   1.00
H168   H     0.02055   0.84525   0.08302   0.00000  Uiso   1.00
H169   H     0.20335   0.52432   0.03662   0.00000  Uiso   1.00
H170   H     0.35213   0.51824   0.08494   0.00000  Uiso   1.00
H171   H     0.12873   0.43212   0.03763   0.00000  Uiso   1.00
H172   H     0.13184   0.61106   0.97206   0.00000  Uiso   1.00
H173   H     0.51286   0.52964   0.16254   0.00000  Uiso   1.00
H174   H     0.04177   0.34806   0.06278   0.00000  Uiso   1.00
H175   H     0.04835   0.72539   0.92450   0.00000  Uiso   1.00
O176   O     0.59625   0.58808   0.27693   0.00000  Uiso   1.00
O177   O     0.97819   0.34986   0.14604   0.00000  Uiso   1.00
O178   O     0.98682   0.84491   0.96462   0.00000  Uiso   1.00
N179   N     0.47119   0.62213   0.27712   0.00000  Uiso   1.00
N180   N     0.03076   0.45236   0.18385   0.00000  Uiso   1.00
N181   N     0.03689   0.80513   0.05457   0.00000  Uiso   1.00
N182   N     0.48615   0.55764   0.19182   0.00000  Uiso   1.00
N183   N     0.04572   0.38787   0.09855   0.00000  Uiso   1.00
N184   N     0.05185   0.74064   0.96927   0.00000  Uiso   1.00
C185   C     0.59513   0.95835   0.73117   0.00000  Uiso   1.00
C186   C     0.61166   0.88690   0.73787   0.00000  Uiso   1.00
C187   C     0.59681   0.86293   0.78076   0.00000  Uiso   1.00
C188   C     0.61610   0.79601   0.77942   0.00000  Uiso   1.00
C189   C     0.63671   0.69135   0.79632   0.00000  Uiso   1.00
C190   C     0.54374   0.95526   0.66402   0.00000  Uiso   1.00
C191   C     0.47179   0.98878   0.64482   0.00000  Uiso   1.00
C192   C     0.43392   0.97940   0.58130   0.00000  Uiso   1.00
C193   C     0.34911   0.98092   0.48354   0.00000  Uiso   1.00
C194   C     0.67156   0.98065   0.73770   0.00000  Uiso   1.00
C195   C     0.70708   0.03553   0.78043   0.00000  Uiso   1.00
C196   C     0.77681   0.04755   0.77894   0.00000  Uiso   1.00
C197   C     0.89046   0.08849   0.79557   0.00000  Uiso   1.00
C198   C     0.65580   0.88212   0.65252   0.00000  Uiso   1.00
C199   C     0.64461   0.84550   0.69515   0.00000  Uiso   1.00
C200   C     0.66393   0.77859   0.69375   0.00000  Uiso   1.00
C201   C     0.64911   0.75453   0.73663   0.00000  Uiso   1.00
C202   C     0.57669   0.91386   0.62130   0.00000  Uiso   1.00
C203   C     0.53891   0.90444   0.55780   0.00000  Uiso   1.00
C204   C     0.46692   0.93792   0.53851   0.00000  Uiso   1.00
C205   C     0.70451   0.93925   0.69498   0.00000  Uiso   1.00
C206   C     0.77420   0.95119   0.69342   0.00000  Uiso   1.00
C207   C     0.80982   0.00607   0.73614   0.00000  Uiso   1.00
H208   H     0.56947   0.99059   0.76442   0.00000  Uiso   1.00
H209   H     0.57130   0.89499   0.81381   0.00000  Uiso   1.00
H210   H     0.44631   0.02082   0.67789   0.00000  Uiso   1.00
H211   H     0.68156   0.06756   0.81348   0.00000  Uiso   1.00
H212   H     0.58783   0.77074   0.84972   0.00000  Uiso   1.00
H213   H     0.32430   0.03607   0.56311   0.00000  Uiso   1.00
H214   H     0.82036   0.13464   0.84904   0.00000  Uiso   1.00
H215   H     0.68145   0.84989   0.61925   0.00000  Uiso   1.00
H216   H     0.68943   0.74656   0.66068   0.00000  Uiso   1.00
H217   H     0.56443   0.87239   0.52476   0.00000  Uiso   1.00
H218   H     0.79968   0.91913   0.66035   0.00000  Uiso   1.00
H219   H     0.68370   0.65026   0.72543   0.00000  Uiso   1.00
H220   H     0.42016   0.91561   0.43882   0.00000  Uiso   1.00
H221   H     0.91623   0.01417   0.72475   0.00000  Uiso   1.00
O222   O     0.63897   0.64506   0.81743   0.00000  Uiso   1.00
O223   O     0.29323   0.99319   0.44142   0.00000  Uiso   1.00
O224   O     0.94405   0.12250   0.81655   0.00000  Uiso   1.00
N225   N     0.60932   0.75656   0.81479   0.00000  Uiso   1.00
N226   N     0.36292   0.00463   0.54683   0.00000  Uiso   1.00
N227   N     0.82669   0.09679   0.81414   0.00000  Uiso   1.00
N228   N     0.66090   0.69174   0.74791   0.00000  Uiso   1.00
N229   N     0.41451   0.93981   0.47995   0.00000  Uiso   1.00
N230   N     0.87828   0.03197   0.74726   0.00000  Uiso   1.00
C231   C     0.20722   0.12539   0.96063   0.00000  Uiso   1.00
C232   C     0.18395   0.10906   0.89012   0.00000  Uiso   1.00
C233   C     0.11731   0.13394   0.85003   0.00000  Uiso   1.00
C234   C     0.10655   0.11297   0.78707   0.00000  Uiso   1.00
C235   C     0.06223   0.09439   0.68093   0.00000  Uiso   1.00
C236   C     0.28640   0.15214   0.98576   0.00000  Uiso   1.00
C237   C     0.30589   0.21322   0.02607   0.00000  Uiso   1.00
C238   C     0.38138   0.22851   0.04362   0.00000  Uiso   1.00
C239   C     0.49612   0.27677   0.08600   0.00000  Uiso   1.00
C240   C     0.21943   0.05913   0.97827   0.00000  Uiso   1.00
C241   C     0.18263   0.04202   0.01230   0.00000  Uiso   1.00
C242   C     0.20175   0.97901   0.02356   0.00000  Uiso   1.00
C243   C     0.21251   0.88287   0.05430   0.00000  Uiso   1.00
C244   C     0.30661   0.04391   0.92013   0.00000  Uiso   1.00
C245   C     0.23794   0.06481   0.86813   0.00000  Uiso   1.00
C246   C     0.22728   0.04380   0.80521   0.00000  Uiso   1.00
C247   C     0.16064   0.06864   0.76503   0.00000  Uiso   1.00
C248   C     0.34038   0.10788   0.96376   0.00000  Uiso   1.00
C249   C     0.41586   0.12308   0.98126   0.00000  Uiso   1.00
C250   C     0.43546   0.18417   0.02159   0.00000  Uiso   1.00
C251   C     0.27341   0.01488   0.95626   0.00000  Uiso   1.00
C252   C     0.29260   0.95188   0.96748   0.00000  Uiso   1.00
C253   C     0.25584   0.93467   0.00152   0.00000  Uiso   1.00
H254   H     0.16519   0.15984   0.97777   0.00000  Uiso   1.00
H255   H     0.07555   0.16819   0.86707   0.00000  Uiso   1.00
H256   H     0.26410   0.24745   0.04309   0.00000  Uiso   1.00
H257   H     0.14086   0.07628   0.02932   0.00000  Uiso   1.00
H258   H     0.99999   0.15795   0.73465   0.00000  Uiso   1.00
H259   H     0.39757   0.32507   0.10582   0.00000  Uiso   1.00
H260   H     0.13769   0.96412   0.07677   0.00000  Uiso   1.00
H261   H     0.34865   0.00946   0.90300   0.00000  Uiso   1.00
H262   H     0.26907   0.00955   0.78820   0.00000  Uiso   1.00
H263   H     0.45762   0.08882   0.96422   0.00000  Uiso   1.00
H264   H     0.33438   0.91765   0.95045   0.00000  Uiso   1.00
H265   H     0.15706   0.02920   0.67063   0.00000  Uiso   1.00
H266   H     0.55464   0.19632   0.04181   0.00000  Uiso   1.00
H267   H     0.29476   0.83537   0.01275   0.00000  Uiso   1.00
O268   O     0.02288   0.09637   0.62847   0.00000  Uiso   1.00
O269   O     0.54449   0.31562   0.11544   0.00000  Uiso   1.00
O270   O     0.20353   0.84206   0.07732   0.00000  Uiso   1.00
N271   N     0.04787   0.12763   0.73533   0.00000  Uiso   1.00
N272   N     0.41958   0.28388   0.08235   0.00000  Uiso   1.00
N273   N     0.17663   0.94642   0.05520   0.00000  Uiso   1.00
N274   N     0.13238   0.05834   0.70089   0.00000  Uiso   1.00
N275   N     0.50410   0.21460   0.04790   0.00000  Uiso   1.00
N276   N     0.26114   0.87714   0.02076   0.00000  Uiso   1.00
C277   C     0.17679   0.77257   0.49261   0.00000  Uiso   1.00
C278   C     0.22515   0.76072   0.55651   0.00000  Uiso   1.00
C279   C     0.29902   0.72986   0.57242   0.00000  Uiso   1.00
C280   C     0.33351   0.72381   0.63330   0.00000  Uiso   1.00
C281   C     0.41441   0.70179   0.72593   0.00000  Uiso   1.00
C282   C     0.15517   0.84703   0.50245   0.00000  Uiso   1.00
C283   C     0.17020   0.88875   0.47290   0.00000  Uiso   1.00
C284   C     0.14578   0.95535   0.48828   0.00000  Uiso   1.00
C285   C     0.11798   0.06732   0.49695   0.00000  Uiso   1.00
C286   C     0.10200   0.74021   0.47358   0.00000  Uiso   1.00
C287   C     0.07231   0.69211   0.41975   0.00000  Uiso   1.00
C288   C     0.00311   0.66879   0.41081   0.00000  Uiso   1.00
C289   C     0.89277   0.61490   0.37465   0.00000  Uiso   1.00
C290   C     0.10668   0.81669   0.57244   0.00000  Uiso   1.00
C291   C     0.18707   0.78468   0.59987   0.00000  Uiso   1.00
C292   C     0.22146   0.77867   0.66074   0.00000  Uiso   1.00
C293   C     0.29537   0.74781   0.67674   0.00000  Uiso   1.00
C294   C     0.11709   0.87099   0.54581   0.00000  Uiso   1.00
C295   C     0.09264   0.93755   0.56123   0.00000  Uiso   1.00
C296   C     0.10763   0.97936   0.53172   0.00000  Uiso   1.00
C297   C     0.06392   0.76417   0.51694   0.00000  Uiso   1.00
C298   C     0.99475   0.74092   0.50808   0.00000  Uiso   1.00
C299   C     0.96496   0.69279   0.45425   0.00000  Uiso   1.00
H300   H     0.20643   0.75392   0.45885   0.00000  Uiso   1.00
H301   H     0.32847   0.71133   0.53885   0.00000  Uiso   1.00
H302   H     0.19966   0.87019   0.43935   0.00000  Uiso   1.00
H303   H     0.10179   0.67358   0.38621   0.00000  Uiso   1.00
H304   H     0.44699   0.67470   0.64668   0.00000  Uiso   1.00
H305   H     0.17537   0.00966   0.43685   0.00000  Uiso   1.00
H306   H     0.96899   0.59507   0.32479   0.00000  Uiso   1.00
H307   H     0.07703   0.83534   0.60620   0.00000  Uiso   1.00
H308   H     0.19197   0.79722   0.69429   0.00000  Uiso   1.00
H309   H     0.06317   0.95607   0.59478   0.00000  Uiso   1.00
H310   H     0.96530   0.75947   0.54164   0.00000  Uiso   1.00
H311   H     0.33621   0.74441   0.77283   0.00000  Uiso   1.00
H312   H     0.06458   0.07936   0.56301   0.00000  Uiso   1.00
H313   H     0.85821   0.66478   0.45095   0.00000  Uiso   1.00
O314   O     0.46956   0.68303   0.76505   0.00000  Uiso   1.00
O315   O     0.11318   0.12247   0.48976   0.00000  Uiso   1.00
O316   O     0.84243   0.57855   0.34274   0.00000  Uiso   1.00
N317   N     0.40514   0.69633   0.66427   0.00000  Uiso   1.00
N318   N     0.15120   0.00949   0.46811   0.00000  Uiso   1.00
N319   N     0.95824   0.62191   0.36333   0.00000  Uiso   1.00
N320   N     0.34553   0.73384   0.73216   0.00000  Uiso   1.00
N321   N     0.09159   0.04700   0.53599   0.00000  Uiso   1.00
N322   N     0.89863   0.65941   0.43122   0.00000  Uiso   1.00
C323   C     0.68071   0.56386   0.41945   0.00000  Uiso   1.00
C324   C     0.67763   0.63796   0.42442   0.00000  Uiso   1.00
C325   C     0.70250   0.66647   0.38965   0.00000  Uiso   1.00
C326   C     0.69475   0.73519   0.40113   0.00000  Uiso   1.00
C327   C     0.69472   0.84436   0.40205   0.00000  Uiso   1.00
C328   C     0.59847   0.54886   0.40587   0.00000  Uiso   1.00
C329   C     0.55680   0.50243   0.35550   0.00000  Uiso   1.00
C330   C     0.48242   0.49614   0.35137   0.00000  Uiso   1.00
C331   C     0.35952   0.46693   0.32350   0.00000  Uiso   1.00
C332   C     0.72627   0.55366   0.48440   0.00000  Uiso   1.00
C333   C     0.79204   0.51126   0.50006   0.00000  Uiso   1.00
C334   C     0.82523   0.50901   0.56205   0.00000  Uiso   1.00
C335   C     0.90076   0.48726   0.65611   0.00000  Uiso   1.00
C336   C     0.62270   0.63522   0.50169   0.00000  Uiso   1.00
C337   C     0.64612   0.67672   0.46909   0.00000  Uiso   1.00
C338   C     0.63833   0.74542   0.48064   0.00000  Uiso   1.00
C339   C     0.66319   0.77402   0.44589   0.00000  Uiso   1.00
C340   C     0.56697   0.58761   0.45054   0.00000  Uiso   1.00
C341   C     0.49263   0.58138   0.44649   0.00000  Uiso   1.00
C342   C     0.45085   0.53497   0.39612   0.00000  Uiso   1.00
C343   C     0.69476   0.59242   0.52907   0.00000  Uiso   1.00
C344   C     0.72786   0.59022   0.59105   0.00000  Uiso   1.00
C345   C     0.79367   0.54783   0.60680   0.00000  Uiso   1.00
H346   H     0.70523   0.53368   0.38467   0.00000  Uiso   1.00
H347   H     0.72688   0.63646   0.35508   0.00000  Uiso   1.00
H348   H     0.58120   0.47244   0.32094   0.00000  Uiso   1.00
H349   H     0.81640   0.48128   0.46548   0.00000  Uiso   1.00
H350   H     0.73695   0.76749   0.34196   0.00000  Uiso   1.00
H351   H     0.42980   0.42164   0.26998   0.00000  Uiso   1.00
H352   H     0.92576   0.44027   0.57477   0.00000  Uiso   1.00
H353   H     0.59817   0.66539   0.53647   0.00000  Uiso   1.00
H354   H     0.61394   0.77540   0.51521   0.00000  Uiso   1.00
H355   H     0.46827   0.61138   0.48107   0.00000  Uiso   1.00
H356   H     0.70346   0.62022   0.62560   0.00000  Uiso   1.00
H357   H     0.64529   0.88026   0.47192   0.00000  Uiso   1.00
H358   H     0.33814   0.53441   0.39995   0.00000  Uiso   1.00
H359   H     0.83409   0.55304   0.70473   0.00000  Uiso   1.00
O360   O     0.70340   0.89387   0.39020   0.00000  Uiso   1.00
O361   O     0.30044   0.44011   0.29578   0.00000  Uiso   1.00
O362   O     0.95112   0.46456   0.69565   0.00000  Uiso   1.00
N363   N     0.71323   0.77894   0.37547   0.00000  Uiso   1.00
N364   N     0.42605   0.45559   0.30817   0.00000  Uiso   1.00
N365   N     0.88972   0.47300   0.59312   0.00000  Uiso   1.00
N366   N     0.66391   0.83962   0.44540   0.00000  Uiso   1.00
N367   N     0.37673   0.51628   0.37811   0.00000  Uiso   1.00
N368   N     0.84040   0.53368   0.66305   0.00000  Uiso   1.00
C369   C     0.30613   0.39711   0.80539   0.00000  Uiso   1.00
C370   C     0.23527   0.37578   0.81015   0.00000  Uiso   1.00
C371   C     0.18151   0.33574   0.76279   0.00000  Uiso   1.00
C372   C     0.12077   0.32191   0.77643   0.00000  Uiso   1.00
C373   C     0.01178   0.28491   0.77487   0.00000  Uiso   1.00
C374   C     0.37482   0.37481   0.85658   0.00000  Uiso   1.00
C375   C     0.43841   0.33398   0.84825   0.00000  Uiso   1.00
C376   C     0.49515   0.31935   0.90098   0.00000  Uiso   1.00
C377   C     0.60284   0.28088   0.97150   0.00000  Uiso   1.00
C378   C     0.29989   0.47270   0.82376   0.00000  Uiso   1.00
C379   C     0.30049   0.51417   0.78785   0.00000  Uiso   1.00
C380   C     0.29416   0.58195   0.81295   0.00000  Uiso   1.00
C381   C     0.28550   0.69547   0.83252   0.00000  Uiso   1.00
C382   C     0.29385   0.44375   0.91383   0.00000  Uiso   1.00
C383   C     0.22860   0.40111   0.86906   0.00000  Uiso   1.00
C384   C     0.16792   0.38734   0.88277   0.00000  Uiso   1.00
C385   C     0.11408   0.34729   0.83544   0.00000  Uiso   1.00
C386   C     0.36815   0.40015   0.91548   0.00000  Uiso   1.00
C387   C     0.42482   0.38558   0.96823   0.00000  Uiso   1.00
C388   C     0.48847   0.34472   0.95999   0.00000  Uiso   1.00
C389   C     0.29321   0.49804   0.88266   0.00000  Uiso   1.00
C390   C     0.28689   0.56577   0.90783   0.00000  Uiso   1.00
C391   C     0.28747   0.60733   0.87196   0.00000  Uiso   1.00
H392   H     0.31133   0.37739   0.75954   0.00000  Uiso   1.00
H393   H     0.18670   0.31614   0.71722   0.00000  Uiso   1.00
H394   H     0.44356   0.31438   0.80267   0.00000  Uiso   1.00
H395   H     0.30565   0.49454   0.74227   0.00000  Uiso   1.00
H396   H     0.04560   0.25939   0.69628   0.00000  Uiso   1.00
H397   H     0.58721   0.25570   0.87646   0.00000  Uiso   1.00
H398   H     0.29641   0.63561   0.74910   0.00000  Uiso   1.00
H399   H     0.28866   0.46348   0.95969   0.00000  Uiso   1.00
H400   H     0.16277   0.40696   0.92836   0.00000  Uiso   1.00
H401   H     0.41964   0.40520   0.01381   0.00000  Uiso   1.00
H402   H     0.28173   0.58536   0.95341   0.00000  Uiso   1.00
H403   H     0.02618   0.33309   0.86765   0.00000  Uiso   1.00
H404   H     0.56780   0.32941   0.04783   0.00000  Uiso   1.00
H405   H     0.27699   0.70931   0.92047   0.00000  Uiso   1.00
O406   O     0.95350   0.25749   0.75774   0.00000  Uiso   1.00
O407   O     0.66408   0.25266   0.99413   0.00000  Uiso   1.00
O408   O     0.28256   0.75108   0.82703   0.00000  Uiso   1.00
N409   N     0.05829   0.28450   0.74091   0.00000  Uiso   1.00
N410   N     0.56466   0.28105   0.90936   0.00000  Uiso   1.00
N411   N     0.29281   0.63623   0.79030   0.00000  Uiso   1.00
N412   N     0.04785   0.32416   0.83312   0.00000  Uiso   1.00
N413   N     0.55422   0.32071   0.00157   0.00000  Uiso   1.00
N414   N     0.28236   0.67589   0.88251   0.00000  Uiso   1.00
C415   C     0.82167   0.36776   0.82064   0.00000  Uiso   1.00
C416   C     0.73730   0.38630   0.81455   0.00000  Uiso   1.00
C417   C     0.67470   0.36597   0.76191   0.00000  Uiso   1.00
C418   C     0.60211   0.38832   0.76568   0.00000  Uiso   1.00
C419   C     0.47257   0.41086   0.74792   0.00000  Uiso   1.00
C420   C     0.85868   0.43310   0.84025   0.00000  Uiso   1.00
C421   C     0.89814   0.45210   0.80922   0.00000  Uiso   1.00
C422   C     0.92773   0.51385   0.83463   0.00000  Uiso   1.00
C423   C     0.98667   0.60902   0.85679   0.00000  Uiso   1.00
C424   C     0.85698   0.33587   0.87587   0.00000  Uiso   1.00
C425   C     0.89502   0.27314   0.87480   0.00000  Uiso   1.00
C426   C     0.92320   0.25303   0.93022   0.00000  Uiso   1.00
C427   C     0.97950   0.19724   0.00769   0.00000  Uiso   1.00
C428   C     0.80408   0.44360   0.92096   0.00000  Uiso   1.00
C429   C     0.72775   0.42749   0.86904   0.00000  Uiso   1.00
C430   C     0.65524   0.44988   0.87289   0.00000  Uiso   1.00
C431   C     0.59254   0.42958   0.82026   0.00000  Uiso   1.00
C432   C     0.84913   0.47429   0.89473   0.00000  Uiso   1.00
C433   C     0.87868   0.53601   0.92020   0.00000  Uiso   1.00
C434   C     0.91816   0.55511   0.88922   0.00000  Uiso   1.00
C435   C     0.84742   0.37706   0.93036   0.00000  Uiso   1.00
C436   C     0.87556   0.35705   0.98579   0.00000  Uiso   1.00
C437   C     0.91363   0.29429   0.98480   0.00000  Uiso   1.00
H438   H     0.82911   0.33569   0.77822   0.00000  Uiso   1.00
H439   H     0.68212   0.33409   0.71975   0.00000  Uiso   1.00
H440   H     0.90553   0.42021   0.76706   0.00000  Uiso   1.00
H441   H     0.90241   0.24127   0.83263   0.00000  Uiso   1.00
H442   H     0.51494   0.35051   0.67894   0.00000  Uiso   1.00
H443   H     0.98602   0.53208   0.77870   0.00000  Uiso   1.00
H444   H     0.97945   0.15475   0.91698   0.00000  Uiso   1.00
H445   H     0.79665   0.47568   0.96338   0.00000  Uiso   1.00
H446   H     0.64787   0.48176   0.91506   0.00000  Uiso   1.00
H447   H     0.87127   0.56788   0.96237   0.00000  Uiso   1.00
H448   H     0.86816   0.38894   0.02794   0.00000  Uiso   1.00
H449   H     0.48714   0.47036   0.83746   0.00000  Uiso   1.00
H450   H     0.95823   0.65194   0.93722   0.00000  Uiso   1.00
H451   H     0.95165   0.27461   0.07550   0.00000  Uiso   1.00
O452   O     0.40375   0.41192   0.72307   0.00000  Uiso   1.00
O453   O     0.02181   0.65014   0.85396   0.00000  Uiso   1.00
O454   O     0.01318   0.15509   0.03538   0.00000  Uiso   1.00
N455   N     0.52881   0.37787   0.72288   0.00000  Uiso   1.00
N456   N     0.96924   0.54764   0.81615   0.00000  Uiso   1.00
N457   N     0.96311   0.19487   0.94543   0.00000  Uiso   1.00
N458   N     0.51385   0.44236   0.80818   0.00000  Uiso   1.00
N459   N     0.95428   0.61213   0.90145   0.00000  Uiso   1.00
N460   N     0.94815   0.25936   0.03073   0.00000  Uiso   1.00
C461   C     0.40487   0.04165   0.26883   0.00000  Uiso   1.00
C462   C     0.38834   0.11310   0.26213   0.00000  Uiso   1.00
C463   C     0.40319   0.13707   0.21924   0.00000  Uiso   1.00
C464   C     0.38390   0.20399   0.22058   0.00000  Uiso   1.00
C465   C     0.36329   0.30865   0.20368   0.00000  Uiso   1.00
C466   C     0.45626   0.04474   0.33598   0.00000  Uiso   1.00
C467   C     0.52821   0.01122   0.35518   0.00000  Uiso   1.00
C468   C     0.56608   0.02060   0.41870   0.00000  Uiso   1.00
C469   C     0.65089   0.01908   0.51646   0.00000  Uiso   1.00
C470   C     0.32844   0.01935   0.26230   0.00000  Uiso   1.00
C471   C     0.29292   0.96447   0.21957   0.00000  Uiso   1.00
C472   C     0.22319   0.95245   0.22106   0.00000  Uiso   1.00
C473   C     0.10954   0.91151   0.20443   0.00000  Uiso   1.00
C474   C     0.34420   0.11788   0.34748   0.00000  Uiso   1.00
C475   C     0.35539   0.15450   0.30485   0.00000  Uiso   1.00
C476   C     0.33607   0.22141   0.30625   0.00000  Uiso   1.00
C477   C     0.35089   0.24547   0.26337   0.00000  Uiso   1.00
C478   C     0.42331   0.08614   0.37870   0.00000  Uiso   1.00
C479   C     0.46109   0.09556   0.44220   0.00000  Uiso   1.00
C480   C     0.53308   0.06208   0.46149   0.00000  Uiso   1.00
C481   C     0.29549   0.06075   0.30502   0.00000  Uiso   1.00
C482   C     0.22580   0.04881   0.30658   0.00000  Uiso   1.00
C483   C     0.19018   0.99393   0.26386   0.00000  Uiso   1.00
H484   H     0.43053   0.00941   0.23558   0.00000  Uiso   1.00
H485   H     0.42870   0.10501   0.18619   0.00000  Uiso   1.00
H486   H     0.55369   0.97918   0.32211   0.00000  Uiso   1.00
H487   H     0.31844   0.93244   0.18652   0.00000  Uiso   1.00
H488   H     0.41217   0.22926   0.15028   0.00000  Uiso   1.00
H489   H     0.67570   0.96393   0.43689   0.00000  Uiso   1.00
H490   H     0.17964   0.86536   0.15096   0.00000  Uiso   1.00
H491   H     0.31855   0.15011   0.38075   0.00000  Uiso   1.00
H492   H     0.31057   0.25344   0.33932   0.00000  Uiso   1.00
H493   H     0.43557   0.12761   0.47524   0.00000  Uiso   1.00
H494   H     0.20032   0.08087   0.33965   0.00000  Uiso   1.00
H495   H     0.31630   0.34974   0.27457   0.00000  Uiso   1.00
H496   H     0.57984   0.08439   0.56118   0.00000  Uiso   1.00
H497   H     0.08377   0.98583   0.27525   0.00000  Uiso   1.00
O498   O     0.36103   0.35494   0.18257   0.00000  Uiso   1.00
O499   O     0.70677   0.00681   0.55858   0.00000  Uiso   1.00
O500   O     0.05595   0.87750   0.18345   0.00000  Uiso   1.00
N501   N     0.39068   0.24344   0.18521   0.00000  Uiso   1.00
N502   N     0.63708   0.99537   0.45317   0.00000  Uiso   1.00
N503   N     0.17331   0.90321   0.18586   0.00000  Uiso   1.00
N504   N     0.33910   0.30826   0.25209   0.00000  Uiso   1.00
N505   N     0.58549   0.06019   0.52005   0.00000  Uiso   1.00
N506   N     0.12172   0.96803   0.25274   0.00000  Uiso   1.00
C507   C     0.79278   0.87461   0.03937   0.00000  Uiso   1.00
C508   C     0.81605   0.89094   0.10988   0.00000  Uiso   1.00
C509   C     0.88269   0.86606   0.14997   0.00000  Uiso   1.00
C510   C     0.89345   0.88703   0.21293   0.00000  Uiso   1.00
C511   C     0.93777   0.90561   0.31907   0.00000  Uiso   1.00
C512   C     0.71360   0.84786   0.01424   0.00000  Uiso   1.00
C513   C     0.69411   0.78678   0.97393   0.00000  Uiso   1.00
C514   C     0.61862   0.77149   0.95638   0.00000  Uiso   1.00
C515   C     0.50388   0.72323   0.91400   0.00000  Uiso   1.00
C516   C     0.78057   0.94087   0.02173   0.00000  Uiso   1.00
C517   C     0.81737   0.95798   0.98770   0.00000  Uiso   1.00
C518   C     0.79825   0.02099   0.97644   0.00000  Uiso   1.00
C519   C     0.78749   0.11713   0.94570   0.00000  Uiso   1.00
C520   C     0.69339   0.95609   0.07987   0.00000  Uiso   1.00
C521   C     0.76206   0.93519   0.13187   0.00000  Uiso   1.00
C522   C     0.77272   0.95620   0.19479   0.00000  Uiso   1.00
C523   C     0.83936   0.93136   0.23497   0.00000  Uiso   1.00
C524   C     0.65962   0.89212   0.03624   0.00000  Uiso   1.00
C525   C     0.58414   0.87692   0.01874   0.00000  Uiso   1.00
C526   C     0.56454   0.81583   0.97841   0.00000  Uiso   1.00
C527   C     0.72659   0.98512   0.04374   0.00000  Uiso   1.00
C528   C     0.70740   0.04812   0.03252   0.00000  Uiso   1.00
C529   C     0.74416   0.06533   0.99848   0.00000  Uiso   1.00
H530   H     0.83481   0.84016   0.02223   0.00000  Uiso   1.00
H531   H     0.92445   0.83181   0.13293   0.00000  Uiso   1.00
H532   H     0.73590   0.75255   0.95691   0.00000  Uiso   1.00
H533   H     0.85914   0.92372   0.97068   0.00000  Uiso   1.00
H534   H     0.00001   0.84205   0.26535   0.00000  Uiso   1.00
H535   H     0.60243   0.67493   0.89418   0.00000  Uiso   1.00
H536   H     0.86231   0.03588   0.92323   0.00000  Uiso   1.00
H537   H     0.65135   0.99054   0.09700   0.00000  Uiso   1.00
H538   H     0.73093   0.99045   0.21180   0.00000  Uiso   1.00
H539   H     0.54238   0.91118   0.03578   0.00000  Uiso   1.00
H540   H     0.66562   0.08235   0.04955   0.00000  Uiso   1.00
H541   H     0.84294   0.97080   0.32937   0.00000  Uiso   1.00
H542   H     0.44536   0.80368   0.95819   0.00000  Uiso   1.00
H543   H     0.70524   0.16463   0.98725   0.00000  Uiso   1.00
O544   O     0.97712   0.90363   0.37153   0.00000  Uiso   1.00
O545   O     0.45551   0.68438   0.88456   0.00000  Uiso   1.00
O546   O     0.79647   0.15794   0.92268   0.00000  Uiso   1.00
N547   N     0.95213   0.87237   0.26467   0.00000  Uiso   1.00
N548   N     0.58042   0.71612   0.91765   0.00000  Uiso   1.00
N549   N     0.82337   0.05358   0.94480   0.00000  Uiso   1.00
N550   N     0.86762   0.94166   0.29911   0.00000  Uiso   1.00
N551   N     0.49590   0.78540   0.95210   0.00000  Uiso   1.00
N552   N     0.73886   0.12286   0.97924   0.00000  Uiso   1.00
