data_job_06755
_audit_creation_date              2018-12-19
_audit_creation_method            'Materials Studio'
_symmetry_space_group_name_H-M    'P1'
_symmetry_Int_Tables_number       1
_symmetry_cell_setting            triclinic
loop_
_symmetry_equiv_pos_as_xyz
  x,y,z
_cell_length_a                    15.6792
_cell_length_b                    25.7850
_cell_length_c                    28.0616
_cell_angle_alpha                 105.0460
_cell_angle_beta                  104.9242
_cell_angle_gamma                 104.7181
loop_
_atom_site_label
_atom_site_type_symbol
_atom_site_fract_x
_atom_site_fract_y
_atom_site_fract_z
_atom_site_U_iso_or_equiv
_atom_site_adp_type
_atom_site_occupancy
C1     C     0.82985   0.31198   0.25220   0.00000  Uiso   1.00
C2     C     0.74949   0.28113   0.19954   0.00000  Uiso   1.00
C3     C     0.75914   0.26572   0.15053   0.00000  Uiso   1.00
C4     C     0.67702   0.23779   0.10708   0.00000  Uiso   1.00
C5     C     0.56571   0.19175   0.02449   0.00000  Uiso   1.00
C6     C     0.81184   0.36569   0.27880   0.00000  Uiso   1.00
C7     C     0.87392   0.42136   0.29644   0.00000  Uiso   1.00
C8     C     0.84427   0.46461   0.31972   0.00000  Uiso   1.00
C9     C     0.82978   0.54984   0.36021   0.00000  Uiso   1.00
C10    C     0.81651   0.27392   0.28510   0.00000  Uiso   1.00
C11    C     0.88253   0.25244   0.30806   0.00000  Uiso   1.00
C12    C     0.85683   0.21843   0.33665   0.00000  Uiso   1.00
C13    C     0.84960   0.16117   0.38693   0.00000  Uiso   1.00
C14    C     0.66684   0.28979   0.26218   0.00000  Uiso   1.00
C15    C     0.66095   0.26908   0.20496   0.00000  Uiso   1.00
C16    C     0.57878   0.24116   0.16158   0.00000  Uiso   1.00
C17    C     0.58831   0.22571   0.11252   0.00000  Uiso   1.00
C18    C     0.72330   0.35364   0.28422   0.00000  Uiso   1.00
C19    C     0.69356   0.39681   0.30748   0.00000  Uiso   1.00
C20    C     0.75557   0.45253   0.32515   0.00000  Uiso   1.00
C21    C     0.72797   0.26186   0.29052   0.00000  Uiso   1.00
C22    C     0.70217   0.22788   0.31910   0.00000  Uiso   1.00
C23    C     0.76813   0.20635   0.34209   0.00000  Uiso   1.00
H24    H     0.89879   0.32137   0.24798   0.00000  Uiso   1.00
H25    H     0.82768   0.27506   0.14635   0.00000  Uiso   1.00
H26    H     0.94243   0.43068   0.29224   0.00000  Uiso   1.00
H27    H     0.95104   0.26178   0.30385   0.00000  Uiso   1.00
H28    H     0.70979   0.21842   0.03607   0.00000  Uiso   1.00
H29    H     0.95177   0.54655   0.34370   0.00000  Uiso   1.00
H30    H     0.96993   0.19039   0.36819   0.00000  Uiso   1.00
H31    H     0.59790   0.28040   0.26640   0.00000  Uiso   1.00
H32    H     0.51027   0.23184   0.16578   0.00000  Uiso   1.00
H33    H     0.62503   0.38746   0.31168   0.00000  Uiso   1.00
H34    H     0.63364   0.21856   0.32328   0.00000  Uiso   1.00
H35    H     0.45217   0.18335   0.05184   0.00000  Uiso   1.00
H36    H     0.69416   0.51147   0.35948   0.00000  Uiso   1.00
H37    H     0.71231   0.15531   0.38396   0.00000  Uiso   1.00
O38    O     0.52877   0.16970   0.97743   0.00000  Uiso   1.00
O39    O     0.84625   0.60018   0.38104   0.00000  Uiso   1.00
O40    O     0.87006   0.13291   0.41316   0.00000  Uiso   1.00
N41    N     0.66119   0.21682   0.05359   0.00000  Uiso   1.00
N42    N     0.88742   0.52360   0.34120   0.00000  Uiso   1.00
N43    N     0.90440   0.19063   0.36410   0.00000  Uiso   1.00
N44    N     0.52256   0.19794   0.06208   0.00000  Uiso   1.00
N45    N     0.74880   0.50473   0.34969   0.00000  Uiso   1.00
N46    N     0.76578   0.17176   0.37259   0.00000  Uiso   1.00
C47    C     0.23533   0.68299   0.66024   0.00000  Uiso   1.00
C48    C     0.25702   0.74682   0.68656   0.00000  Uiso   1.00
C49    C     0.34535   0.78693   0.71735   0.00000  Uiso   1.00
C50    C     0.35046   0.84321   0.73789   0.00000  Uiso   1.00
C51    C     0.39635   0.93996   0.78028   0.00000  Uiso   1.00
C52    C     0.16221   0.65256   0.67986   0.00000  Uiso   1.00
C53    C     0.17083   0.61341   0.70501   0.00000  Uiso   1.00
C54    C     0.09612   0.59034   0.71991   0.00000  Uiso   1.00
C55    C     0.99480   0.54071   0.75187   0.00000  Uiso   1.00
C56    C     0.18535   0.66921   0.60178   0.00000  Uiso   1.00
C57    C     0.21341   0.64403   0.56128   0.00000  Uiso   1.00
C58    C     0.15817   0.63497   0.51043   0.00000  Uiso   1.00
C59    C     0.09277   0.61119   0.42117   0.00000  Uiso   1.00
C60    C     0.08734   0.71164   0.64196   0.00000  Uiso   1.00
C61    C     0.17663   0.76238   0.67663   0.00000  Uiso   1.00
C62    C     0.18161   0.81862   0.69712   0.00000  Uiso   1.00
C63    C     0.26993   0.85880   0.72794   0.00000  Uiso   1.00
C64    C     0.08183   0.66812   0.66993   0.00000  Uiso   1.00
C65    C     0.00709   0.64510   0.68479   0.00000  Uiso   1.00
C66    C     0.01559   0.60592   0.70996   0.00000  Uiso   1.00
C67    C     0.10497   0.68477   0.59185   0.00000  Uiso   1.00
C68    C     0.04967   0.67573   0.54106   0.00000  Uiso   1.00
C69    C     0.07764   0.65055   0.50049   0.00000  Uiso   1.00
H70    H     0.29791   0.67087   0.66797   0.00000  Uiso   1.00
H71    H     0.40754   0.77487   0.72502   0.00000  Uiso   1.00
H72    H     0.23304   0.60137   0.71269   0.00000  Uiso   1.00
H73    H     0.27561   0.63200   0.56898   0.00000  Uiso   1.00
H74    H     0.49362   0.89702   0.78392   0.00000  Uiso   1.00
H75    H     0.12567   0.53118   0.75789   0.00000  Uiso   1.00
H76    H     0.21545   0.59576   0.45485   0.00000  Uiso   1.00
H77    H     0.02475   0.72375   0.63423   0.00000  Uiso   1.00
H78    H     0.11939   0.83065   0.68944   0.00000  Uiso   1.00
H79    H     0.94489   0.65715   0.67710   0.00000  Uiso   1.00
H80    H     0.98747   0.68778   0.53339   0.00000  Uiso   1.00
H81    H     0.25975   0.94229   0.75504   0.00000  Uiso   1.00
H82    H     0.89180   0.57645   0.72900   0.00000  Uiso   1.00
H83    H     0.98157   0.64104   0.42596   0.00000  Uiso   1.00
O84    O     0.44387   0.98902   0.80642   0.00000  Uiso   1.00
O85    O     0.96113   0.50905   0.77225   0.00000  Uiso   1.00
O86    O     0.07891   0.59378   0.37467   0.00000  Uiso   1.00
N87    N     0.42560   0.89301   0.76954   0.00000  Uiso   1.00
N88    N     0.08159   0.55098   0.74521   0.00000  Uiso   1.00
N89    N     0.16551   0.61134   0.46189   0.00000  Uiso   1.00
N90    N     0.29975   0.91737   0.75400   0.00000  Uiso   1.00
N91    N     0.95575   0.57534   0.72967   0.00000  Uiso   1.00
N92    N     0.03966   0.63570   0.44635   0.00000  Uiso   1.00
C93    C     0.30298   0.12232   0.60586   0.00000  Uiso   1.00
C94    C     0.29376   0.06339   0.60978   0.00000  Uiso   1.00
C95    C     0.36766   0.04410   0.62538   0.00000  Uiso   1.00
C96    C     0.34460   0.98881   0.62637   0.00000  Uiso   1.00
C97    C     0.34453   0.90258   0.63458   0.00000  Uiso   1.00
C98    C     0.24416   0.11175   0.54947   0.00000  Uiso   1.00
C99    C     0.27634   0.13313   0.51436   0.00000  Uiso   1.00
C100   C     0.21152   0.11856   0.46458   0.00000  Uiso   1.00
C101   C     0.13442   0.10745   0.37917   0.00000  Uiso   1.00
C102   C     0.25289   0.14803   0.64052   0.00000  Uiso   1.00
C103   C     0.29241   0.19992   0.68195   0.00000  Uiso   1.00
C104   C     0.23493   0.21590   0.70882   0.00000  Uiso   1.00
C105   C     0.17140   0.26112   0.76477   0.00000  Uiso   1.00
C106   C     0.13062   0.05843   0.57989   0.00000  Uiso   1.00
C107   C     0.20015   0.02869   0.59567   0.00000  Uiso   1.00
C108   C     0.17697   0.97342   0.59664   0.00000  Uiso   1.00
C109   C     0.25081   0.95405   0.61224   0.00000  Uiso   1.00
C110   C     0.15054   0.07705   0.53536   0.00000  Uiso   1.00
C111   C     0.08565   0.06245   0.48562   0.00000  Uiso   1.00
C112   C     0.11773   0.08380   0.45045   0.00000  Uiso   1.00
C113   C     0.15928   0.11333   0.62641   0.00000  Uiso   1.00
C114   C     0.10172   0.12924   0.65322   0.00000  Uiso   1.00
C115   C     0.14114   0.18114   0.69468   0.00000  Uiso   1.00
H116   H     0.37586   0.14933   0.61684   0.00000  Uiso   1.00
H117   H     0.44010   0.07096   0.63629   0.00000  Uiso   1.00
H118   H     0.34879   0.15999   0.52529   0.00000  Uiso   1.00
H119   H     0.36486   0.22676   0.69285   0.00000  Uiso   1.00
H120   H     0.47003   0.96876   0.65161   0.00000  Uiso   1.00
H121   H     0.27750   0.15650   0.41757   0.00000  Uiso   1.00
H122   H     0.31138   0.29731   0.77092   0.00000  Uiso   1.00
H123   H     0.05773   0.03142   0.56890   0.00000  Uiso   1.00
H124   H     0.10452   0.94657   0.58573   0.00000  Uiso   1.00
H125   H     0.01321   0.03560   0.47472   0.00000  Uiso   1.00
H126   H     0.02928   0.10238   0.64229   0.00000  Uiso   1.00
H127   H     0.19766   0.86781   0.61057   0.00000  Uiso   1.00
H128   H     0.00513   0.05555   0.37653   0.00000  Uiso   1.00
H129   H     0.03901   0.19635   0.72987   0.00000  Uiso   1.00
O130   O     0.37036   0.86459   0.64300   0.00000  Uiso   1.00
O131   O     0.11776   0.11091   0.33596   0.00000  Uiso   1.00
O132   O     0.16222   0.29564   0.79954   0.00000  Uiso   1.00
N133   N     0.39951   0.95665   0.63965   0.00000  Uiso   1.00
N134   N     0.21951   0.13217   0.42084   0.00000  Uiso   1.00
N135   N     0.25118   0.26381   0.75118   0.00000  Uiso   1.00
N136   N     0.25295   0.90233   0.61757   0.00000  Uiso   1.00
N137   N     0.07295   0.07784   0.39875   0.00000  Uiso   1.00
N138   N     0.10462   0.20949   0.72909   0.00000  Uiso   1.00
C139   C     0.90256   0.79671   0.93858   0.00000  Uiso   1.00
C140   C     0.89015   0.82062   0.89391   0.00000  Uiso   1.00
C141   C     0.96199   0.85504   0.88377   0.00000  Uiso   1.00
C142   C     0.93612   0.87248   0.84102   0.00000  Uiso   1.00
C143   C     0.93120   0.91209   0.77644   0.00000  Uiso   1.00
C144   C     0.85557   0.73199   0.91267   0.00000  Uiso   1.00
C145   C     0.89834   0.69190   0.91830   0.00000  Uiso   1.00
C146   C     0.84335   0.63473   0.89134   0.00000  Uiso   1.00
C147   C     0.78473   0.53673   0.85591   0.00000  Uiso   1.00
C148   C     0.84293   0.81679   0.96949   0.00000  Uiso   1.00
C149   C     0.87506   0.84798   0.02290   0.00000  Uiso   1.00
C150   C     0.80943   0.86219   0.04379   0.00000  Uiso   1.00
C151   C     0.73119   0.89585   0.09658   0.00000  Uiso   1.00
C152   C     0.72886   0.76648   0.88071   0.00000  Uiso   1.00
C153   C     0.79580   0.80420   0.86249   0.00000  Uiso   1.00
C154   C     0.76981   0.82160   0.81975   0.00000  Uiso   1.00
C155   C     0.84160   0.85604   0.80954   0.00000  Uiso   1.00
C156   C     0.76123   0.71557   0.88124   0.00000  Uiso   1.00
C157   C     0.70616   0.65845   0.85428   0.00000  Uiso   1.00
C158   C     0.74884   0.61828   0.85986   0.00000  Uiso   1.00
C159   C     0.74859   0.80037   0.93806   0.00000  Uiso   1.00
C160   C     0.68289   0.81453   0.95888   0.00000  Uiso   1.00
C161   C     0.71491   0.84574   0.01230   0.00000  Uiso   1.00
H162   H     0.97601   0.80949   0.96304   0.00000  Uiso   1.00
H163   H     0.03499   0.86774   0.90809   0.00000  Uiso   1.00
H164   H     0.97135   0.70461   0.94262   0.00000  Uiso   1.00
H165   H     0.94808   0.86067   0.04720   0.00000  Uiso   1.00
H166   H     0.05878   0.92505   0.83330   0.00000  Uiso   1.00
H167   H     0.92458   0.58110   0.90612   0.00000  Uiso   1.00
H168   H     0.87550   0.91018   0.12666   0.00000  Uiso   1.00
H169   H     0.65541   0.75370   0.85624   0.00000  Uiso   1.00
H170   H     0.69680   0.80889   0.79543   0.00000  Uiso   1.00
H171   H     0.63316   0.64576   0.82996   0.00000  Uiso   1.00
H172   H     0.60988   0.80182   0.93454   0.00000  Uiso   1.00
H173   H     0.78429   0.87729   0.74186   0.00000  Uiso   1.00
H174   H     0.65008   0.53334   0.81468   0.00000  Uiso   1.00
H175   H     0.60101   0.86242   0.03521   0.00000  Uiso   1.00
O176   O     0.95455   0.93847   0.74949   0.00000  Uiso   1.00
O177   O     0.77847   0.48722   0.84504   0.00000  Uiso   1.00
O178   O     0.71409   0.91896   0.13437   0.00000  Uiso   1.00
N179   N     0.98850   0.90625   0.82013   0.00000  Uiso   1.00
N180   N     0.86303   0.58468   0.88821   0.00000  Uiso   1.00
N181   N     0.81714   0.89232   0.09439   0.00000  Uiso   1.00
N182   N     0.84079   0.88055   0.77093   0.00000  Uiso   1.00
N183   N     0.71533   0.55897   0.83900   0.00000  Uiso   1.00
N184   N     0.66944   0.86662   0.04519   0.00000  Uiso   1.00
C185   C     0.94712   0.29665   0.92553   0.00000  Uiso   1.00
C186   C     0.94431   0.23735   0.92636   0.00000  Uiso   1.00
C187   C     0.01045   0.21236   0.91833   0.00000  Uiso   1.00
C188   C     0.99526   0.15777   0.92067   0.00000  Uiso   1.00
C189   C     0.00287   0.07004   0.92045   0.00000  Uiso   1.00
C190   C     0.94348   0.32882   0.97846   0.00000  Uiso   1.00
C191   C     0.00891   0.38073   0.01424   0.00000  Uiso   1.00
C192   C     0.99301   0.40315   0.06044   0.00000  Uiso   1.00
C193   C     0.99929   0.45744   0.14110   0.00000  Uiso   1.00
C194   C     0.85448   0.28782   0.88441   0.00000  Uiso   1.00
C195   C     0.84507   0.30528   0.84112   0.00000  Uiso   1.00
C196   C     0.75424   0.29320   0.80814   0.00000  Uiso   1.00
C197   C     0.62234   0.28384   0.74278   0.00000  Uiso   1.00
C198   C     0.80253   0.24416   0.94397   0.00000  Uiso   1.00
C199   C     0.86578   0.20884   0.93637   0.00000  Uiso   1.00
C200   C     0.85047   0.15428   0.93872   0.00000  Uiso   1.00
C201   C     0.91658   0.12921   0.93070   0.00000  Uiso   1.00
C202   C     0.86495   0.30031   0.98848   0.00000  Uiso   1.00
C203   C     0.84894   0.32265   0.03463   0.00000  Uiso   1.00
C204   C     0.91433   0.37458   0.07047   0.00000  Uiso   1.00
C205   C     0.77594   0.25931   0.89443   0.00000  Uiso   1.00
C206   C     0.68510   0.24720   0.86151   0.00000  Uiso   1.00
C207   C     0.67556   0.26463   0.81817   0.00000  Uiso   1.00
H208   H     0.00826   0.31885   0.91774   0.00000  Uiso   1.00
H209   H     0.07122   0.23444   0.91058   0.00000  Uiso   1.00
H210   H     0.06968   0.40279   0.00648   0.00000  Uiso   1.00
H211   H     0.90587   0.32735   0.83338   0.00000  Uiso   1.00
H212   H     0.10641   0.12828   0.90708   0.00000  Uiso   1.00
H213   H     0.10313   0.48326   0.10927   0.00000  Uiso   1.00
H214   H     0.75771   0.32418   0.74427   0.00000  Uiso   1.00
H215   H     0.74138   0.22196   0.95176   0.00000  Uiso   1.00
H216   H     0.78969   0.13223   0.94647   0.00000  Uiso   1.00
H217   H     0.78815   0.30058   0.04237   0.00000  Uiso   1.00
H218   H     0.62434   0.22514   0.86927   0.00000  Uiso   1.00
H219   H     0.87791   0.04532   0.93622   0.00000  Uiso   1.00
H220   H     0.87464   0.40031   0.13841   0.00000  Uiso   1.00
H221   H     0.52921   0.24123   0.77340   0.00000  Uiso   1.00
O222   O     0.02877   0.02953   0.91758   0.00000  Uiso   1.00
O223   O     0.02447   0.49526   0.18283   0.00000  Uiso   1.00
O224   O     0.57128   0.28654   0.70395   0.00000  Uiso   1.00
N225   N     0.04599   0.12107   0.91466   0.00000  Uiso   1.00
N226   N     0.04294   0.45295   0.10369   0.00000  Uiso   1.00
N227   N     0.71999   0.30424   0.76245   0.00000  Uiso   1.00
N228   N     0.92304   0.07643   0.93033   0.00000  Uiso   1.00
N229   N     0.91998   0.40831   0.11937   0.00000  Uiso   1.00
N230   N     0.59704   0.25960   0.77813   0.00000  Uiso   1.00
C231   C     0.81106   0.87841   0.49556   0.00000  Uiso   1.00
C232   C     0.84065   0.92770   0.54715   0.00000  Uiso   1.00
C233   C     0.91604   0.94009   0.59219   0.00000  Uiso   1.00
C234   C     0.93149   0.98704   0.63531   0.00000  Uiso   1.00
C235   C     0.98627   0.05852   0.71569   0.00000  Uiso   1.00
C236   C     0.81084   0.90546   0.45325   0.00000  Uiso   1.00
C237   C     0.86116   0.89915   0.41934   0.00000  Uiso   1.00
C238   C     0.85151   0.92737   0.38341   0.00000  Uiso   1.00
C239   C     0.85995   0.96429   0.31798   0.00000  Uiso   1.00
C240   C     0.70863   0.84412   0.48387   0.00000  Uiso   1.00
C241   C     0.67300   0.78622   0.47569   0.00000  Uiso   1.00
C242   C     0.57729   0.76279   0.46552   0.00000  Uiso   1.00
C243   C     0.42704   0.70446   0.44763   0.00000  Uiso   1.00
C244   C     0.70443   0.93976   0.49204   0.00000  Uiso   1.00
C245   C     0.78273   0.96103   0.54523   0.00000  Uiso   1.00
C246   C     0.79806   0.00797   0.58829   0.00000  Uiso   1.00
C247   C     0.87346   0.02042   0.63339   0.00000  Uiso   1.00
C248   C     0.75292   0.93879   0.45134   0.00000  Uiso   1.00
C249   C     0.74318   0.96702   0.41544   0.00000  Uiso   1.00
C250   C     0.79348   0.96075   0.38149   0.00000  Uiso   1.00
C251   C     0.65071   0.87744   0.48195   0.00000  Uiso   1.00
C252   C     0.55503   0.85410   0.47179   0.00000  Uiso   1.00
C253   C     0.51926   0.79617   0.46360   0.00000  Uiso   1.00
H254   H     0.85616   0.85247   0.49705   0.00000  Uiso   1.00
H255   H     0.96085   0.91430   0.59366   0.00000  Uiso   1.00
H256   H     0.90597   0.87335   0.42083   0.00000  Uiso   1.00
H257   H     0.71785   0.76044   0.47717   0.00000  Uiso   1.00
H258   H     0.05141   0.99755   0.69991   0.00000  Uiso   1.00
H259   H     0.93566   0.91120   0.33548   0.00000  Uiso   1.00
H260   H     0.53896   0.67311   0.45429   0.00000  Uiso   1.00
H261   H     0.65933   0.96571   0.49054   0.00000  Uiso   1.00
H262   H     0.75323   0.03375   0.58680   0.00000  Uiso   1.00
H263   H     0.69835   0.99280   0.41397   0.00000  Uiso   1.00
H264   H     0.51023   0.87990   0.47031   0.00000  Uiso   1.00
H265   H     0.88289   0.09450   0.69435   0.00000  Uiso   1.00
H266   H     0.76715   0.00815   0.32991   0.00000  Uiso   1.00
H267   H     0.37045   0.77006   0.44872   0.00000  Uiso   1.00
O268   O     0.03249   0.08875   0.76056   0.00000  Uiso   1.00
O269   O     0.88062   0.97545   0.28243   0.00000  Uiso   1.00
O270   O     0.36016   0.66309   0.43831   0.00000  Uiso   1.00
N271   N     0.99885   0.01102   0.68540   0.00000  Uiso   1.00
N272   N     0.89065   0.93030   0.34468   0.00000  Uiso   1.00
N273   N     0.51976   0.70770   0.45574   0.00000  Uiso   1.00
N274   N     0.90817   0.06319   0.68240   0.00000  Uiso   1.00
N275   N     0.79997   0.98247   0.34168   0.00000  Uiso   1.00
N276   N     0.42909   0.75987   0.45274   0.00000  Uiso   1.00
C277   C     0.85171   0.71968   0.30644   0.00000  Uiso   1.00
C278   C     0.91742   0.74065   0.36335   0.00000  Uiso   1.00
C279   C     0.89263   0.75659   0.40759   0.00000  Uiso   1.00
C280   C     0.96295   0.77455   0.45618   0.00000  Uiso   1.00
C281   C     0.05101   0.80678   0.54392   0.00000  Uiso   1.00
C282   C     0.85656   0.66136   0.28003   0.00000  Uiso   1.00
C283   C     0.78060   0.61063   0.25420   0.00000  Uiso   1.00
C284   C     0.79969   0.56184   0.23264   0.00000  Uiso   1.00
C285   C     0.79326   0.47099   0.19098   0.00000  Uiso   1.00
C286   C     0.89694   0.75947   0.28117   0.00000  Uiso   1.00
C287   C     0.85491   0.79122   0.25629   0.00000  Uiso   1.00
C288   C     0.90799   0.82503   0.23568   0.00000  Uiso   1.00
C289   C     0.96425   0.88650   0.19579   0.00000  Uiso   1.00
C290   C     0.02068   0.72323   0.31406   0.00000  Uiso   1.00
C291   C     0.00920   0.74257   0.36749   0.00000  Uiso   1.00
C292   C     0.07957   0.76051   0.41603   0.00000  Uiso   1.00
C293   C     0.05489   0.77648   0.46033   0.00000  Uiso   1.00
C294   C     0.94833   0.66328   0.28417   0.00000  Uiso   1.00
C295   C     0.96754   0.61456   0.26264   0.00000  Uiso   1.00
C296   C     0.89163   0.56377   0.23679   0.00000  Uiso   1.00
C297   C     0.98871   0.76140   0.28531   0.00000  Uiso   1.00
C298   C     0.04186   0.79515   0.26473   0.00000  Uiso   1.00
C299   C     0.99993   0.82695   0.23983   0.00000  Uiso   1.00
H300   H     0.78025   0.71818   0.30322   0.00000  Uiso   1.00
H301   H     0.82159   0.75509   0.40437   0.00000  Uiso   1.00
H302   H     0.70958   0.60916   0.25100   0.00000  Uiso   1.00
H303   H     0.78389   0.78972   0.25309   0.00000  Uiso   1.00
H304   H     0.90789   0.79684   0.51835   0.00000  Uiso   1.00
H305   H     0.67171   0.48914   0.19494   0.00000  Uiso   1.00
H306   H     0.82840   0.86989   0.19935   0.00000  Uiso   1.00
H307   H     0.09213   0.72473   0.31729   0.00000  Uiso   1.00
H308   H     0.15059   0.76200   0.41922   0.00000  Uiso   1.00
H309   H     0.03857   0.61607   0.26585   0.00000  Uiso   1.00
H310   H     0.11288   0.79663   0.26794   0.00000  Uiso   1.00
H311   H     0.17492   0.80244   0.53040   0.00000  Uiso   1.00
H312   H     0.93872   0.49474   0.20699   0.00000  Uiso   1.00
H313   H     0.09542   0.87550   0.21140   0.00000  Uiso   1.00
O314   O     0.07423   0.82402   0.59117   0.00000  Uiso   1.00
O315   O     0.76435   0.42033   0.16686   0.00000  Uiso   1.00
O316   O     0.96993   0.91988   0.17265   0.00000  Uiso   1.00
N317   N     0.96272   0.79305   0.50719   0.00000  Uiso   1.00
N318   N     0.74190   0.50537   0.20484   0.00000  Uiso   1.00
N319   N     0.88838   0.86133   0.20895   0.00000  Uiso   1.00
N320   N     0.10640   0.79607   0.51368   0.00000  Uiso   1.00
N321   N     0.88558   0.50839   0.21132   0.00000  Uiso   1.00
N322   N     0.03207   0.86435   0.21543   0.00000  Uiso   1.00
C323   C     0.34160   0.29595   0.90721   0.00000  Uiso   1.00
C324   C     0.33702   0.23518   0.88064   0.00000  Uiso   1.00
C325   C     0.25550   0.18847   0.85101   0.00000  Uiso   1.00
C326   C     0.26621   0.13649   0.83001   0.00000  Uiso   1.00
C327   C     0.24555   0.04289   0.78747   0.00000  Uiso   1.00
C328   C     0.40238   0.33386   0.88621   0.00000  Uiso   1.00
C329   C     0.37581   0.37013   0.86126   0.00000  Uiso   1.00
C330   C     0.44154   0.40122   0.84495   0.00000  Uiso   1.00
C331   C     0.52237   0.46086   0.81109   0.00000  Uiso   1.00
C332   C     0.39777   0.31247   0.96532   0.00000  Uiso   1.00
C333   C     0.36734   0.33077   0.00688   0.00000  Uiso   1.00
C334   C     0.42921   0.34386   0.05718   0.00000  Uiso   1.00
C335   C     0.50289   0.37029   0.14614   0.00000  Uiso   1.00
C336   C     0.50557   0.28668   0.92261   0.00000  Uiso   1.00
C337   C     0.42609   0.23014   0.88901   0.00000  Uiso   1.00
C338   C     0.43692   0.17821   0.86805   0.00000  Uiso   1.00
C339   C     0.35543   0.13144   0.83839   0.00000  Uiso   1.00
C340   C     0.49144   0.32882   0.89458   0.00000  Uiso   1.00
C341   C     0.55723   0.35987   0.87831   0.00000  Uiso   1.00
C342   C     0.53077   0.39618   0.85334   0.00000  Uiso   1.00
C343   C     0.48683   0.30743   0.97368   0.00000  Uiso   1.00
C344   C     0.54876   0.32050   0.02392   0.00000  Uiso   1.00
C345   C     0.51843   0.33881   0.06556   0.00000  Uiso   1.00
H346   H     0.27226   0.29988   0.90069   0.00000  Uiso   1.00
H347   H     0.18659   0.19239   0.84454   0.00000  Uiso   1.00
H348   H     0.30688   0.37403   0.85480   0.00000  Uiso   1.00
H349   H     0.29842   0.33466   0.00039   0.00000  Uiso   1.00
H350   H     0.13089   0.07100   0.78595   0.00000  Uiso   1.00
H351   H     0.38454   0.45401   0.80760   0.00000  Uiso   1.00
H352   H     0.36669   0.37101   0.11462   0.00000  Uiso   1.00
H353   H     0.57492   0.28276   0.92913   0.00000  Uiso   1.00
H354   H     0.50585   0.17432   0.87453   0.00000  Uiso   1.00
H355   H     0.62614   0.35596   0.88479   0.00000  Uiso   1.00
H356   H     0.61768   0.31660   0.03039   0.00000  Uiso   1.00
H357   H     0.39001   0.05634   0.81030   0.00000  Uiso   1.00
H358   H     0.64367   0.43935   0.83195   0.00000  Uiso   1.00
H359   H     0.62581   0.35634   0.13896   0.00000  Uiso   1.00
O360   O     0.20956   0.99265   0.76168   0.00000  Uiso   1.00
O361   O     0.54235   0.49515   0.79010   0.00000  Uiso   1.00
O362   O     0.51892   0.38625   0.19290   0.00000  Uiso   1.00
N363   N     0.20135   0.08243   0.79918   0.00000  Uiso   1.00
N364   N     0.43850   0.44051   0.81942   0.00000  Uiso   1.00
N365   N     0.42181   0.36292   0.10645   0.00000  Uiso   1.00
N366   N     0.34078   0.07454   0.81228   0.00000  Uiso   1.00
N367   N     0.57793   0.43262   0.83252   0.00000  Uiso   1.00
N368   N     0.56125   0.35503   0.11955   0.00000  Uiso   1.00
C369   C     0.30161   0.88174   0.97446   0.00000  Uiso   1.00
C370   C     0.31069   0.93957   0.96792   0.00000  Uiso   1.00
C371   C     0.23762   0.96035   0.95538   0.00000  Uiso   1.00
C372   C     0.26039   0.01426   0.95120   0.00000  Uiso   1.00
C373   C     0.26041   0.09921   0.93983   0.00000  Uiso   1.00
C374   C     0.36903   0.89451   0.02944   0.00000  Uiso   1.00
C375   C     0.34501   0.87740   0.06863   0.00000  Uiso   1.00
C376   C     0.41691   0.89338   0.11624   0.00000  Uiso   1.00
C377   C     0.50752   0.90834   0.20038   0.00000  Uiso   1.00
C378   C     0.34188   0.85142   0.93623   0.00000  Uiso   1.00
C379   C     0.29505   0.79807   0.89705   0.00000  Uiso   1.00
C380   C     0.34409   0.77776   0.86618   0.00000  Uiso   1.00
C381   C     0.39255   0.72581   0.80559   0.00000  Uiso   1.00
C382   C     0.47199   0.94052   0.98934   0.00000  Uiso   1.00
C383   C     0.40323   0.97150   0.97600   0.00000  Uiso   1.00
C384   C     0.42612   0.02539   0.97183   0.00000  Uiso   1.00
C385   C     0.35309   0.04625   0.95929   0.00000  Uiso   1.00
C386   C     0.46157   0.92644   0.03753   0.00000  Uiso   1.00
C387   C     0.53352   0.94244   0.08509   0.00000  Uiso   1.00
C388   C     0.50962   0.92536   0.12433   0.00000  Uiso   1.00
C389   C     0.43443   0.88335   0.94431   0.00000  Uiso   1.00
C390   C     0.48355   0.86311   0.91350   0.00000  Uiso   1.00
C391   C     0.43680   0.80974   0.87428   0.00000  Uiso   1.00
H392   H     0.22957   0.85688   0.96818   0.00000  Uiso   1.00
H393   H     0.16601   0.93563   0.94913   0.00000  Uiso   1.00
H394   H     0.27339   0.85269   0.06236   0.00000  Uiso   1.00
H395   H     0.22344   0.77338   0.89081   0.00000  Uiso   1.00
H396   H     0.13636   0.03703   0.93160   0.00000  Uiso   1.00
H397   H     0.36279   0.86213   0.17035   0.00000  Uiso   1.00
H398   H     0.25745   0.69487   0.80858   0.00000  Uiso   1.00
H399   H     0.54405   0.96538   0.99563   0.00000  Uiso   1.00
H400   H     0.49774   0.05009   0.97809   0.00000  Uiso   1.00
H401   H     0.60513   0.96714   0.09132   0.00000  Uiso   1.00
H402   H     0.55517   0.88783   0.91976   0.00000  Uiso   1.00
H403   H     0.40561   0.12993   0.95511   0.00000  Uiso   1.00
H404   H     0.63204   0.95502   0.19385   0.00000  Uiso   1.00
H405   H     0.52669   0.78777   0.83209   0.00000  Uiso   1.00
O406   O     0.23485   0.13726   0.93134   0.00000  Uiso   1.00
O407   O     0.53192   0.90778   0.24456   0.00000  Uiso   1.00
O408   O     0.39371   0.68835   0.76993   0.00000  Uiso   1.00
N409   N     0.20608   0.04727   0.93953   0.00000  Uiso   1.00
N410   N     0.41778   0.88375   0.16274   0.00000  Uiso   1.00
N411   N     0.31930   0.72737   0.82454   0.00000  Uiso   1.00
N412   N     0.35096   0.09725   0.95218   0.00000  Uiso   1.00
N413   N     0.56266   0.93374   0.17539   0.00000  Uiso   1.00
N414   N     0.46418   0.77736   0.83718   0.00000  Uiso   1.00
C415   C     0.77813   0.21407   0.61984   0.00000  Uiso   1.00
C416   C     0.79169   0.19089   0.66498   0.00000  Uiso   1.00
C417   C     0.73285   0.14057   0.66496   0.00000  Uiso   1.00
C418   C     0.75743   0.12685   0.71008   0.00000  Uiso   1.00
C419   C     0.76620   0.08550   0.77355   0.00000  Uiso   1.00
C420   C     0.77617   0.27408   0.64268   0.00000  Uiso   1.00
C421   C     0.70429   0.29369   0.62389   0.00000  Uiso   1.00
C422   C     0.71581   0.35000   0.65024   0.00000  Uiso   1.00
C423   C     0.70052   0.43781   0.67906   0.00000  Uiso   1.00
C424   C     0.86814   0.22186   0.60682   0.00000  Uiso   1.00
C425   C     0.87359   0.19758   0.55788   0.00000  Uiso   1.00
C426   C     0.96254   0.20994   0.55404   0.00000  Uiso   1.00
C427   C     0.09005   0.21667   0.52719   0.00000  Uiso   1.00
C428   C     0.92642   0.27919   0.70002   0.00000  Uiso   1.00
C429   C     0.87223   0.22627   0.70853   0.00000  Uiso   1.00
C430   C     0.89691   0.21261   0.75367   0.00000  Uiso   1.00
C431   C     0.83811   0.16228   0.75371   0.00000  Uiso   1.00
C432   C     0.85671   0.30945   0.68623   0.00000  Uiso   1.00
C433   C     0.86835   0.36574   0.71260   0.00000  Uiso   1.00
C434   C     0.79649   0.38544   0.69387   0.00000  Uiso   1.00
C435   C     0.94869   0.25723   0.65037   0.00000  Uiso   1.00
C436   C     0.03764   0.26963   0.64660   0.00000  Uiso   1.00
C437   C     0.04322   0.24537   0.59767   0.00000  Uiso   1.00
H438   H     0.71543   0.18653   0.58594   0.00000  Uiso   1.00
H439   H     0.67052   0.11321   0.63125   0.00000  Uiso   1.00
H440   H     0.64197   0.26631   0.59019   0.00000  Uiso   1.00
H441   H     0.81124   0.17021   0.52419   0.00000  Uiso   1.00
H442   H     0.65624   0.04753   0.70069   0.00000  Uiso   1.00
H443   H     0.59605   0.37036   0.61411   0.00000  Uiso   1.00
H444   H     0.95299   0.16772   0.47494   0.00000  Uiso   1.00
H445   H     0.98912   0.30673   0.73393   0.00000  Uiso   1.00
H446   H     0.95924   0.23999   0.78736   0.00000  Uiso   1.00
H447   H     0.93069   0.39310   0.74630   0.00000  Uiso   1.00
H448   H     0.09996   0.29700   0.68031   0.00000  Uiso   1.00
H449   H     0.89057   0.15043   0.82740   0.00000  Uiso   1.00
H450   H     0.83038   0.47327   0.74082   0.00000  Uiso   1.00
H451   H     0.18732   0.27062   0.60165   0.00000  Uiso   1.00
O452   O     0.74879   0.05292   0.79653   0.00000  Uiso   1.00
O453   O     0.66984   0.47647   0.68293   0.00000  Uiso   1.00
O454   O     0.13813   0.21060   0.50035   0.00000  Uiso   1.00
N455   N     0.71550   0.08090   0.72318   0.00000  Uiso   1.00
N456   N     0.65922   0.38273   0.64223   0.00000  Uiso   1.00
N457   N     0.99293   0.19328   0.51212   0.00000  Uiso   1.00
N458   N     0.84159   0.13627   0.79136   0.00000  Uiso   1.00
N459   N     0.78531   0.43810   0.71041   0.00000  Uiso   1.00
N460   N     0.11902   0.24865   0.58030   0.00000  Uiso   1.00
C461   C     0.67701   0.71109   0.64481   0.00000  Uiso   1.00
C462   C     0.67589   0.77032   0.64579   0.00000  Uiso   1.00
C463   C     0.60683   0.79251   0.65392   0.00000  Uiso   1.00
C464   C     0.61865   0.84754   0.65337   0.00000  Uiso   1.00
C465   C     0.60501   0.93468   0.65614   0.00000  Uiso   1.00
C466   C     0.68381   0.68209   0.59183   0.00000  Uiso   1.00
C467   C     0.62141   0.63010   0.55460   0.00000  Uiso   1.00
C468   C     0.63991   0.61086   0.50863   0.00000  Uiso   1.00
C469   C     0.63860   0.56100   0.42765   0.00000  Uiso   1.00
C470   C     0.76986   0.72080   0.68623   0.00000  Uiso   1.00
C471   C     0.77983   0.70134   0.72835   0.00000  Uiso   1.00
C472   C     0.87078   0.71468   0.76184   0.00000  Uiso   1.00
C473   C     0.00308   0.72493   0.82742   0.00000  Uiso   1.00
C474   C     0.82080   0.76937   0.62939   0.00000  Uiso   1.00
C475   C     0.75399   0.80198   0.63741   0.00000  Uiso   1.00
C476   C     0.76592   0.85699   0.63685   0.00000  Uiso   1.00
C477   C     0.69690   0.87926   0.64498   0.00000  Uiso   1.00
C478   C     0.76191   0.71375   0.58346   0.00000  Uiso   1.00
C479   C     0.78051   0.69458   0.53753   0.00000  Uiso   1.00
C480   C     0.71815   0.64257   0.50023   0.00000  Uiso   1.00
C481   C     0.84797   0.75246   0.67785   0.00000  Uiso   1.00
C482   C     0.93892   0.76583   0.71129   0.00000  Uiso   1.00
C483   C     0.94902   0.74639   0.75345   0.00000  Uiso   1.00
H484   H     0.61620   0.68644   0.65133   0.00000  Uiso   1.00
H485   H     0.54639   0.76799   0.66039   0.00000  Uiso   1.00
H486   H     0.56098   0.60560   0.56109   0.00000  Uiso   1.00
H487   H     0.71937   0.67684   0.73482   0.00000  Uiso   1.00
H488   H     0.50343   0.87236   0.66673   0.00000  Uiso   1.00
H489   H     0.53421   0.52995   0.45736   0.00000  Uiso   1.00
H490   H     0.86819   0.68016   0.82369   0.00000  Uiso   1.00
H491   H     0.88161   0.79402   0.62286   0.00000  Uiso   1.00
H492   H     0.82637   0.88148   0.63037   0.00000  Uiso   1.00
H493   H     0.84096   0.71909   0.53107   0.00000  Uiso   1.00
H494   H     0.99935   0.79033   0.70479   0.00000  Uiso   1.00
H495   H     0.73067   0.96447   0.64236   0.00000  Uiso   1.00
H496   H     0.76145   0.62205   0.43298   0.00000  Uiso   1.00
H497   H     0.09544   0.77227   0.79932   0.00000  Uiso   1.00
O498   O     0.57590   0.97400   0.65998   0.00000  Uiso   1.00
O499   O     0.61629   0.52476   0.38529   0.00000  Uiso   1.00
O500   O     0.05448   0.72184   0.86591   0.00000  Uiso   1.00
N501   N     0.56450   0.88204   0.65997   0.00000  Uiso   1.00
N502   N     0.59327   0.56191   0.46422   0.00000  Uiso   1.00
N503   N     0.90552   0.70233   0.80670   0.00000  Uiso   1.00
N504   N     0.68677   0.93161   0.64686   0.00000  Uiso   1.00
N505   N     0.71554   0.61147   0.45110   0.00000  Uiso   1.00
N506   N     0.02780   0.75189   0.79359   0.00000  Uiso   1.00
C507   C     0.79756   0.12212   0.06389   0.00000  Uiso   1.00
C508   C     0.77240   0.06908   0.01610   0.00000  Uiso   1.00
C509   C     0.69723   0.05089   0.96950   0.00000  Uiso   1.00
C510   C     0.68616   0.00128   0.93048   0.00000  Uiso   1.00
C511   C     0.63763   0.92351   0.85517   0.00000  Uiso   1.00
C512   C     0.79956   0.10122   0.11012   0.00000  Uiso   1.00
C513   C     0.74724   0.11006   0.14257   0.00000  Uiso   1.00
C514   C     0.75904   0.08751   0.18270   0.00000  Uiso   1.00
C515   C     0.75274   0.05967   0.25338   0.00000  Uiso   1.00
C516   C     0.89885   0.15785   0.07474   0.00000  Uiso   1.00
C517   C     0.93002   0.21431   0.07746   0.00000  Uiso   1.00
C518   C     0.02543   0.23944   0.08781   0.00000  Uiso   1.00
C519   C     0.17329   0.29953   0.10356   0.00000  Uiso   1.00
C520   C     0.91156   0.06635   0.07745   0.00000  Uiso   1.00
C521   C     0.83432   0.03879   0.02347   0.00000  Uiso   1.00
C522   C     0.82336   0.98919   0.98451   0.00000  Uiso   1.00
C523   C     0.74819   0.97094   0.93786   0.00000  Uiso   1.00
C524   C     0.86148   0.07093   0.11749   0.00000  Uiso   1.00
C525   C     0.87337   0.04836   0.15758   0.00000  Uiso   1.00
C526   C     0.82108   0.05716   0.19008   0.00000  Uiso   1.00
C527   C     0.96077   0.12756   0.08211   0.00000  Uiso   1.00
C528   C     0.05615   0.15261   0.09246   0.00000  Uiso   1.00
C529   C     0.08746   0.20910   0.09519   0.00000  Uiso   1.00
H530   H     0.74935   0.14570   0.05815   0.00000  Uiso   1.00
H531   H     0.64932   0.07435   0.96381   0.00000  Uiso   1.00
H532   H     0.69933   0.13351   0.13686   0.00000  Uiso   1.00
H533   H     0.88208   0.23774   0.07175   0.00000  Uiso   1.00
H534   H     0.56570   0.98186   0.86248   0.00000  Uiso   1.00
H535   H     0.67118   0.10662   0.22737   0.00000  Uiso   1.00
H536   H     0.05655   0.32642   0.09008   0.00000  Uiso   1.00
H537   H     0.95977   0.04277   0.08319   0.00000  Uiso   1.00
H538   H     0.87129   0.96576   0.99022   0.00000  Uiso   1.00
H539   H     0.92130   0.02492   0.16327   0.00000  Uiso   1.00
H540   H     0.10405   0.12915   0.09816   0.00000  Uiso   1.00
H541   H     0.74586   0.89372   0.88392   0.00000  Uiso   1.00
H542   H     0.85134   0.01849   0.24881   0.00000  Uiso   1.00
H543   H     0.23670   0.23829   0.11152   0.00000  Uiso   1.00
O544   O     0.59376   0.88898   0.81160   0.00000  Uiso   1.00
O545   O     0.73215   0.05268   0.29032   0.00000  Uiso   1.00
O546   O     0.23774   0.34104   0.11020   0.00000  Uiso   1.00
N547   N     0.62026   0.97169   0.88028   0.00000  Uiso   1.00
N548   N     0.71886   0.08833   0.22142   0.00000  Uiso   1.00
N549   N     0.07915   0.29383   0.09308   0.00000  Uiso   1.00
N550   N     0.71720   0.92427   0.89181   0.00000  Uiso   1.00
N551   N     0.81580   0.04091   0.23296   0.00000  Uiso   1.00
N552   N     0.17609   0.24640   0.10462   0.00000  Uiso   1.00
