data_job_05647
_audit_creation_date              2018-12-19
_audit_creation_method            'Materials Studio'
_symmetry_space_group_name_H-M    'P1'
_symmetry_Int_Tables_number       1
_symmetry_cell_setting            triclinic
loop_
_symmetry_equiv_pos_as_xyz
  x,y,z
_cell_length_a                    17.3154
_cell_length_b                    17.3154
_cell_length_c                    15.3177
_cell_angle_alpha                 90.0000
_cell_angle_beta                  90.0000
_cell_angle_gamma                 120.0000
loop_
_atom_site_label
_atom_site_type_symbol
_atom_site_fract_x
_atom_site_fract_y
_atom_site_fract_z
_atom_site_U_iso_or_equiv
_atom_site_adp_type
_atom_site_occupancy
C1     C     0.83306   0.59176   0.24412   0.00000  Uiso   1.00
C2     C     0.81701   0.66583   0.27653   0.00000  Uiso   1.00
C3     C     0.87471   0.73732   0.32844   0.00000  Uiso   1.00
C4     C     0.84784   0.79795   0.35111   0.00000  Uiso   1.00
C5     C     0.83532   0.91455   0.40577   0.00000  Uiso   1.00
C6     C     0.75346   0.50458   0.27526   0.00000  Uiso   1.00
C7     C     0.75774   0.44047   0.32610   0.00000  Uiso   1.00
C8     C     0.67738   0.36535   0.34769   0.00000  Uiso   1.00
C9     C     0.56620   0.23157   0.40033   0.00000  Uiso   1.00
C10    C     0.82569   0.59153   0.14491   0.00000  Uiso   1.00
C11    C     0.89069   0.60052   0.08614   0.00000  Uiso   1.00
C12    C     0.87113   0.59859   0.99798   0.00000  Uiso   1.00
C13    C     0.87210   0.59983   0.84823   0.00000  Uiso   1.00
C14    C     0.68274   0.57232   0.19207   0.00000  Uiso   1.00
C15    C     0.73536   0.65527   0.24826   0.00000  Uiso   1.00
C16    C     0.70840   0.71581   0.27085   0.00000  Uiso   1.00
C17    C     0.76605   0.78737   0.32279   0.00000  Uiso   1.00
C18    C     0.67182   0.49402   0.24699   0.00000  Uiso   1.00
C19    C     0.59143   0.41897   0.26851   0.00000  Uiso   1.00
C20    C     0.59558   0.35477   0.31937   0.00000  Uiso   1.00
C21    C     0.74405   0.58098   0.11663   0.00000  Uiso   1.00
C22    C     0.72438   0.57902   0.02855   0.00000  Uiso   1.00
C23    C     0.78934   0.58801   0.96966   0.00000  Uiso   1.00
H24    H     0.89662   0.59997   0.26613   0.00000  Uiso   1.00
H25    H     0.93789   0.74546   0.35031   0.00000  Uiso   1.00
H26    H     0.82093   0.44866   0.34796   0.00000  Uiso   1.00
H27    H     0.95386   0.60869   0.10804   0.00000  Uiso   1.00
H28    H     0.94761   0.90208   0.43120   0.00000  Uiso   1.00
H29    H     0.70101   0.27625   0.42622   0.00000  Uiso   1.00
H30    H     0.98132   0.61371   0.92030   0.00000  Uiso   1.00
H31    H     0.61918   0.56410   0.17006   0.00000  Uiso   1.00
H32    H     0.64522   0.70762   0.24897   0.00000  Uiso   1.00
H33    H     0.52826   0.41082   0.24662   0.00000  Uiso   1.00
H34    H     0.66119   0.57085   0.00670   0.00000  Uiso   1.00
H35    H     0.71007   0.87137   0.34895   0.00000  Uiso   1.00
H36    H     0.46347   0.24553   0.34396   0.00000  Uiso   1.00
H37    H     0.74378   0.58300   0.83805   0.00000  Uiso   1.00
O38    O     0.85096   0.98178   0.44374   0.00000  Uiso   1.00
O39    O     0.52744   0.16069   0.43719   0.00000  Uiso   1.00
O40    O     0.89520   0.60344   0.77344   0.00000  Uiso   1.00
N41    N     0.88814   0.87517   0.40100   0.00000  Uiso   1.00
N42    N     0.65758   0.29006   0.39635   0.00000  Uiso   1.00
N43    N     0.91964   0.60553   0.92336   0.00000  Uiso   1.00
N44    N     0.76032   0.85865   0.35674   0.00000  Uiso   1.00
N45    N     0.52976   0.27353   0.35209   0.00000  Uiso   1.00
N46    N     0.79182   0.58900   0.87910   0.00000  Uiso   1.00
C47    C     0.40824   0.24131   0.91078   0.00000  Uiso   1.00
C48    C     0.33417   0.15118   0.94319   0.00000  Uiso   1.00
C49    C     0.26268   0.13740   0.99511   0.00000  Uiso   1.00
C50    C     0.20205   0.04990   0.01778   0.00000  Uiso   1.00
C51    C     0.08545   0.92077   0.07244   0.00000  Uiso   1.00
C52    C     0.49542   0.24889   0.94193   0.00000  Uiso   1.00
C53    C     0.55953   0.31727   0.99276   0.00000  Uiso   1.00
C54    C     0.63465   0.31203   0.01436   0.00000  Uiso   1.00
C55    C     0.76843   0.33464   0.06700   0.00000  Uiso   1.00
C56    C     0.40847   0.23416   0.81157   0.00000  Uiso   1.00
C57    C     0.39948   0.29017   0.75280   0.00000  Uiso   1.00
C58    C     0.40141   0.27254   0.66465   0.00000  Uiso   1.00
C59    C     0.40017   0.27227   0.51490   0.00000  Uiso   1.00
C60    C     0.42768   0.11043   0.85874   0.00000  Uiso   1.00
C61    C     0.34473   0.08009   0.91492   0.00000  Uiso   1.00
C62    C     0.28419   0.99259   0.93752   0.00000  Uiso   1.00
C63    C     0.21263   0.97868   0.98946   0.00000  Uiso   1.00
C64    C     0.50598   0.17780   0.91366   0.00000  Uiso   1.00
C65    C     0.58103   0.17246   0.93518   0.00000  Uiso   1.00
C66    C     0.64523   0.24081   0.98604   0.00000  Uiso   1.00
C67    C     0.41902   0.16307   0.78330   0.00000  Uiso   1.00
C68    C     0.42098   0.14536   0.69522   0.00000  Uiso   1.00
C69    C     0.41199   0.20132   0.63633   0.00000  Uiso   1.00
H70    H     0.40003   0.29665   0.93280   0.00000  Uiso   1.00
H71    H     0.25454   0.19243   0.01698   0.00000  Uiso   1.00
H72    H     0.55134   0.37228   0.01463   0.00000  Uiso   1.00
H73    H     0.39131   0.34517   0.77471   0.00000  Uiso   1.00
H74    H     0.09792   0.04553   0.09787   0.00000  Uiso   1.00
H75    H     0.72375   0.42476   0.09288   0.00000  Uiso   1.00
H76    H     0.38629   0.36762   0.58696   0.00000  Uiso   1.00
H77    H     0.43590   0.05508   0.83673   0.00000  Uiso   1.00
H78    H     0.29238   0.93759   0.91563   0.00000  Uiso   1.00
H79    H     0.58918   0.11744   0.91329   0.00000  Uiso   1.00
H80    H     0.42915   0.09034   0.67337   0.00000  Uiso   1.00
H81    H     0.12863   0.83869   0.01562   0.00000  Uiso   1.00
H82    H     0.75447   0.21793   0.01063   0.00000  Uiso   1.00
H83    H     0.41700   0.16078   0.50471   0.00000  Uiso   1.00
O84    O     0.01822   0.86919   0.11041   0.00000  Uiso   1.00
O85    O     0.83931   0.36674   0.10386   0.00000  Uiso   1.00
O86    O     0.39656   0.29176   0.44011   0.00000  Uiso   1.00
N87    N     0.12483   0.01297   0.06766   0.00000  Uiso   1.00
N88    N     0.70994   0.36753   0.06302   0.00000  Uiso   1.00
N89    N     0.39447   0.31411   0.59003   0.00000  Uiso   1.00
N90    N     0.14135   0.90168   0.02341   0.00000  Uiso   1.00
N91    N     0.72647   0.25623   0.01876   0.00000  Uiso   1.00
N92    N     0.41100   0.20282   0.54577   0.00000  Uiso   1.00
C93    C     0.75869   0.16694   0.57745   0.00000  Uiso   1.00
C94    C     0.84882   0.18299   0.60986   0.00000  Uiso   1.00
C95    C     0.86260   0.12529   0.66177   0.00000  Uiso   1.00
C96    C     0.95010   0.15216   0.68445   0.00000  Uiso   1.00
C97    C     0.07923   0.16468   0.73911   0.00000  Uiso   1.00
C98    C     0.75111   0.24654   0.60859   0.00000  Uiso   1.00
C99    C     0.68273   0.24226   0.65943   0.00000  Uiso   1.00
C100   C     0.68797   0.32262   0.68103   0.00000  Uiso   1.00
C101   C     0.66536   0.43380   0.73367   0.00000  Uiso   1.00
C102   C     0.76584   0.17431   0.47824   0.00000  Uiso   1.00
C103   C     0.70983   0.10931   0.41947   0.00000  Uiso   1.00
C104   C     0.72746   0.12887   0.33132   0.00000  Uiso   1.00
C105   C     0.72773   0.12790   0.18156   0.00000  Uiso   1.00
C106   C     0.88957   0.31726   0.52540   0.00000  Uiso   1.00
C107   C     0.91991   0.26464   0.58159   0.00000  Uiso   1.00
C108   C     0.00741   0.29160   0.60419   0.00000  Uiso   1.00
C109   C     0.02132   0.23395   0.65612   0.00000  Uiso   1.00
C110   C     0.82220   0.32818   0.58033   0.00000  Uiso   1.00
C111   C     0.82754   0.40857   0.60185   0.00000  Uiso   1.00
C112   C     0.75919   0.40442   0.65271   0.00000  Uiso   1.00
C113   C     0.83693   0.25595   0.44997   0.00000  Uiso   1.00
C114   C     0.85464   0.27562   0.36189   0.00000  Uiso   1.00
C115   C     0.79868   0.21066   0.30300   0.00000  Uiso   1.00
H116   H     0.70335   0.10338   0.59946   0.00000  Uiso   1.00
H117   H     0.80757   0.06211   0.68364   0.00000  Uiso   1.00
H118   H     0.62772   0.17907   0.68129   0.00000  Uiso   1.00
H119   H     0.65483   0.04614   0.44137   0.00000  Uiso   1.00
H120   H     0.95447   0.05239   0.76453   0.00000  Uiso   1.00
H121   H     0.57524   0.29899   0.75955   0.00000  Uiso   1.00
H122   H     0.63238   0.01868   0.25363   0.00000  Uiso   1.00
H123   H     0.94492   0.38082   0.50339   0.00000  Uiso   1.00
H124   H     0.06241   0.35478   0.58230   0.00000  Uiso   1.00
H125   H     0.88256   0.47174   0.57995   0.00000  Uiso   1.00
H126   H     0.90966   0.33881   0.34003   0.00000  Uiso   1.00
H127   H     0.16131   0.28993   0.68228   0.00000  Uiso   1.00
H128   H     0.78207   0.53653   0.67730   0.00000  Uiso   1.00
H129   H     0.83922   0.25622   0.17138   0.00000  Uiso   1.00
O130   O     0.13081   0.14904   0.77707   0.00000  Uiso   1.00
O131   O     0.63326   0.47256   0.77052   0.00000  Uiso   1.00
O132   O     0.70824   0.10480   0.10677   0.00000  Uiso   1.00
N133   N     0.98703   0.11186   0.73433   0.00000  Uiso   1.00
N134   N     0.63247   0.34242   0.72969   0.00000  Uiso   1.00
N135   N     0.68589   0.08036   0.25669   0.00000  Uiso   1.00
N136   N     0.09832   0.23968   0.69007   0.00000  Uiso   1.00
N137   N     0.74377   0.47024   0.68543   0.00000  Uiso   1.00
N138   N     0.79718   0.20818   0.21243   0.00000  Uiso   1.00
C139   C     0.59176   0.83306   0.75588   0.00000  Uiso   1.00
C140   C     0.66583   0.81701   0.72347   0.00000  Uiso   1.00
C141   C     0.73732   0.87471   0.67156   0.00000  Uiso   1.00
C142   C     0.79795   0.84784   0.64889   0.00000  Uiso   1.00
C143   C     0.91455   0.83532   0.59423   0.00000  Uiso   1.00
C144   C     0.50458   0.75346   0.72474   0.00000  Uiso   1.00
C145   C     0.44047   0.75774   0.67390   0.00000  Uiso   1.00
C146   C     0.36535   0.67738   0.65231   0.00000  Uiso   1.00
C147   C     0.23157   0.56620   0.59967   0.00000  Uiso   1.00
C148   C     0.59153   0.82569   0.85509   0.00000  Uiso   1.00
C149   C     0.60052   0.89069   0.91386   0.00000  Uiso   1.00
C150   C     0.59859   0.87113   0.00202   0.00000  Uiso   1.00
C151   C     0.59983   0.87210   0.15177   0.00000  Uiso   1.00
C152   C     0.57232   0.68274   0.80793   0.00000  Uiso   1.00
C153   C     0.65527   0.73536   0.75174   0.00000  Uiso   1.00
C154   C     0.71581   0.70840   0.72915   0.00000  Uiso   1.00
C155   C     0.78737   0.76605   0.67721   0.00000  Uiso   1.00
C156   C     0.49402   0.67182   0.75301   0.00000  Uiso   1.00
C157   C     0.41897   0.59143   0.73149   0.00000  Uiso   1.00
C158   C     0.35477   0.59558   0.68063   0.00000  Uiso   1.00
C159   C     0.58098   0.74405   0.88337   0.00000  Uiso   1.00
C160   C     0.57902   0.72438   0.97145   0.00000  Uiso   1.00
C161   C     0.58801   0.78934   0.03034   0.00000  Uiso   1.00
H162   H     0.59997   0.89662   0.73387   0.00000  Uiso   1.00
H163   H     0.74546   0.93789   0.64969   0.00000  Uiso   1.00
H164   H     0.44866   0.82093   0.65204   0.00000  Uiso   1.00
H165   H     0.60869   0.95386   0.89196   0.00000  Uiso   1.00
H166   H     0.90208   0.94761   0.56880   0.00000  Uiso   1.00
H167   H     0.27625   0.70101   0.57378   0.00000  Uiso   1.00
H168   H     0.61371   0.98132   0.07970   0.00000  Uiso   1.00
H169   H     0.56410   0.61918   0.82994   0.00000  Uiso   1.00
H170   H     0.70762   0.64522   0.75103   0.00000  Uiso   1.00
H171   H     0.41082   0.52826   0.75338   0.00000  Uiso   1.00
H172   H     0.57085   0.66119   0.99330   0.00000  Uiso   1.00
H173   H     0.87137   0.71007   0.65105   0.00000  Uiso   1.00
H174   H     0.24553   0.46347   0.65604   0.00000  Uiso   1.00
H175   H     0.58300   0.74378   0.16195   0.00000  Uiso   1.00
O176   O     0.98178   0.85096   0.55626   0.00000  Uiso   1.00
O177   O     0.16069   0.52744   0.56281   0.00000  Uiso   1.00
O178   O     0.60344   0.89520   0.22656   0.00000  Uiso   1.00
N179   N     0.87517   0.88814   0.59900   0.00000  Uiso   1.00
N180   N     0.29006   0.65758   0.60365   0.00000  Uiso   1.00
N181   N     0.60553   0.91964   0.07664   0.00000  Uiso   1.00
N182   N     0.85865   0.76032   0.64326   0.00000  Uiso   1.00
N183   N     0.27353   0.52976   0.64791   0.00000  Uiso   1.00
N184   N     0.58900   0.79182   0.12090   0.00000  Uiso   1.00
C185   C     0.24131   0.40824   0.08922   0.00000  Uiso   1.00
C186   C     0.15118   0.33417   0.05681   0.00000  Uiso   1.00
C187   C     0.13740   0.26268   0.00489   0.00000  Uiso   1.00
C188   C     0.04990   0.20205   0.98222   0.00000  Uiso   1.00
C189   C     0.92077   0.08545   0.92756   0.00000  Uiso   1.00
C190   C     0.24889   0.49542   0.05807   0.00000  Uiso   1.00
C191   C     0.31727   0.55953   0.00724   0.00000  Uiso   1.00
C192   C     0.31203   0.63465   0.98564   0.00000  Uiso   1.00
C193   C     0.33464   0.76843   0.93300   0.00000  Uiso   1.00
C194   C     0.23416   0.40847   0.18843   0.00000  Uiso   1.00
C195   C     0.29017   0.39948   0.24720   0.00000  Uiso   1.00
C196   C     0.27254   0.40141   0.33535   0.00000  Uiso   1.00
C197   C     0.27227   0.40017   0.48510   0.00000  Uiso   1.00
C198   C     0.11043   0.42768   0.14126   0.00000  Uiso   1.00
C199   C     0.08009   0.34473   0.08508   0.00000  Uiso   1.00
C200   C     0.99259   0.28419   0.06248   0.00000  Uiso   1.00
C201   C     0.97868   0.21263   0.01054   0.00000  Uiso   1.00
C202   C     0.17780   0.50598   0.08634   0.00000  Uiso   1.00
C203   C     0.17246   0.58103   0.06482   0.00000  Uiso   1.00
C204   C     0.24081   0.64523   0.01396   0.00000  Uiso   1.00
C205   C     0.16307   0.41902   0.21670   0.00000  Uiso   1.00
C206   C     0.14536   0.42098   0.30478   0.00000  Uiso   1.00
C207   C     0.20132   0.41199   0.36367   0.00000  Uiso   1.00
H208   H     0.29665   0.40003   0.06720   0.00000  Uiso   1.00
H209   H     0.19243   0.25454   0.98302   0.00000  Uiso   1.00
H210   H     0.37228   0.55134   0.98537   0.00000  Uiso   1.00
H211   H     0.34517   0.39131   0.22529   0.00000  Uiso   1.00
H212   H     0.04553   0.09792   0.90213   0.00000  Uiso   1.00
H213   H     0.42476   0.72375   0.90712   0.00000  Uiso   1.00
H214   H     0.36762   0.38629   0.41304   0.00000  Uiso   1.00
H215   H     0.05508   0.43590   0.16327   0.00000  Uiso   1.00
H216   H     0.93759   0.29238   0.08437   0.00000  Uiso   1.00
H217   H     0.11744   0.58918   0.08671   0.00000  Uiso   1.00
H218   H     0.09034   0.42915   0.32663   0.00000  Uiso   1.00
H219   H     0.83869   0.12863   0.98438   0.00000  Uiso   1.00
H220   H     0.21793   0.75447   0.98937   0.00000  Uiso   1.00
H221   H     0.16078   0.41700   0.49529   0.00000  Uiso   1.00
O222   O     0.86919   0.01822   0.88959   0.00000  Uiso   1.00
O223   O     0.36674   0.83931   0.89614   0.00000  Uiso   1.00
O224   O     0.29176   0.39656   0.55989   0.00000  Uiso   1.00
N225   N     0.01297   0.12483   0.93234   0.00000  Uiso   1.00
N226   N     0.36753   0.70994   0.93698   0.00000  Uiso   1.00
N227   N     0.31411   0.39447   0.40997   0.00000  Uiso   1.00
N228   N     0.90168   0.14135   0.97659   0.00000  Uiso   1.00
N229   N     0.25623   0.72647   0.98124   0.00000  Uiso   1.00
N230   N     0.20282   0.41100   0.45423   0.00000  Uiso   1.00
C231   C     0.16694   0.75869   0.42255   0.00000  Uiso   1.00
C232   C     0.18299   0.84882   0.39014   0.00000  Uiso   1.00
C233   C     0.12529   0.86260   0.33823   0.00000  Uiso   1.00
C234   C     0.15216   0.95010   0.31555   0.00000  Uiso   1.00
C235   C     0.16468   0.07923   0.26089   0.00000  Uiso   1.00
C236   C     0.24654   0.75111   0.39141   0.00000  Uiso   1.00
C237   C     0.24226   0.68273   0.34057   0.00000  Uiso   1.00
C238   C     0.32262   0.68797   0.31897   0.00000  Uiso   1.00
C239   C     0.43380   0.66536   0.26633   0.00000  Uiso   1.00
C240   C     0.17431   0.76584   0.52176   0.00000  Uiso   1.00
C241   C     0.10931   0.70983   0.58053   0.00000  Uiso   1.00
C242   C     0.12887   0.72746   0.66868   0.00000  Uiso   1.00
C243   C     0.12790   0.72773   0.81844   0.00000  Uiso   1.00
C244   C     0.31726   0.88957   0.47460   0.00000  Uiso   1.00
C245   C     0.26464   0.91991   0.41841   0.00000  Uiso   1.00
C246   C     0.29160   0.00741   0.39581   0.00000  Uiso   1.00
C247   C     0.23395   0.02132   0.34388   0.00000  Uiso   1.00
C248   C     0.32818   0.82220   0.41967   0.00000  Uiso   1.00
C249   C     0.40857   0.82754   0.39815   0.00000  Uiso   1.00
C250   C     0.40442   0.75919   0.34729   0.00000  Uiso   1.00
C251   C     0.25595   0.83693   0.55003   0.00000  Uiso   1.00
C252   C     0.27562   0.85464   0.63811   0.00000  Uiso   1.00
C253   C     0.21066   0.79868   0.69700   0.00000  Uiso   1.00
H254   H     0.10338   0.70335   0.40054   0.00000  Uiso   1.00
H255   H     0.06211   0.80757   0.31636   0.00000  Uiso   1.00
H256   H     0.17907   0.62772   0.31871   0.00000  Uiso   1.00
H257   H     0.04614   0.65483   0.55863   0.00000  Uiso   1.00
H258   H     0.05239   0.95447   0.23547   0.00000  Uiso   1.00
H259   H     0.29899   0.57524   0.24045   0.00000  Uiso   1.00
H260   H     0.01868   0.63238   0.74637   0.00000  Uiso   1.00
H261   H     0.38082   0.94492   0.49661   0.00000  Uiso   1.00
H262   H     0.35478   0.06241   0.41770   0.00000  Uiso   1.00
H263   H     0.47174   0.88256   0.42005   0.00000  Uiso   1.00
H264   H     0.33881   0.90966   0.65997   0.00000  Uiso   1.00
H265   H     0.28993   0.16131   0.31772   0.00000  Uiso   1.00
H266   H     0.53653   0.78207   0.32270   0.00000  Uiso   1.00
H267   H     0.25622   0.83922   0.82862   0.00000  Uiso   1.00
O268   O     0.14904   0.13081   0.22293   0.00000  Uiso   1.00
O269   O     0.47256   0.63326   0.22948   0.00000  Uiso   1.00
O270   O     0.10480   0.70824   0.89323   0.00000  Uiso   1.00
N271   N     0.11186   0.98703   0.26567   0.00000  Uiso   1.00
N272   N     0.34242   0.63247   0.27031   0.00000  Uiso   1.00
N273   N     0.08036   0.68589   0.74331   0.00000  Uiso   1.00
N274   N     0.23968   0.09832   0.30993   0.00000  Uiso   1.00
N275   N     0.47024   0.74377   0.31457   0.00000  Uiso   1.00
N276   N     0.20818   0.79718   0.78757   0.00000  Uiso   1.00
