data_job_04142
_audit_creation_date              2018-12-19
_audit_creation_method            'Materials Studio'
_symmetry_space_group_name_H-M    'P1'
_symmetry_Int_Tables_number       1
_symmetry_cell_setting            triclinic
loop_
_symmetry_equiv_pos_as_xyz
  x,y,z
_cell_length_a                    10.2526
_cell_length_b                    12.7836
_cell_length_c                    23.2744
_cell_angle_alpha                 90.0000
_cell_angle_beta                  90.0000
_cell_angle_gamma                 90.0000
loop_
_atom_site_label
_atom_site_type_symbol
_atom_site_fract_x
_atom_site_fract_y
_atom_site_fract_z
_atom_site_U_iso_or_equiv
_atom_site_adp_type
_atom_site_occupancy
C1     C     0.82350   0.04115   0.83179   0.00000  Uiso   1.00
C2     C     0.77532   0.98068   0.88413   0.00000  Uiso   1.00
C3     C     0.69904   0.02096   0.92814   0.00000  Uiso   1.00
C4     C     0.66520   0.95297   0.97220   0.00000  Uiso   1.00
C5     C     0.58420   0.87498   0.05348   0.00000  Uiso   1.00
C6     C     0.97161   0.03025   0.83180   0.00000  Uiso   1.00
C7     C     0.06038   0.11222   0.83180   0.00000  Uiso   1.00
C8     C     0.19179   0.08596   0.83181   0.00000  Uiso   1.00
C9     C     0.41554   0.08493   0.83180   0.00000  Uiso   1.00
C10    C     0.77534   0.98070   0.77945   0.00000  Uiso   1.00
C11    C     0.69911   0.02100   0.73543   0.00000  Uiso   1.00
C12    C     0.66530   0.95302   0.69135   0.00000  Uiso   1.00
C13    C     0.58431   0.87505   0.61006   0.00000  Uiso   1.00
C14    C     0.89903   0.84878   0.83179   0.00000  Uiso   1.00
C15    C     0.81635   0.87619   0.88412   0.00000  Uiso   1.00
C16    C     0.78261   0.80812   0.92813   0.00000  Uiso   1.00
C17    C     0.70630   0.84829   0.97220   0.00000  Uiso   1.00
C18    C     0.01264   0.92577   0.83180   0.00000  Uiso   1.00
C19    C     0.14395   0.89938   0.83180   0.00000  Uiso   1.00
C20    C     0.23289   0.98128   0.83180   0.00000  Uiso   1.00
C21    C     0.81637   0.87620   0.77945   0.00000  Uiso   1.00
C22    C     0.78268   0.80815   0.73542   0.00000  Uiso   1.00
C23    C     0.70640   0.84834   0.69135   0.00000  Uiso   1.00
H24    H     0.79157   0.12251   0.83180   0.00000  Uiso   1.00
H25    H     0.66732   0.10183   0.92813   0.00000  Uiso   1.00
H26    H     0.02860   0.19307   0.83180   0.00000  Uiso   1.00
H27    H     0.66738   0.10186   0.73544   0.00000  Uiso   1.00
H28    H     0.54771   0.03284   0.03494   0.00000  Uiso   1.00
H29    H     0.30948   0.22523   0.83181   0.00000  Uiso   1.00
H30    H     0.54779   0.03289   0.62862   0.00000  Uiso   1.00
H31    H     0.93098   0.76742   0.83178   0.00000  Uiso   1.00
H32    H     0.81437   0.72726   0.92812   0.00000  Uiso   1.00
H33    H     0.17566   0.81851   0.83179   0.00000  Uiso   1.00
H34    H     0.81444   0.72730   0.73543   0.00000  Uiso   1.00
H35    H     0.66707   0.72883   0.03494   0.00000  Uiso   1.00
H36    H     0.42885   0.92122   0.83180   0.00000  Uiso   1.00
H37    H     0.66715   0.72888   0.62861   0.00000  Uiso   1.00
O38    O     0.52820   0.86083   0.09832   0.00000  Uiso   1.00
O39    O     0.52762   0.11324   0.83181   0.00000  Uiso   1.00
O40    O     0.52829   0.86090   0.56523   0.00000  Uiso   1.00
N41    N     0.59178   0.96679   0.02171   0.00000  Uiso   1.00
N42    N     0.30399   0.14667   0.83181   0.00000  Uiso   1.00
N43    N     0.59190   0.96686   0.64183   0.00000  Uiso   1.00
N44    N     0.65600   0.80321   0.02171   0.00000  Uiso   1.00
N45    N     0.36822   0.98308   0.83180   0.00000  Uiso   1.00
N46    N     0.65612   0.80327   0.64183   0.00000  Uiso   1.00
C47    C     0.17650   0.95885   0.33179   0.00000  Uiso   1.00
C48    C     0.22468   0.01932   0.38413   0.00000  Uiso   1.00
C49    C     0.30096   0.97904   0.42814   0.00000  Uiso   1.00
C50    C     0.33480   0.04703   0.47220   0.00000  Uiso   1.00
C51    C     0.41580   0.12502   0.55348   0.00000  Uiso   1.00
C52    C     0.02839   0.96975   0.33180   0.00000  Uiso   1.00
C53    C     0.93962   0.88778   0.33180   0.00000  Uiso   1.00
C54    C     0.80821   0.91404   0.33181   0.00000  Uiso   1.00
C55    C     0.58446   0.91507   0.33180   0.00000  Uiso   1.00
C56    C     0.22466   0.01930   0.27945   0.00000  Uiso   1.00
C57    C     0.30089   0.97900   0.23543   0.00000  Uiso   1.00
C58    C     0.33470   0.04698   0.19135   0.00000  Uiso   1.00
C59    C     0.41569   0.12495   0.11006   0.00000  Uiso   1.00
C60    C     0.10097   0.15122   0.33179   0.00000  Uiso   1.00
C61    C     0.18365   0.12381   0.38412   0.00000  Uiso   1.00
C62    C     0.21739   0.19188   0.42813   0.00000  Uiso   1.00
C63    C     0.29370   0.15171   0.47220   0.00000  Uiso   1.00
C64    C     0.98736   0.07423   0.33180   0.00000  Uiso   1.00
C65    C     0.85605   0.10062   0.33180   0.00000  Uiso   1.00
C66    C     0.76711   0.01872   0.33180   0.00000  Uiso   1.00
C67    C     0.18363   0.12380   0.27945   0.00000  Uiso   1.00
C68    C     0.21732   0.19185   0.23542   0.00000  Uiso   1.00
C69    C     0.29360   0.15166   0.19135   0.00000  Uiso   1.00
H70    H     0.20843   0.87749   0.33180   0.00000  Uiso   1.00
H71    H     0.33268   0.89817   0.42813   0.00000  Uiso   1.00
H72    H     0.97140   0.80693   0.33180   0.00000  Uiso   1.00
H73    H     0.33262   0.89814   0.23544   0.00000  Uiso   1.00
H74    H     0.45229   0.96716   0.53494   0.00000  Uiso   1.00
H75    H     0.69052   0.77477   0.33181   0.00000  Uiso   1.00
H76    H     0.45221   0.96711   0.12862   0.00000  Uiso   1.00
H77    H     0.06902   0.23258   0.33178   0.00000  Uiso   1.00
H78    H     0.18563   0.27274   0.42812   0.00000  Uiso   1.00
H79    H     0.82434   0.18149   0.33179   0.00000  Uiso   1.00
H80    H     0.18556   0.27270   0.23543   0.00000  Uiso   1.00
H81    H     0.33293   0.27117   0.53494   0.00000  Uiso   1.00
H82    H     0.57115   0.07878   0.33180   0.00000  Uiso   1.00
H83    H     0.33285   0.27112   0.12861   0.00000  Uiso   1.00
O84    O     0.47180   0.13917   0.59832   0.00000  Uiso   1.00
O85    O     0.47238   0.88676   0.33181   0.00000  Uiso   1.00
O86    O     0.47171   0.13910   0.06523   0.00000  Uiso   1.00
N87    N     0.40822   0.03321   0.52171   0.00000  Uiso   1.00
N88    N     0.69601   0.85333   0.33181   0.00000  Uiso   1.00
N89    N     0.40810   0.03314   0.14183   0.00000  Uiso   1.00
N90    N     0.34400   0.19679   0.52171   0.00000  Uiso   1.00
N91    N     0.63178   0.01692   0.33180   0.00000  Uiso   1.00
N92    N     0.34388   0.19673   0.14183   0.00000  Uiso   1.00
C93    C     0.32350   0.45885   0.83179   0.00000  Uiso   1.00
C94    C     0.27532   0.51932   0.88413   0.00000  Uiso   1.00
C95    C     0.19904   0.47904   0.92814   0.00000  Uiso   1.00
C96    C     0.16520   0.54703   0.97220   0.00000  Uiso   1.00
C97    C     0.08420   0.62502   0.05348   0.00000  Uiso   1.00
C98    C     0.47161   0.46975   0.83180   0.00000  Uiso   1.00
C99    C     0.56038   0.38778   0.83180   0.00000  Uiso   1.00
C100   C     0.69179   0.41404   0.83181   0.00000  Uiso   1.00
C101   C     0.91554   0.41507   0.83180   0.00000  Uiso   1.00
C102   C     0.27534   0.51930   0.77945   0.00000  Uiso   1.00
C103   C     0.19911   0.47900   0.73543   0.00000  Uiso   1.00
C104   C     0.16530   0.54698   0.69135   0.00000  Uiso   1.00
C105   C     0.08431   0.62495   0.61006   0.00000  Uiso   1.00
C106   C     0.39903   0.65122   0.83179   0.00000  Uiso   1.00
C107   C     0.31635   0.62381   0.88412   0.00000  Uiso   1.00
C108   C     0.28261   0.69188   0.92813   0.00000  Uiso   1.00
C109   C     0.20630   0.65171   0.97220   0.00000  Uiso   1.00
C110   C     0.51264   0.57423   0.83180   0.00000  Uiso   1.00
C111   C     0.64395   0.60062   0.83180   0.00000  Uiso   1.00
C112   C     0.73289   0.51872   0.83180   0.00000  Uiso   1.00
C113   C     0.31637   0.62380   0.77945   0.00000  Uiso   1.00
C114   C     0.28268   0.69185   0.73542   0.00000  Uiso   1.00
C115   C     0.20640   0.65166   0.69135   0.00000  Uiso   1.00
H116   H     0.29157   0.37749   0.83180   0.00000  Uiso   1.00
H117   H     0.16732   0.39817   0.92813   0.00000  Uiso   1.00
H118   H     0.52860   0.30693   0.83180   0.00000  Uiso   1.00
H119   H     0.16738   0.39814   0.73544   0.00000  Uiso   1.00
H120   H     0.04771   0.46716   0.03494   0.00000  Uiso   1.00
H121   H     0.80948   0.27477   0.83181   0.00000  Uiso   1.00
H122   H     0.04779   0.46711   0.62862   0.00000  Uiso   1.00
H123   H     0.43098   0.73258   0.83178   0.00000  Uiso   1.00
H124   H     0.31437   0.77274   0.92812   0.00000  Uiso   1.00
H125   H     0.67566   0.68149   0.83179   0.00000  Uiso   1.00
H126   H     0.31444   0.77270   0.73543   0.00000  Uiso   1.00
H127   H     0.16707   0.77117   0.03494   0.00000  Uiso   1.00
H128   H     0.92885   0.57878   0.83180   0.00000  Uiso   1.00
H129   H     0.16715   0.77112   0.62861   0.00000  Uiso   1.00
O130   O     0.02820   0.63917   0.09832   0.00000  Uiso   1.00
O131   O     0.02762   0.38676   0.83181   0.00000  Uiso   1.00
O132   O     0.02829   0.63910   0.56523   0.00000  Uiso   1.00
N133   N     0.09178   0.53321   0.02171   0.00000  Uiso   1.00
N134   N     0.80399   0.35333   0.83181   0.00000  Uiso   1.00
N135   N     0.09190   0.53314   0.64183   0.00000  Uiso   1.00
N136   N     0.15600   0.69679   0.02171   0.00000  Uiso   1.00
N137   N     0.86822   0.51692   0.83180   0.00000  Uiso   1.00
N138   N     0.15612   0.69673   0.64183   0.00000  Uiso   1.00
C139   C     0.67650   0.54115   0.33179   0.00000  Uiso   1.00
C140   C     0.72468   0.48068   0.38413   0.00000  Uiso   1.00
C141   C     0.80096   0.52096   0.42814   0.00000  Uiso   1.00
C142   C     0.83480   0.45297   0.47220   0.00000  Uiso   1.00
C143   C     0.91580   0.37498   0.55348   0.00000  Uiso   1.00
C144   C     0.52839   0.53025   0.33180   0.00000  Uiso   1.00
C145   C     0.43962   0.61222   0.33180   0.00000  Uiso   1.00
C146   C     0.30821   0.58596   0.33181   0.00000  Uiso   1.00
C147   C     0.08446   0.58493   0.33180   0.00000  Uiso   1.00
C148   C     0.72466   0.48070   0.27945   0.00000  Uiso   1.00
C149   C     0.80089   0.52100   0.23543   0.00000  Uiso   1.00
C150   C     0.83470   0.45302   0.19135   0.00000  Uiso   1.00
C151   C     0.91569   0.37505   0.11006   0.00000  Uiso   1.00
C152   C     0.60097   0.34878   0.33179   0.00000  Uiso   1.00
C153   C     0.68365   0.37619   0.38412   0.00000  Uiso   1.00
C154   C     0.71739   0.30812   0.42813   0.00000  Uiso   1.00
C155   C     0.79370   0.34829   0.47220   0.00000  Uiso   1.00
C156   C     0.48736   0.42577   0.33180   0.00000  Uiso   1.00
C157   C     0.35605   0.39938   0.33180   0.00000  Uiso   1.00
C158   C     0.26711   0.48128   0.33180   0.00000  Uiso   1.00
C159   C     0.68363   0.37620   0.27945   0.00000  Uiso   1.00
C160   C     0.71732   0.30815   0.23542   0.00000  Uiso   1.00
C161   C     0.79360   0.34834   0.19135   0.00000  Uiso   1.00
H162   H     0.70843   0.62251   0.33180   0.00000  Uiso   1.00
H163   H     0.83268   0.60183   0.42813   0.00000  Uiso   1.00
H164   H     0.47140   0.69307   0.33180   0.00000  Uiso   1.00
H165   H     0.83262   0.60186   0.23544   0.00000  Uiso   1.00
H166   H     0.95229   0.53284   0.53494   0.00000  Uiso   1.00
H167   H     0.19052   0.72523   0.33181   0.00000  Uiso   1.00
H168   H     0.95221   0.53289   0.12862   0.00000  Uiso   1.00
H169   H     0.56902   0.26742   0.33178   0.00000  Uiso   1.00
H170   H     0.68563   0.22726   0.42812   0.00000  Uiso   1.00
H171   H     0.32434   0.31851   0.33179   0.00000  Uiso   1.00
H172   H     0.68556   0.22730   0.23543   0.00000  Uiso   1.00
H173   H     0.83293   0.22883   0.53494   0.00000  Uiso   1.00
H174   H     0.07115   0.42122   0.33180   0.00000  Uiso   1.00
H175   H     0.83285   0.22888   0.12861   0.00000  Uiso   1.00
O176   O     0.97180   0.36083   0.59832   0.00000  Uiso   1.00
O177   O     0.97238   0.61324   0.33181   0.00000  Uiso   1.00
O178   O     0.97171   0.36090   0.06523   0.00000  Uiso   1.00
N179   N     0.90822   0.46679   0.52171   0.00000  Uiso   1.00
N180   N     0.19601   0.64667   0.33181   0.00000  Uiso   1.00
N181   N     0.90810   0.46686   0.14183   0.00000  Uiso   1.00
N182   N     0.84400   0.30321   0.52171   0.00000  Uiso   1.00
N183   N     0.13178   0.48308   0.33180   0.00000  Uiso   1.00
N184   N     0.84388   0.30327   0.14183   0.00000  Uiso   1.00
