data_job_05727
_audit_creation_date              2018-12-19
_audit_creation_method            'Materials Studio'
_symmetry_space_group_name_H-M    'P1'
_symmetry_Int_Tables_number       1
_symmetry_cell_setting            triclinic
loop_
_symmetry_equiv_pos_as_xyz
  x,y,z
_cell_length_a                    16.1635
_cell_length_b                    9.6918
_cell_length_c                    38.3670
_cell_angle_alpha                 90.0000
_cell_angle_beta                  90.0000
_cell_angle_gamma                 90.0000
loop_
_atom_site_label
_atom_site_type_symbol
_atom_site_fract_x
_atom_site_fract_y
_atom_site_fract_z
_atom_site_U_iso_or_equiv
_atom_site_adp_type
_atom_site_occupancy
C1     C     0.83469   0.26390   0.60126   0.00000  Uiso   1.00
C2     C     0.83603   0.17114   0.56917   0.00000  Uiso   1.00
C3     C     0.76944   0.14525   0.54729   0.00000  Uiso   1.00
C4     C     0.78326   0.05736   0.51931   0.00000  Uiso   1.00
C5     C     0.77352   0.92236   0.47037   0.00000  Uiso   1.00
C6     C     0.86343   0.17426   0.63160   0.00000  Uiso   1.00
C7     C     0.81988   0.15103   0.66222   0.00000  Uiso   1.00
C8     C     0.85678   0.06578   0.68680   0.00000  Uiso   1.00
C9     C     0.88961   0.93572   0.73481   0.00000  Uiso   1.00
C10    C     0.90257   0.37088   0.59564   0.00000  Uiso   1.00
C11    C     0.89193   0.51296   0.59603   0.00000  Uiso   1.00
C12    C     0.96178   0.59326   0.59034   0.00000  Uiso   1.00
C13    C     0.05537   0.76847   0.58251   0.00000  Uiso   1.00
C14    C     0.97764   0.15385   0.59048   0.00000  Uiso   1.00
C15    C     0.91368   0.11136   0.56331   0.00000  Uiso   1.00
C16    C     0.92760   0.02349   0.53536   0.00000  Uiso   1.00
C17    C     0.86105   0.99748   0.51344   0.00000  Uiso   1.00
C18    C     0.94107   0.11449   0.62575   0.00000  Uiso   1.00
C19    C     0.97804   0.02927   0.65029   0.00000  Uiso   1.00
C20    C     0.93456   0.00590   0.68094   0.00000  Uiso   1.00
C21    C     0.98021   0.31111   0.58978   0.00000  Uiso   1.00
C22    C     0.05009   0.39120   0.58410   0.00000  Uiso   1.00
C23    C     0.03957   0.53338   0.58448   0.00000  Uiso   1.00
H24    H     0.77424   0.31044   0.60583   0.00000  Uiso   1.00
H25    H     0.70936   0.19152   0.55183   0.00000  Uiso   1.00
H26    H     0.75980   0.19731   0.66675   0.00000  Uiso   1.00
H27    H     0.83184   0.55918   0.60056   0.00000  Uiso   1.00
H28    H     0.67167   0.03328   0.48939   0.00000  Uiso   1.00
H29    H     0.77804   0.04552   0.73170   0.00000  Uiso   1.00
H30    H     0.92994   0.80861   0.59214   0.00000  Uiso   1.00
H31    H     0.03809   0.10731   0.58592   0.00000  Uiso   1.00
H32    H     0.98770   0.97725   0.53083   0.00000  Uiso   1.00
H33    H     0.03813   0.98303   0.64575   0.00000  Uiso   1.00
H34    H     0.11017   0.34491   0.57957   0.00000  Uiso   1.00
H35    H     0.89757   0.85936   0.47235   0.00000  Uiso   1.00
H36    H     0.00394   0.87161   0.71466   0.00000  Uiso   1.00
H37    H     0.15584   0.63469   0.57510   0.00000  Uiso   1.00
O38    O     0.74670   0.86439   0.44500   0.00000  Uiso   1.00
O39    O     0.88626   0.88048   0.76290   0.00000  Uiso   1.00
O40    O     0.08554   0.88162   0.57980   0.00000  Uiso   1.00
N41    N     0.73176   0.01022   0.49294   0.00000  Uiso   1.00
N42    N     0.83120   0.02165   0.71948   0.00000  Uiso   1.00
N43    N     0.97322   0.73507   0.58901   0.00000  Uiso   1.00
N44    N     0.85331   0.91664   0.48377   0.00000  Uiso   1.00
N45    N     0.95275   0.92806   0.71031   0.00000  Uiso   1.00
N46    N     0.09477   0.64149   0.57984   0.00000  Uiso   1.00
C47    C     0.66531   0.23610   0.10126   0.00000  Uiso   1.00
C48    C     0.66397   0.32886   0.06917   0.00000  Uiso   1.00
C49    C     0.73056   0.35475   0.04729   0.00000  Uiso   1.00
C50    C     0.71674   0.44264   0.01931   0.00000  Uiso   1.00
C51    C     0.72648   0.57764   0.97037   0.00000  Uiso   1.00
C52    C     0.63657   0.32574   0.13160   0.00000  Uiso   1.00
C53    C     0.68012   0.34897   0.16222   0.00000  Uiso   1.00
C54    C     0.64322   0.43422   0.18680   0.00000  Uiso   1.00
C55    C     0.61039   0.56428   0.23481   0.00000  Uiso   1.00
C56    C     0.59743   0.12912   0.09564   0.00000  Uiso   1.00
C57    C     0.60807   0.98704   0.09603   0.00000  Uiso   1.00
C58    C     0.53822   0.90674   0.09034   0.00000  Uiso   1.00
C59    C     0.44463   0.73153   0.08251   0.00000  Uiso   1.00
C60    C     0.52236   0.34615   0.09048   0.00000  Uiso   1.00
C61    C     0.58632   0.38864   0.06331   0.00000  Uiso   1.00
C62    C     0.57240   0.47651   0.03536   0.00000  Uiso   1.00
C63    C     0.63895   0.50252   0.01344   0.00000  Uiso   1.00
C64    C     0.55893   0.38551   0.12575   0.00000  Uiso   1.00
C65    C     0.52196   0.47073   0.15029   0.00000  Uiso   1.00
C66    C     0.56544   0.49410   0.18094   0.00000  Uiso   1.00
C67    C     0.51979   0.18889   0.08978   0.00000  Uiso   1.00
C68    C     0.44991   0.10880   0.08410   0.00000  Uiso   1.00
C69    C     0.46043   0.96662   0.08448   0.00000  Uiso   1.00
H70    H     0.72576   0.18956   0.10583   0.00000  Uiso   1.00
H71    H     0.79064   0.30848   0.05183   0.00000  Uiso   1.00
H72    H     0.74020   0.30269   0.16675   0.00000  Uiso   1.00
H73    H     0.66816   0.94082   0.10056   0.00000  Uiso   1.00
H74    H     0.82833   0.46672   0.98939   0.00000  Uiso   1.00
H75    H     0.72196   0.45448   0.23170   0.00000  Uiso   1.00
H76    H     0.57006   0.69139   0.09214   0.00000  Uiso   1.00
H77    H     0.46191   0.39269   0.08592   0.00000  Uiso   1.00
H78    H     0.51230   0.52275   0.03083   0.00000  Uiso   1.00
H79    H     0.46187   0.51697   0.14575   0.00000  Uiso   1.00
H80    H     0.38983   0.15509   0.07957   0.00000  Uiso   1.00
H81    H     0.60243   0.64064   0.97235   0.00000  Uiso   1.00
H82    H     0.49606   0.62839   0.21466   0.00000  Uiso   1.00
H83    H     0.34416   0.86531   0.07510   0.00000  Uiso   1.00
O84    O     0.75330   0.63561   0.94500   0.00000  Uiso   1.00
O85    O     0.61374   0.61952   0.26290   0.00000  Uiso   1.00
O86    O     0.41446   0.61838   0.07980   0.00000  Uiso   1.00
N87    N     0.76824   0.48978   0.99294   0.00000  Uiso   1.00
N88    N     0.66880   0.47835   0.21948   0.00000  Uiso   1.00
N89    N     0.52678   0.76493   0.08901   0.00000  Uiso   1.00
N90    N     0.64669   0.58336   0.98377   0.00000  Uiso   1.00
N91    N     0.54725   0.57194   0.21031   0.00000  Uiso   1.00
N92    N     0.40523   0.85851   0.07984   0.00000  Uiso   1.00
C93    C     0.16531   0.26390   0.89874   0.00000  Uiso   1.00
C94    C     0.16397   0.17114   0.93083   0.00000  Uiso   1.00
C95    C     0.23056   0.14525   0.95271   0.00000  Uiso   1.00
C96    C     0.21674   0.05736   0.98069   0.00000  Uiso   1.00
C97    C     0.22648   0.92236   0.02963   0.00000  Uiso   1.00
C98    C     0.13657   0.17426   0.86840   0.00000  Uiso   1.00
C99    C     0.18012   0.15103   0.83778   0.00000  Uiso   1.00
C100   C     0.14322   0.06578   0.81320   0.00000  Uiso   1.00
C101   C     0.11039   0.93572   0.76519   0.00000  Uiso   1.00
C102   C     0.09743   0.37088   0.90436   0.00000  Uiso   1.00
C103   C     0.10807   0.51296   0.90397   0.00000  Uiso   1.00
C104   C     0.03822   0.59326   0.90966   0.00000  Uiso   1.00
C105   C     0.94463   0.76847   0.91749   0.00000  Uiso   1.00
C106   C     0.02236   0.15385   0.90952   0.00000  Uiso   1.00
C107   C     0.08632   0.11136   0.93669   0.00000  Uiso   1.00
C108   C     0.07240   0.02349   0.96464   0.00000  Uiso   1.00
C109   C     0.13895   0.99748   0.98656   0.00000  Uiso   1.00
C110   C     0.05893   0.11449   0.87425   0.00000  Uiso   1.00
C111   C     0.02196   0.02927   0.84971   0.00000  Uiso   1.00
C112   C     0.06544   0.00590   0.81906   0.00000  Uiso   1.00
C113   C     0.01979   0.31111   0.91022   0.00000  Uiso   1.00
C114   C     0.94991   0.39120   0.91590   0.00000  Uiso   1.00
C115   C     0.96043   0.53338   0.91552   0.00000  Uiso   1.00
H116   H     0.22576   0.31044   0.89417   0.00000  Uiso   1.00
H117   H     0.29064   0.19152   0.94817   0.00000  Uiso   1.00
H118   H     0.24020   0.19731   0.83325   0.00000  Uiso   1.00
H119   H     0.16816   0.55918   0.89944   0.00000  Uiso   1.00
H120   H     0.32833   0.03328   0.01061   0.00000  Uiso   1.00
H121   H     0.22196   0.04552   0.76830   0.00000  Uiso   1.00
H122   H     0.07006   0.80861   0.90786   0.00000  Uiso   1.00
H123   H     0.96191   0.10731   0.91408   0.00000  Uiso   1.00
H124   H     0.01230   0.97725   0.96917   0.00000  Uiso   1.00
H125   H     0.96187   0.98303   0.85425   0.00000  Uiso   1.00
H126   H     0.88983   0.34491   0.92043   0.00000  Uiso   1.00
H127   H     0.10243   0.85936   0.02765   0.00000  Uiso   1.00
H128   H     0.99606   0.87161   0.78534   0.00000  Uiso   1.00
H129   H     0.84416   0.63469   0.92490   0.00000  Uiso   1.00
O130   O     0.25330   0.86439   0.05500   0.00000  Uiso   1.00
O131   O     0.11374   0.88048   0.73710   0.00000  Uiso   1.00
O132   O     0.91446   0.88162   0.92020   0.00000  Uiso   1.00
N133   N     0.26824   0.01022   0.00706   0.00000  Uiso   1.00
N134   N     0.16880   0.02165   0.78052   0.00000  Uiso   1.00
N135   N     0.02678   0.73507   0.91099   0.00000  Uiso   1.00
N136   N     0.14669   0.91664   0.01623   0.00000  Uiso   1.00
N137   N     0.04725   0.92806   0.78969   0.00000  Uiso   1.00
N138   N     0.90523   0.64149   0.92016   0.00000  Uiso   1.00
C139   C     0.33469   0.23610   0.39874   0.00000  Uiso   1.00
C140   C     0.33603   0.32886   0.43083   0.00000  Uiso   1.00
C141   C     0.26944   0.35475   0.45271   0.00000  Uiso   1.00
C142   C     0.28326   0.44264   0.48069   0.00000  Uiso   1.00
C143   C     0.27352   0.57764   0.52963   0.00000  Uiso   1.00
C144   C     0.36343   0.32574   0.36840   0.00000  Uiso   1.00
C145   C     0.31988   0.34897   0.33778   0.00000  Uiso   1.00
C146   C     0.35678   0.43422   0.31320   0.00000  Uiso   1.00
C147   C     0.38961   0.56428   0.26519   0.00000  Uiso   1.00
C148   C     0.40257   0.12912   0.40436   0.00000  Uiso   1.00
C149   C     0.39193   0.98704   0.40397   0.00000  Uiso   1.00
C150   C     0.46178   0.90674   0.40966   0.00000  Uiso   1.00
C151   C     0.55537   0.73153   0.41749   0.00000  Uiso   1.00
C152   C     0.47764   0.34615   0.40952   0.00000  Uiso   1.00
C153   C     0.41368   0.38864   0.43669   0.00000  Uiso   1.00
C154   C     0.42760   0.47651   0.46464   0.00000  Uiso   1.00
C155   C     0.36105   0.50252   0.48656   0.00000  Uiso   1.00
C156   C     0.44107   0.38551   0.37425   0.00000  Uiso   1.00
C157   C     0.47804   0.47073   0.34971   0.00000  Uiso   1.00
C158   C     0.43456   0.49410   0.31906   0.00000  Uiso   1.00
C159   C     0.48021   0.18889   0.41022   0.00000  Uiso   1.00
C160   C     0.55009   0.10880   0.41590   0.00000  Uiso   1.00
C161   C     0.53957   0.96662   0.41552   0.00000  Uiso   1.00
H162   H     0.27424   0.18956   0.39417   0.00000  Uiso   1.00
H163   H     0.20936   0.30848   0.44817   0.00000  Uiso   1.00
H164   H     0.25980   0.30269   0.33325   0.00000  Uiso   1.00
H165   H     0.33184   0.94082   0.39944   0.00000  Uiso   1.00
H166   H     0.17167   0.46672   0.51061   0.00000  Uiso   1.00
H167   H     0.27804   0.45448   0.26830   0.00000  Uiso   1.00
H168   H     0.42994   0.69139   0.40786   0.00000  Uiso   1.00
H169   H     0.53809   0.39269   0.41408   0.00000  Uiso   1.00
H170   H     0.48770   0.52275   0.46917   0.00000  Uiso   1.00
H171   H     0.53813   0.51697   0.35425   0.00000  Uiso   1.00
H172   H     0.61017   0.15509   0.42043   0.00000  Uiso   1.00
H173   H     0.39757   0.64064   0.52765   0.00000  Uiso   1.00
H174   H     0.50394   0.62839   0.28534   0.00000  Uiso   1.00
H175   H     0.65584   0.86531   0.42490   0.00000  Uiso   1.00
O176   O     0.24670   0.63561   0.55500   0.00000  Uiso   1.00
O177   O     0.38626   0.61952   0.23710   0.00000  Uiso   1.00
O178   O     0.58554   0.61838   0.42020   0.00000  Uiso   1.00
N179   N     0.23176   0.48978   0.50706   0.00000  Uiso   1.00
N180   N     0.33120   0.47835   0.28052   0.00000  Uiso   1.00
N181   N     0.47322   0.76493   0.41099   0.00000  Uiso   1.00
N182   N     0.35331   0.58336   0.51623   0.00000  Uiso   1.00
N183   N     0.45275   0.57194   0.28969   0.00000  Uiso   1.00
N184   N     0.59477   0.85851   0.42016   0.00000  Uiso   1.00
C185   C     0.16531   0.73610   0.39874   0.00000  Uiso   1.00
C186   C     0.16397   0.82886   0.43083   0.00000  Uiso   1.00
C187   C     0.23056   0.85475   0.45271   0.00000  Uiso   1.00
C188   C     0.21674   0.94264   0.48069   0.00000  Uiso   1.00
C189   C     0.22648   0.07764   0.52963   0.00000  Uiso   1.00
C190   C     0.13657   0.82574   0.36840   0.00000  Uiso   1.00
C191   C     0.18012   0.84897   0.33778   0.00000  Uiso   1.00
C192   C     0.14322   0.93422   0.31320   0.00000  Uiso   1.00
C193   C     0.11039   0.06428   0.26519   0.00000  Uiso   1.00
C194   C     0.09743   0.62912   0.40436   0.00000  Uiso   1.00
C195   C     0.10807   0.48704   0.40397   0.00000  Uiso   1.00
C196   C     0.03822   0.40674   0.40966   0.00000  Uiso   1.00
C197   C     0.94463   0.23153   0.41749   0.00000  Uiso   1.00
C198   C     0.02236   0.84615   0.40952   0.00000  Uiso   1.00
C199   C     0.08632   0.88864   0.43669   0.00000  Uiso   1.00
C200   C     0.07240   0.97651   0.46464   0.00000  Uiso   1.00
C201   C     0.13895   0.00252   0.48656   0.00000  Uiso   1.00
C202   C     0.05893   0.88551   0.37425   0.00000  Uiso   1.00
C203   C     0.02196   0.97073   0.34971   0.00000  Uiso   1.00
C204   C     0.06544   0.99410   0.31906   0.00000  Uiso   1.00
C205   C     0.01979   0.68889   0.41022   0.00000  Uiso   1.00
C206   C     0.94991   0.60880   0.41590   0.00000  Uiso   1.00
C207   C     0.96043   0.46662   0.41552   0.00000  Uiso   1.00
H208   H     0.22576   0.68956   0.39417   0.00000  Uiso   1.00
H209   H     0.29064   0.80848   0.44817   0.00000  Uiso   1.00
H210   H     0.24020   0.80269   0.33325   0.00000  Uiso   1.00
H211   H     0.16816   0.44082   0.39944   0.00000  Uiso   1.00
H212   H     0.32833   0.96672   0.51061   0.00000  Uiso   1.00
H213   H     0.22196   0.95448   0.26830   0.00000  Uiso   1.00
H214   H     0.07006   0.19139   0.40786   0.00000  Uiso   1.00
H215   H     0.96191   0.89269   0.41408   0.00000  Uiso   1.00
H216   H     0.01230   0.02275   0.46917   0.00000  Uiso   1.00
H217   H     0.96187   0.01697   0.35425   0.00000  Uiso   1.00
H218   H     0.88983   0.65509   0.42043   0.00000  Uiso   1.00
H219   H     0.10243   0.14064   0.52765   0.00000  Uiso   1.00
H220   H     0.99606   0.12839   0.28534   0.00000  Uiso   1.00
H221   H     0.84416   0.36531   0.42490   0.00000  Uiso   1.00
O222   O     0.25330   0.13561   0.55500   0.00000  Uiso   1.00
O223   O     0.11374   0.11952   0.23710   0.00000  Uiso   1.00
O224   O     0.91446   0.11838   0.42020   0.00000  Uiso   1.00
N225   N     0.26824   0.98978   0.50706   0.00000  Uiso   1.00
N226   N     0.16880   0.97835   0.28052   0.00000  Uiso   1.00
N227   N     0.02678   0.26493   0.41099   0.00000  Uiso   1.00
N228   N     0.14669   0.08336   0.51623   0.00000  Uiso   1.00
N229   N     0.04725   0.07194   0.28969   0.00000  Uiso   1.00
N230   N     0.90523   0.35851   0.42016   0.00000  Uiso   1.00
C231   C     0.33469   0.76390   0.89874   0.00000  Uiso   1.00
C232   C     0.33603   0.67114   0.93083   0.00000  Uiso   1.00
C233   C     0.26944   0.64525   0.95271   0.00000  Uiso   1.00
C234   C     0.28326   0.55736   0.98069   0.00000  Uiso   1.00
C235   C     0.27352   0.42236   0.02963   0.00000  Uiso   1.00
C236   C     0.36343   0.67426   0.86840   0.00000  Uiso   1.00
C237   C     0.31988   0.65103   0.83778   0.00000  Uiso   1.00
C238   C     0.35678   0.56578   0.81320   0.00000  Uiso   1.00
C239   C     0.38961   0.43572   0.76519   0.00000  Uiso   1.00
C240   C     0.40257   0.87088   0.90436   0.00000  Uiso   1.00
C241   C     0.39193   0.01296   0.90397   0.00000  Uiso   1.00
C242   C     0.46178   0.09326   0.90966   0.00000  Uiso   1.00
C243   C     0.55537   0.26847   0.91749   0.00000  Uiso   1.00
C244   C     0.47764   0.65385   0.90952   0.00000  Uiso   1.00
C245   C     0.41368   0.61136   0.93669   0.00000  Uiso   1.00
C246   C     0.42760   0.52349   0.96464   0.00000  Uiso   1.00
C247   C     0.36105   0.49748   0.98656   0.00000  Uiso   1.00
C248   C     0.44107   0.61449   0.87425   0.00000  Uiso   1.00
C249   C     0.47804   0.52927   0.84971   0.00000  Uiso   1.00
C250   C     0.43456   0.50590   0.81906   0.00000  Uiso   1.00
C251   C     0.48021   0.81111   0.91022   0.00000  Uiso   1.00
C252   C     0.55009   0.89120   0.91590   0.00000  Uiso   1.00
C253   C     0.53957   0.03338   0.91552   0.00000  Uiso   1.00
H254   H     0.27424   0.81044   0.89417   0.00000  Uiso   1.00
H255   H     0.20936   0.69152   0.94817   0.00000  Uiso   1.00
H256   H     0.25980   0.69731   0.83325   0.00000  Uiso   1.00
H257   H     0.33184   0.05918   0.89944   0.00000  Uiso   1.00
H258   H     0.17167   0.53328   0.01061   0.00000  Uiso   1.00
H259   H     0.27804   0.54552   0.76830   0.00000  Uiso   1.00
H260   H     0.42994   0.30861   0.90786   0.00000  Uiso   1.00
H261   H     0.53809   0.60731   0.91408   0.00000  Uiso   1.00
H262   H     0.48770   0.47725   0.96917   0.00000  Uiso   1.00
H263   H     0.53813   0.48303   0.85425   0.00000  Uiso   1.00
H264   H     0.61017   0.84491   0.92043   0.00000  Uiso   1.00
H265   H     0.39757   0.35936   0.02765   0.00000  Uiso   1.00
H266   H     0.50394   0.37161   0.78534   0.00000  Uiso   1.00
H267   H     0.65584   0.13469   0.92490   0.00000  Uiso   1.00
O268   O     0.24670   0.36439   0.05500   0.00000  Uiso   1.00
O269   O     0.38626   0.38048   0.73710   0.00000  Uiso   1.00
O270   O     0.58554   0.38162   0.92020   0.00000  Uiso   1.00
N271   N     0.23176   0.51022   0.00706   0.00000  Uiso   1.00
N272   N     0.33120   0.52165   0.78052   0.00000  Uiso   1.00
N273   N     0.47322   0.23507   0.91099   0.00000  Uiso   1.00
N274   N     0.35331   0.41664   0.01623   0.00000  Uiso   1.00
N275   N     0.45275   0.42806   0.78969   0.00000  Uiso   1.00
N276   N     0.59477   0.14149   0.92016   0.00000  Uiso   1.00
C277   C     0.83469   0.73610   0.10126   0.00000  Uiso   1.00
C278   C     0.83603   0.82886   0.06917   0.00000  Uiso   1.00
C279   C     0.76944   0.85475   0.04729   0.00000  Uiso   1.00
C280   C     0.78326   0.94264   0.01931   0.00000  Uiso   1.00
C281   C     0.77352   0.07764   0.97037   0.00000  Uiso   1.00
C282   C     0.86343   0.82574   0.13160   0.00000  Uiso   1.00
C283   C     0.81988   0.84897   0.16222   0.00000  Uiso   1.00
C284   C     0.85678   0.93422   0.18680   0.00000  Uiso   1.00
C285   C     0.88961   0.06428   0.23481   0.00000  Uiso   1.00
C286   C     0.90257   0.62912   0.09564   0.00000  Uiso   1.00
C287   C     0.89193   0.48704   0.09603   0.00000  Uiso   1.00
C288   C     0.96178   0.40674   0.09034   0.00000  Uiso   1.00
C289   C     0.05537   0.23153   0.08251   0.00000  Uiso   1.00
C290   C     0.97764   0.84615   0.09048   0.00000  Uiso   1.00
C291   C     0.91368   0.88864   0.06331   0.00000  Uiso   1.00
C292   C     0.92760   0.97651   0.03536   0.00000  Uiso   1.00
C293   C     0.86105   0.00252   0.01344   0.00000  Uiso   1.00
C294   C     0.94107   0.88551   0.12575   0.00000  Uiso   1.00
C295   C     0.97804   0.97073   0.15029   0.00000  Uiso   1.00
C296   C     0.93456   0.99410   0.18094   0.00000  Uiso   1.00
C297   C     0.98021   0.68889   0.08978   0.00000  Uiso   1.00
C298   C     0.05009   0.60880   0.08410   0.00000  Uiso   1.00
C299   C     0.03957   0.46662   0.08448   0.00000  Uiso   1.00
H300   H     0.77424   0.68956   0.10583   0.00000  Uiso   1.00
H301   H     0.70936   0.80848   0.05183   0.00000  Uiso   1.00
H302   H     0.75980   0.80269   0.16675   0.00000  Uiso   1.00
H303   H     0.83184   0.44082   0.10056   0.00000  Uiso   1.00
H304   H     0.67167   0.96672   0.98939   0.00000  Uiso   1.00
H305   H     0.77804   0.95448   0.23170   0.00000  Uiso   1.00
H306   H     0.92994   0.19139   0.09214   0.00000  Uiso   1.00
H307   H     0.03809   0.89269   0.08592   0.00000  Uiso   1.00
H308   H     0.98770   0.02275   0.03083   0.00000  Uiso   1.00
H309   H     0.03813   0.01697   0.14575   0.00000  Uiso   1.00
H310   H     0.11017   0.65509   0.07957   0.00000  Uiso   1.00
H311   H     0.89757   0.14064   0.97235   0.00000  Uiso   1.00
H312   H     0.00394   0.12839   0.21466   0.00000  Uiso   1.00
H313   H     0.15584   0.36531   0.07510   0.00000  Uiso   1.00
O314   O     0.74670   0.13561   0.94500   0.00000  Uiso   1.00
O315   O     0.88626   0.11952   0.26290   0.00000  Uiso   1.00
O316   O     0.08554   0.11838   0.07980   0.00000  Uiso   1.00
N317   N     0.73176   0.98978   0.99294   0.00000  Uiso   1.00
N318   N     0.83120   0.97835   0.21948   0.00000  Uiso   1.00
N319   N     0.97322   0.26493   0.08901   0.00000  Uiso   1.00
N320   N     0.85331   0.08336   0.98377   0.00000  Uiso   1.00
N321   N     0.95275   0.07194   0.21031   0.00000  Uiso   1.00
N322   N     0.09477   0.35851   0.07984   0.00000  Uiso   1.00
C323   C     0.66531   0.76390   0.60126   0.00000  Uiso   1.00
C324   C     0.66397   0.67114   0.56917   0.00000  Uiso   1.00
C325   C     0.73056   0.64525   0.54729   0.00000  Uiso   1.00
C326   C     0.71674   0.55736   0.51931   0.00000  Uiso   1.00
C327   C     0.72648   0.42236   0.47037   0.00000  Uiso   1.00
C328   C     0.63657   0.67426   0.63160   0.00000  Uiso   1.00
C329   C     0.68012   0.65103   0.66222   0.00000  Uiso   1.00
C330   C     0.64322   0.56578   0.68680   0.00000  Uiso   1.00
C331   C     0.61039   0.43572   0.73481   0.00000  Uiso   1.00
C332   C     0.59743   0.87088   0.59564   0.00000  Uiso   1.00
C333   C     0.60807   0.01296   0.59603   0.00000  Uiso   1.00
C334   C     0.53822   0.09326   0.59034   0.00000  Uiso   1.00
C335   C     0.44463   0.26847   0.58251   0.00000  Uiso   1.00
C336   C     0.52236   0.65385   0.59048   0.00000  Uiso   1.00
C337   C     0.58632   0.61136   0.56331   0.00000  Uiso   1.00
C338   C     0.57240   0.52349   0.53536   0.00000  Uiso   1.00
C339   C     0.63895   0.49748   0.51344   0.00000  Uiso   1.00
C340   C     0.55893   0.61449   0.62575   0.00000  Uiso   1.00
C341   C     0.52196   0.52927   0.65029   0.00000  Uiso   1.00
C342   C     0.56544   0.50590   0.68094   0.00000  Uiso   1.00
C343   C     0.51979   0.81111   0.58978   0.00000  Uiso   1.00
C344   C     0.44991   0.89120   0.58410   0.00000  Uiso   1.00
C345   C     0.46043   0.03338   0.58448   0.00000  Uiso   1.00
H346   H     0.72576   0.81044   0.60583   0.00000  Uiso   1.00
H347   H     0.79064   0.69152   0.55183   0.00000  Uiso   1.00
H348   H     0.74020   0.69731   0.66675   0.00000  Uiso   1.00
H349   H     0.66816   0.05918   0.60056   0.00000  Uiso   1.00
H350   H     0.82833   0.53328   0.48939   0.00000  Uiso   1.00
H351   H     0.72196   0.54552   0.73170   0.00000  Uiso   1.00
H352   H     0.57006   0.30861   0.59214   0.00000  Uiso   1.00
H353   H     0.46191   0.60731   0.58592   0.00000  Uiso   1.00
H354   H     0.51230   0.47725   0.53083   0.00000  Uiso   1.00
H355   H     0.46187   0.48303   0.64575   0.00000  Uiso   1.00
H356   H     0.38983   0.84491   0.57957   0.00000  Uiso   1.00
H357   H     0.60243   0.35936   0.47235   0.00000  Uiso   1.00
H358   H     0.49606   0.37161   0.71466   0.00000  Uiso   1.00
H359   H     0.34416   0.13469   0.57510   0.00000  Uiso   1.00
O360   O     0.75330   0.36439   0.44500   0.00000  Uiso   1.00
O361   O     0.61374   0.38048   0.76290   0.00000  Uiso   1.00
O362   O     0.41446   0.38162   0.57980   0.00000  Uiso   1.00
N363   N     0.76824   0.51022   0.49294   0.00000  Uiso   1.00
N364   N     0.66880   0.52165   0.71948   0.00000  Uiso   1.00
N365   N     0.52678   0.23507   0.58901   0.00000  Uiso   1.00
N366   N     0.64669   0.41664   0.48377   0.00000  Uiso   1.00
N367   N     0.54725   0.42806   0.71031   0.00000  Uiso   1.00
N368   N     0.40523   0.14149   0.57984   0.00000  Uiso   1.00
