data_job_02139
_audit_creation_date              2018-12-19
_audit_creation_method            'Materials Studio'
_symmetry_space_group_name_H-M    'P1'
_symmetry_Int_Tables_number       1
_symmetry_cell_setting            triclinic
loop_
_symmetry_equiv_pos_as_xyz
  x,y,z
_cell_length_a                    36.2313
_cell_length_b                    13.3643
_cell_length_c                    10.3232
_cell_angle_alpha                 90.0000
_cell_angle_beta                  90.0000
_cell_angle_gamma                 90.0000
loop_
_atom_site_label
_atom_site_type_symbol
_atom_site_fract_x
_atom_site_fract_y
_atom_site_fract_z
_atom_site_U_iso_or_equiv
_atom_site_adp_type
_atom_site_occupancy
C1     C     0.62411   0.67376   0.98379   0.00000  Uiso   1.00
C2     C     0.62801   0.58481   0.89228   0.00000  Uiso   1.00
C3     C     0.62112   0.58596   0.76005   0.00000  Uiso   1.00
C4     C     0.62630   0.49684   0.69338   0.00000  Uiso   1.00
C5     C     0.63055   0.37196   0.54165   0.00000  Uiso   1.00
C6     C     0.59746   0.64057   0.08975   0.00000  Uiso   1.00
C7     C     0.56490   0.68862   0.12355   0.00000  Uiso   1.00
C8     C     0.54437   0.64644   0.22313   0.00000  Uiso   1.00
C9     C     0.50122   0.60818   0.37804   0.00000  Uiso   1.00
C10    C     0.66156   0.68601   0.04934   0.00000  Uiso   1.00
C11    C     0.68288   0.77228   0.04921   0.00000  Uiso   1.00
C12    C     0.71631   0.76836   0.11479   0.00000  Uiso   1.00
C13    C     0.77267   0.80065   0.20696   0.00000  Uiso   1.00
C14    C     0.64555   0.51342   0.10053   0.00000  Uiso   1.00
C15    C     0.63965   0.49772   0.95569   0.00000  Uiso   1.00
C16    C     0.64484   0.40856   0.88920   0.00000  Uiso   1.00
C17    C     0.63796   0.40959   0.75690   0.00000  Uiso   1.00
C18    C     0.60911   0.55348   0.15316   0.00000  Uiso   1.00
C19    C     0.58862   0.51122   0.25271   0.00000  Uiso   1.00
C20    C     0.55604   0.55919   0.28665   0.00000  Uiso   1.00
C21    C     0.67320   0.59892   0.11275   0.00000  Uiso   1.00
C22    C     0.70660   0.59487   0.17836   0.00000  Uiso   1.00
C23    C     0.72797   0.68111   0.17831   0.00000  Uiso   1.00
H24    H     0.61505   0.74156   0.93443   0.00000  Uiso   1.00
H25    H     0.61210   0.65338   0.71101   0.00000  Uiso   1.00
H26    H     0.55590   0.75602   0.07447   0.00000  Uiso   1.00
H27    H     0.67386   0.83966   0.00013   0.00000  Uiso   1.00
H28    H     0.61397   0.51719   0.49129   0.00000  Uiso   1.00
H29    H     0.49546   0.73365   0.25769   0.00000  Uiso   1.00
H30    H     0.74420   0.91001   0.10093   0.00000  Uiso   1.00
H31    H     0.65462   0.44561   0.14990   0.00000  Uiso   1.00
H32    H     0.65385   0.34118   0.93830   0.00000  Uiso   1.00
H33    H     0.59764   0.44383   0.30176   0.00000  Uiso   1.00
H34    H     0.71561   0.52746   0.22742   0.00000  Uiso   1.00
H35    H     0.64785   0.26380   0.67576   0.00000  Uiso   1.00
H36    H     0.52934   0.48026   0.44217   0.00000  Uiso   1.00
H37    H     0.77809   0.65662   0.28540   0.00000  Uiso   1.00
O38    O     0.62968   0.32713   0.44045   0.00000  Uiso   1.00
O39    O     0.47420   0.61113   0.44596   0.00000  Uiso   1.00
O40    O     0.80055   0.84251   0.24028   0.00000  Uiso   1.00
N41    N     0.62205   0.47189   0.56374   0.00000  Uiso   1.00
N42    N     0.51125   0.67426   0.28027   0.00000  Uiso   1.00
N43    N     0.74380   0.83915   0.13373   0.00000  Uiso   1.00
N44    N     0.64029   0.33554   0.66300   0.00000  Uiso   1.00
N45    N     0.52949   0.53791   0.37953   0.00000  Uiso   1.00
N46    N     0.76203   0.70280   0.23300   0.00000  Uiso   1.00
C47    C     0.87589   0.32624   0.48379   0.00000  Uiso   1.00
C48    C     0.87199   0.41519   0.39228   0.00000  Uiso   1.00
C49    C     0.87888   0.41404   0.26005   0.00000  Uiso   1.00
C50    C     0.87370   0.50316   0.19338   0.00000  Uiso   1.00
C51    C     0.86945   0.62804   0.04165   0.00000  Uiso   1.00
C52    C     0.90254   0.35943   0.58975   0.00000  Uiso   1.00
C53    C     0.93510   0.31138   0.62355   0.00000  Uiso   1.00
C54    C     0.95563   0.35356   0.72313   0.00000  Uiso   1.00
C55    C     0.99878   0.39182   0.87804   0.00000  Uiso   1.00
C56    C     0.83844   0.31399   0.54934   0.00000  Uiso   1.00
C57    C     0.81712   0.22772   0.54921   0.00000  Uiso   1.00
C58    C     0.78369   0.23164   0.61479   0.00000  Uiso   1.00
C59    C     0.72733   0.19935   0.70696   0.00000  Uiso   1.00
C60    C     0.85445   0.48658   0.60053   0.00000  Uiso   1.00
C61    C     0.86035   0.50228   0.45569   0.00000  Uiso   1.00
C62    C     0.85516   0.59144   0.38920   0.00000  Uiso   1.00
C63    C     0.86204   0.59041   0.25690   0.00000  Uiso   1.00
C64    C     0.89089   0.44652   0.65316   0.00000  Uiso   1.00
C65    C     0.91138   0.48878   0.75271   0.00000  Uiso   1.00
C66    C     0.94396   0.44081   0.78665   0.00000  Uiso   1.00
C67    C     0.82680   0.40108   0.61275   0.00000  Uiso   1.00
C68    C     0.79340   0.40513   0.67836   0.00000  Uiso   1.00
C69    C     0.77203   0.31889   0.67831   0.00000  Uiso   1.00
H70    H     0.88495   0.25844   0.43443   0.00000  Uiso   1.00
H71    H     0.88790   0.34662   0.21101   0.00000  Uiso   1.00
H72    H     0.94410   0.24398   0.57447   0.00000  Uiso   1.00
H73    H     0.82614   0.16034   0.50013   0.00000  Uiso   1.00
H74    H     0.88603   0.48281   0.99129   0.00000  Uiso   1.00
H75    H     0.00454   0.26635   0.75769   0.00000  Uiso   1.00
H76    H     0.75580   0.08999   0.60093   0.00000  Uiso   1.00
H77    H     0.84538   0.55439   0.64990   0.00000  Uiso   1.00
H78    H     0.84615   0.65882   0.43830   0.00000  Uiso   1.00
H79    H     0.90236   0.55617   0.80176   0.00000  Uiso   1.00
H80    H     0.78439   0.47254   0.72742   0.00000  Uiso   1.00
H81    H     0.85215   0.73620   0.17576   0.00000  Uiso   1.00
H82    H     0.97066   0.51974   0.94217   0.00000  Uiso   1.00
H83    H     0.72191   0.34338   0.78540   0.00000  Uiso   1.00
O84    O     0.87032   0.67287   0.94045   0.00000  Uiso   1.00
O85    O     0.02580   0.38887   0.94596   0.00000  Uiso   1.00
O86    O     0.69945   0.15749   0.74028   0.00000  Uiso   1.00
N87    N     0.87795   0.52811   0.06374   0.00000  Uiso   1.00
N88    N     0.98875   0.32574   0.78027   0.00000  Uiso   1.00
N89    N     0.75620   0.16085   0.63373   0.00000  Uiso   1.00
N90    N     0.85971   0.66446   0.16300   0.00000  Uiso   1.00
N91    N     0.97051   0.46209   0.87953   0.00000  Uiso   1.00
N92    N     0.73797   0.29720   0.73300   0.00000  Uiso   1.00
C93    C     0.37589   0.17376   0.51621   0.00000  Uiso   1.00
C94    C     0.37199   0.08481   0.60772   0.00000  Uiso   1.00
C95    C     0.37888   0.08596   0.73995   0.00000  Uiso   1.00
C96    C     0.37370   0.99684   0.80662   0.00000  Uiso   1.00
C97    C     0.36945   0.87196   0.95835   0.00000  Uiso   1.00
C98    C     0.40254   0.14057   0.41025   0.00000  Uiso   1.00
C99    C     0.43510   0.18862   0.37645   0.00000  Uiso   1.00
C100   C     0.45563   0.14644   0.27687   0.00000  Uiso   1.00
C101   C     0.49878   0.10818   0.12196   0.00000  Uiso   1.00
C102   C     0.33844   0.18601   0.45066   0.00000  Uiso   1.00
C103   C     0.31712   0.27228   0.45079   0.00000  Uiso   1.00
C104   C     0.28369   0.26836   0.38521   0.00000  Uiso   1.00
C105   C     0.22733   0.30065   0.29304   0.00000  Uiso   1.00
C106   C     0.35445   0.01342   0.39947   0.00000  Uiso   1.00
C107   C     0.36035   0.99772   0.54431   0.00000  Uiso   1.00
C108   C     0.35516   0.90856   0.61080   0.00000  Uiso   1.00
C109   C     0.36204   0.90959   0.74310   0.00000  Uiso   1.00
C110   C     0.39089   0.05348   0.34684   0.00000  Uiso   1.00
C111   C     0.41138   0.01122   0.24729   0.00000  Uiso   1.00
C112   C     0.44396   0.05919   0.21335   0.00000  Uiso   1.00
C113   C     0.32680   0.09892   0.38725   0.00000  Uiso   1.00
C114   C     0.29340   0.09487   0.32164   0.00000  Uiso   1.00
C115   C     0.27203   0.18111   0.32169   0.00000  Uiso   1.00
H116   H     0.38495   0.24156   0.56557   0.00000  Uiso   1.00
H117   H     0.38790   0.15338   0.78899   0.00000  Uiso   1.00
H118   H     0.44410   0.25602   0.42553   0.00000  Uiso   1.00
H119   H     0.32614   0.33966   0.49987   0.00000  Uiso   1.00
H120   H     0.38603   0.01719   0.00871   0.00000  Uiso   1.00
H121   H     0.50454   0.23365   0.24231   0.00000  Uiso   1.00
H122   H     0.25580   0.41001   0.39907   0.00000  Uiso   1.00
H123   H     0.34538   0.94561   0.35010   0.00000  Uiso   1.00
H124   H     0.34615   0.84118   0.56170   0.00000  Uiso   1.00
H125   H     0.40236   0.94383   0.19824   0.00000  Uiso   1.00
H126   H     0.28439   0.02746   0.27258   0.00000  Uiso   1.00
H127   H     0.35215   0.76380   0.82424   0.00000  Uiso   1.00
H128   H     0.47066   0.98026   0.05783   0.00000  Uiso   1.00
H129   H     0.22191   0.15662   0.21460   0.00000  Uiso   1.00
O130   O     0.37032   0.82713   0.05955   0.00000  Uiso   1.00
O131   O     0.52580   0.11113   0.05404   0.00000  Uiso   1.00
O132   O     0.19945   0.34251   0.25972   0.00000  Uiso   1.00
N133   N     0.37795   0.97189   0.93626   0.00000  Uiso   1.00
N134   N     0.48875   0.17426   0.21973   0.00000  Uiso   1.00
N135   N     0.25620   0.33915   0.36627   0.00000  Uiso   1.00
N136   N     0.35971   0.83554   0.83700   0.00000  Uiso   1.00
N137   N     0.47051   0.03791   0.12047   0.00000  Uiso   1.00
N138   N     0.23797   0.20280   0.26700   0.00000  Uiso   1.00
C139   C     0.12411   0.82624   0.01621   0.00000  Uiso   1.00
C140   C     0.12801   0.91519   0.10772   0.00000  Uiso   1.00
C141   C     0.12112   0.91404   0.23995   0.00000  Uiso   1.00
C142   C     0.12630   0.00316   0.30662   0.00000  Uiso   1.00
C143   C     0.13055   0.12804   0.45835   0.00000  Uiso   1.00
C144   C     0.09746   0.85943   0.91025   0.00000  Uiso   1.00
C145   C     0.06490   0.81138   0.87645   0.00000  Uiso   1.00
C146   C     0.04437   0.85356   0.77687   0.00000  Uiso   1.00
C147   C     0.00122   0.89182   0.62196   0.00000  Uiso   1.00
C148   C     0.16156   0.81399   0.95066   0.00000  Uiso   1.00
C149   C     0.18288   0.72772   0.95079   0.00000  Uiso   1.00
C150   C     0.21631   0.73164   0.88521   0.00000  Uiso   1.00
C151   C     0.27267   0.69935   0.79304   0.00000  Uiso   1.00
C152   C     0.14555   0.98658   0.89947   0.00000  Uiso   1.00
C153   C     0.13965   0.00228   0.04431   0.00000  Uiso   1.00
C154   C     0.14484   0.09144   0.11080   0.00000  Uiso   1.00
C155   C     0.13796   0.09041   0.24310   0.00000  Uiso   1.00
C156   C     0.10911   0.94652   0.84684   0.00000  Uiso   1.00
C157   C     0.08862   0.98878   0.74729   0.00000  Uiso   1.00
C158   C     0.05604   0.94081   0.71335   0.00000  Uiso   1.00
C159   C     0.17320   0.90108   0.88725   0.00000  Uiso   1.00
C160   C     0.20660   0.90513   0.82164   0.00000  Uiso   1.00
C161   C     0.22797   0.81889   0.82169   0.00000  Uiso   1.00
H162   H     0.11505   0.75844   0.06557   0.00000  Uiso   1.00
H163   H     0.11210   0.84662   0.28899   0.00000  Uiso   1.00
H164   H     0.05590   0.74398   0.92553   0.00000  Uiso   1.00
H165   H     0.17386   0.66034   0.99987   0.00000  Uiso   1.00
H166   H     0.11397   0.98281   0.50871   0.00000  Uiso   1.00
H167   H     0.99546   0.76635   0.74231   0.00000  Uiso   1.00
H168   H     0.24420   0.58999   0.89907   0.00000  Uiso   1.00
H169   H     0.15462   0.05439   0.85010   0.00000  Uiso   1.00
H170   H     0.15385   0.15882   0.06170   0.00000  Uiso   1.00
H171   H     0.09764   0.05617   0.69824   0.00000  Uiso   1.00
H172   H     0.21561   0.97254   0.77258   0.00000  Uiso   1.00
H173   H     0.14785   0.23620   0.32424   0.00000  Uiso   1.00
H174   H     0.02934   0.01974   0.55783   0.00000  Uiso   1.00
H175   H     0.27809   0.84338   0.71460   0.00000  Uiso   1.00
O176   O     0.12968   0.17287   0.55955   0.00000  Uiso   1.00
O177   O     0.97420   0.88887   0.55404   0.00000  Uiso   1.00
O178   O     0.30055   0.65749   0.75972   0.00000  Uiso   1.00
N179   N     0.12205   0.02811   0.43626   0.00000  Uiso   1.00
N180   N     0.01125   0.82574   0.71973   0.00000  Uiso   1.00
N181   N     0.24380   0.66085   0.86627   0.00000  Uiso   1.00
N182   N     0.14029   0.16446   0.33700   0.00000  Uiso   1.00
N183   N     0.02949   0.96209   0.62047   0.00000  Uiso   1.00
N184   N     0.26203   0.79720   0.76700   0.00000  Uiso   1.00
C185   C     0.37589   0.32624   0.01621   0.00000  Uiso   1.00
C186   C     0.37199   0.41519   0.10772   0.00000  Uiso   1.00
C187   C     0.37888   0.41404   0.23995   0.00000  Uiso   1.00
C188   C     0.37370   0.50316   0.30662   0.00000  Uiso   1.00
C189   C     0.36945   0.62804   0.45835   0.00000  Uiso   1.00
C190   C     0.40254   0.35943   0.91025   0.00000  Uiso   1.00
C191   C     0.43510   0.31138   0.87645   0.00000  Uiso   1.00
C192   C     0.45563   0.35356   0.77687   0.00000  Uiso   1.00
C193   C     0.49878   0.39182   0.62196   0.00000  Uiso   1.00
C194   C     0.33844   0.31399   0.95066   0.00000  Uiso   1.00
C195   C     0.31712   0.22772   0.95079   0.00000  Uiso   1.00
C196   C     0.28369   0.23164   0.88521   0.00000  Uiso   1.00
C197   C     0.22733   0.19935   0.79304   0.00000  Uiso   1.00
C198   C     0.35445   0.48658   0.89947   0.00000  Uiso   1.00
C199   C     0.36035   0.50228   0.04431   0.00000  Uiso   1.00
C200   C     0.35516   0.59144   0.11080   0.00000  Uiso   1.00
C201   C     0.36204   0.59041   0.24310   0.00000  Uiso   1.00
C202   C     0.39089   0.44652   0.84684   0.00000  Uiso   1.00
C203   C     0.41138   0.48878   0.74729   0.00000  Uiso   1.00
C204   C     0.44396   0.44081   0.71335   0.00000  Uiso   1.00
C205   C     0.32680   0.40108   0.88725   0.00000  Uiso   1.00
C206   C     0.29340   0.40513   0.82164   0.00000  Uiso   1.00
C207   C     0.27203   0.31889   0.82169   0.00000  Uiso   1.00
H208   H     0.38495   0.25844   0.06557   0.00000  Uiso   1.00
H209   H     0.38790   0.34662   0.28899   0.00000  Uiso   1.00
H210   H     0.44410   0.24398   0.92553   0.00000  Uiso   1.00
H211   H     0.32614   0.16034   0.99987   0.00000  Uiso   1.00
H212   H     0.38603   0.48281   0.50871   0.00000  Uiso   1.00
H213   H     0.50454   0.26635   0.74231   0.00000  Uiso   1.00
H214   H     0.25580   0.08999   0.89907   0.00000  Uiso   1.00
H215   H     0.34538   0.55439   0.85010   0.00000  Uiso   1.00
H216   H     0.34615   0.65882   0.06170   0.00000  Uiso   1.00
H217   H     0.40236   0.55617   0.69824   0.00000  Uiso   1.00
H218   H     0.28439   0.47254   0.77258   0.00000  Uiso   1.00
H219   H     0.35215   0.73620   0.32424   0.00000  Uiso   1.00
H220   H     0.47066   0.51974   0.55783   0.00000  Uiso   1.00
H221   H     0.22191   0.34338   0.71460   0.00000  Uiso   1.00
O222   O     0.37032   0.67287   0.55955   0.00000  Uiso   1.00
O223   O     0.52580   0.38887   0.55404   0.00000  Uiso   1.00
O224   O     0.19945   0.15749   0.75972   0.00000  Uiso   1.00
N225   N     0.37795   0.52811   0.43626   0.00000  Uiso   1.00
N226   N     0.48875   0.32574   0.71973   0.00000  Uiso   1.00
N227   N     0.25620   0.16085   0.86627   0.00000  Uiso   1.00
N228   N     0.35971   0.66446   0.33700   0.00000  Uiso   1.00
N229   N     0.47051   0.46209   0.62047   0.00000  Uiso   1.00
N230   N     0.23797   0.29720   0.76700   0.00000  Uiso   1.00
C231   C     0.12411   0.67376   0.51621   0.00000  Uiso   1.00
C232   C     0.12801   0.58481   0.60772   0.00000  Uiso   1.00
C233   C     0.12112   0.58596   0.73995   0.00000  Uiso   1.00
C234   C     0.12630   0.49684   0.80662   0.00000  Uiso   1.00
C235   C     0.13055   0.37196   0.95835   0.00000  Uiso   1.00
C236   C     0.09746   0.64057   0.41025   0.00000  Uiso   1.00
C237   C     0.06490   0.68862   0.37645   0.00000  Uiso   1.00
C238   C     0.04437   0.64644   0.27687   0.00000  Uiso   1.00
C239   C     0.00122   0.60818   0.12196   0.00000  Uiso   1.00
C240   C     0.16156   0.68601   0.45066   0.00000  Uiso   1.00
C241   C     0.18288   0.77228   0.45079   0.00000  Uiso   1.00
C242   C     0.21631   0.76836   0.38521   0.00000  Uiso   1.00
C243   C     0.27267   0.80065   0.29304   0.00000  Uiso   1.00
C244   C     0.14555   0.51342   0.39947   0.00000  Uiso   1.00
C245   C     0.13965   0.49772   0.54431   0.00000  Uiso   1.00
C246   C     0.14484   0.40856   0.61080   0.00000  Uiso   1.00
C247   C     0.13796   0.40959   0.74310   0.00000  Uiso   1.00
C248   C     0.10911   0.55348   0.34684   0.00000  Uiso   1.00
C249   C     0.08862   0.51122   0.24729   0.00000  Uiso   1.00
C250   C     0.05604   0.55919   0.21335   0.00000  Uiso   1.00
C251   C     0.17320   0.59892   0.38725   0.00000  Uiso   1.00
C252   C     0.20660   0.59487   0.32164   0.00000  Uiso   1.00
C253   C     0.22797   0.68111   0.32169   0.00000  Uiso   1.00
H254   H     0.11505   0.74156   0.56557   0.00000  Uiso   1.00
H255   H     0.11210   0.65338   0.78899   0.00000  Uiso   1.00
H256   H     0.05590   0.75602   0.42553   0.00000  Uiso   1.00
H257   H     0.17386   0.83966   0.49987   0.00000  Uiso   1.00
H258   H     0.11397   0.51719   0.00871   0.00000  Uiso   1.00
H259   H     0.99546   0.73365   0.24231   0.00000  Uiso   1.00
H260   H     0.24420   0.91001   0.39907   0.00000  Uiso   1.00
H261   H     0.15462   0.44561   0.35010   0.00000  Uiso   1.00
H262   H     0.15385   0.34118   0.56170   0.00000  Uiso   1.00
H263   H     0.09764   0.44383   0.19824   0.00000  Uiso   1.00
H264   H     0.21561   0.52746   0.27258   0.00000  Uiso   1.00
H265   H     0.14785   0.26380   0.82424   0.00000  Uiso   1.00
H266   H     0.02934   0.48026   0.05783   0.00000  Uiso   1.00
H267   H     0.27809   0.65662   0.21460   0.00000  Uiso   1.00
O268   O     0.12968   0.32713   0.05955   0.00000  Uiso   1.00
O269   O     0.97420   0.61113   0.05404   0.00000  Uiso   1.00
O270   O     0.30055   0.84251   0.25972   0.00000  Uiso   1.00
N271   N     0.12205   0.47189   0.93626   0.00000  Uiso   1.00
N272   N     0.01125   0.67426   0.21973   0.00000  Uiso   1.00
N273   N     0.24380   0.83915   0.36627   0.00000  Uiso   1.00
N274   N     0.14029   0.33554   0.83700   0.00000  Uiso   1.00
N275   N     0.02949   0.53791   0.12047   0.00000  Uiso   1.00
N276   N     0.26203   0.70280   0.26700   0.00000  Uiso   1.00
C277   C     0.62411   0.82624   0.48379   0.00000  Uiso   1.00
C278   C     0.62801   0.91519   0.39228   0.00000  Uiso   1.00
C279   C     0.62112   0.91404   0.26005   0.00000  Uiso   1.00
C280   C     0.62630   0.00316   0.19338   0.00000  Uiso   1.00
C281   C     0.63055   0.12804   0.04165   0.00000  Uiso   1.00
C282   C     0.59746   0.85943   0.58975   0.00000  Uiso   1.00
C283   C     0.56490   0.81138   0.62355   0.00000  Uiso   1.00
C284   C     0.54437   0.85356   0.72313   0.00000  Uiso   1.00
C285   C     0.50122   0.89182   0.87804   0.00000  Uiso   1.00
C286   C     0.66156   0.81399   0.54934   0.00000  Uiso   1.00
C287   C     0.68288   0.72772   0.54921   0.00000  Uiso   1.00
C288   C     0.71631   0.73164   0.61479   0.00000  Uiso   1.00
C289   C     0.77267   0.69935   0.70696   0.00000  Uiso   1.00
C290   C     0.64555   0.98658   0.60053   0.00000  Uiso   1.00
C291   C     0.63965   0.00228   0.45569   0.00000  Uiso   1.00
C292   C     0.64484   0.09144   0.38920   0.00000  Uiso   1.00
C293   C     0.63796   0.09041   0.25690   0.00000  Uiso   1.00
C294   C     0.60911   0.94652   0.65316   0.00000  Uiso   1.00
C295   C     0.58862   0.98878   0.75271   0.00000  Uiso   1.00
C296   C     0.55604   0.94081   0.78665   0.00000  Uiso   1.00
C297   C     0.67320   0.90108   0.61275   0.00000  Uiso   1.00
C298   C     0.70660   0.90513   0.67836   0.00000  Uiso   1.00
C299   C     0.72797   0.81889   0.67831   0.00000  Uiso   1.00
H300   H     0.61505   0.75844   0.43443   0.00000  Uiso   1.00
H301   H     0.61210   0.84662   0.21101   0.00000  Uiso   1.00
H302   H     0.55590   0.74398   0.57447   0.00000  Uiso   1.00
H303   H     0.67386   0.66034   0.50013   0.00000  Uiso   1.00
H304   H     0.61397   0.98281   0.99129   0.00000  Uiso   1.00
H305   H     0.49546   0.76635   0.75769   0.00000  Uiso   1.00
H306   H     0.74420   0.58999   0.60093   0.00000  Uiso   1.00
H307   H     0.65462   0.05439   0.64990   0.00000  Uiso   1.00
H308   H     0.65385   0.15882   0.43830   0.00000  Uiso   1.00
H309   H     0.59764   0.05617   0.80176   0.00000  Uiso   1.00
H310   H     0.71561   0.97254   0.72742   0.00000  Uiso   1.00
H311   H     0.64785   0.23620   0.17576   0.00000  Uiso   1.00
H312   H     0.52934   0.01974   0.94217   0.00000  Uiso   1.00
H313   H     0.77809   0.84338   0.78540   0.00000  Uiso   1.00
O314   O     0.62968   0.17287   0.94045   0.00000  Uiso   1.00
O315   O     0.47420   0.88887   0.94596   0.00000  Uiso   1.00
O316   O     0.80055   0.65749   0.74028   0.00000  Uiso   1.00
N317   N     0.62205   0.02811   0.06374   0.00000  Uiso   1.00
N318   N     0.51125   0.82574   0.78027   0.00000  Uiso   1.00
N319   N     0.74380   0.66085   0.63373   0.00000  Uiso   1.00
N320   N     0.64029   0.16446   0.16300   0.00000  Uiso   1.00
N321   N     0.52949   0.96209   0.87953   0.00000  Uiso   1.00
N322   N     0.76203   0.79720   0.73300   0.00000  Uiso   1.00
C323   C     0.87589   0.17376   0.98379   0.00000  Uiso   1.00
C324   C     0.87199   0.08481   0.89228   0.00000  Uiso   1.00
C325   C     0.87888   0.08596   0.76005   0.00000  Uiso   1.00
C326   C     0.87370   0.99684   0.69338   0.00000  Uiso   1.00
C327   C     0.86945   0.87196   0.54165   0.00000  Uiso   1.00
C328   C     0.90254   0.14057   0.08975   0.00000  Uiso   1.00
C329   C     0.93510   0.18862   0.12355   0.00000  Uiso   1.00
C330   C     0.95563   0.14644   0.22313   0.00000  Uiso   1.00
C331   C     0.99878   0.10818   0.37804   0.00000  Uiso   1.00
C332   C     0.83844   0.18601   0.04934   0.00000  Uiso   1.00
C333   C     0.81712   0.27228   0.04921   0.00000  Uiso   1.00
C334   C     0.78369   0.26836   0.11479   0.00000  Uiso   1.00
C335   C     0.72733   0.30065   0.20696   0.00000  Uiso   1.00
C336   C     0.85445   0.01342   0.10053   0.00000  Uiso   1.00
C337   C     0.86035   0.99772   0.95569   0.00000  Uiso   1.00
C338   C     0.85516   0.90856   0.88920   0.00000  Uiso   1.00
C339   C     0.86204   0.90959   0.75690   0.00000  Uiso   1.00
C340   C     0.89089   0.05348   0.15316   0.00000  Uiso   1.00
C341   C     0.91138   0.01122   0.25271   0.00000  Uiso   1.00
C342   C     0.94396   0.05919   0.28665   0.00000  Uiso   1.00
C343   C     0.82680   0.09892   0.11275   0.00000  Uiso   1.00
C344   C     0.79340   0.09487   0.17836   0.00000  Uiso   1.00
C345   C     0.77203   0.18111   0.17831   0.00000  Uiso   1.00
H346   H     0.88495   0.24156   0.93443   0.00000  Uiso   1.00
H347   H     0.88790   0.15338   0.71101   0.00000  Uiso   1.00
H348   H     0.94410   0.25602   0.07447   0.00000  Uiso   1.00
H349   H     0.82614   0.33966   0.00013   0.00000  Uiso   1.00
H350   H     0.88603   0.01719   0.49129   0.00000  Uiso   1.00
H351   H     0.00454   0.23365   0.25769   0.00000  Uiso   1.00
H352   H     0.75580   0.41001   0.10093   0.00000  Uiso   1.00
H353   H     0.84538   0.94561   0.14990   0.00000  Uiso   1.00
H354   H     0.84615   0.84118   0.93830   0.00000  Uiso   1.00
H355   H     0.90236   0.94383   0.30176   0.00000  Uiso   1.00
H356   H     0.78439   0.02746   0.22742   0.00000  Uiso   1.00
H357   H     0.85215   0.76380   0.67576   0.00000  Uiso   1.00
H358   H     0.97066   0.98026   0.44217   0.00000  Uiso   1.00
H359   H     0.72191   0.15662   0.28540   0.00000  Uiso   1.00
O360   O     0.87032   0.82713   0.44045   0.00000  Uiso   1.00
O361   O     0.02580   0.11113   0.44596   0.00000  Uiso   1.00
O362   O     0.69945   0.34251   0.24028   0.00000  Uiso   1.00
N363   N     0.87795   0.97189   0.56374   0.00000  Uiso   1.00
N364   N     0.98875   0.17426   0.28027   0.00000  Uiso   1.00
N365   N     0.75620   0.33915   0.13373   0.00000  Uiso   1.00
N366   N     0.85971   0.83554   0.66300   0.00000  Uiso   1.00
N367   N     0.97051   0.03791   0.37953   0.00000  Uiso   1.00
N368   N     0.73797   0.20280   0.23300   0.00000  Uiso   1.00
