data_job_06628
_audit_creation_date              2018-12-19
_audit_creation_method            'Materials Studio'
_symmetry_space_group_name_H-M    'P1'
_symmetry_Int_Tables_number       1
_symmetry_cell_setting            triclinic
loop_
_symmetry_equiv_pos_as_xyz
  x,y,z
_cell_length_a                    20.8862
_cell_length_b                    22.3794
_cell_length_c                    23.1502
_cell_angle_alpha                 68.3273
_cell_angle_beta                  116.0124
_cell_angle_gamma                 115.7869
loop_
_atom_site_label
_atom_site_type_symbol
_atom_site_fract_x
_atom_site_fract_y
_atom_site_fract_z
_atom_site_U_iso_or_equiv
_atom_site_adp_type
_atom_site_occupancy
C1     C     0.64240   0.93991   0.65564   0.00000  Uiso   1.00
C2     C     0.66854   0.01669   0.64792   0.00000  Uiso   1.00
C3     C     0.74292   0.05920   0.66414   0.00000  Uiso   1.00
C4     C     0.75511   0.12798   0.65339   0.00000  Uiso   1.00
C5     C     0.80484   0.24336   0.64539   0.00000  Uiso   1.00
C6     C     0.59251   0.90877   0.69860   0.00000  Uiso   1.00
C7     C     0.60297   0.86054   0.75742   0.00000  Uiso   1.00
C8     C     0.55114   0.83846   0.78933   0.00000  Uiso   1.00
C9     C     0.48281   0.78626   0.85999   0.00000  Uiso   1.00
C10    C     0.59032   0.92616   0.58756   0.00000  Uiso   1.00
C11    C     0.59893   0.89252   0.55303   0.00000  Uiso   1.00
C12    C     0.54525   0.88506   0.49145   0.00000  Uiso   1.00
C13    C     0.47352   0.85984   0.38971   0.00000  Uiso   1.00
C14    C     0.53176   0.98646   0.60769   0.00000  Uiso   1.00
C15    C     0.60844   0.04198   0.62188   0.00000  Uiso   1.00
C16    C     0.62052   0.11071   0.61110   0.00000  Uiso   1.00
C17    C     0.69491   0.15331   0.62730   0.00000  Uiso   1.00
C18    C     0.53242   0.93406   0.67256   0.00000  Uiso   1.00
C19    C     0.48056   0.91204   0.70438   0.00000  Uiso   1.00
C20    C     0.49094   0.86379   0.76324   0.00000  Uiso   1.00
C21    C     0.53023   0.95144   0.56151   0.00000  Uiso   1.00
C22    C     0.47653   0.94403   0.49998   0.00000  Uiso   1.00
C23    C     0.48505   0.91039   0.46537   0.00000  Uiso   1.00
H24    H     0.68918   0.92022   0.67592   0.00000  Uiso   1.00
H25    H     0.78941   0.03961   0.68430   0.00000  Uiso   1.00
H26    H     0.64947   0.84098   0.77756   0.00000  Uiso   1.00
H27    H     0.64544   0.87296   0.57320   0.00000  Uiso   1.00
H28    H     0.87404   0.18313   0.68213   0.00000  Uiso   1.00
H29    H     0.57896   0.76428   0.87877   0.00000  Uiso   1.00
H30    H     0.57044   0.83171   0.44783   0.00000  Uiso   1.00
H31    H     0.48497   0.00614   0.58742   0.00000  Uiso   1.00
H32    H     0.57400   0.13026   0.59095   0.00000  Uiso   1.00
H33    H     0.43407   0.93162   0.68421   0.00000  Uiso   1.00
H34    H     0.43003   0.96360   0.47985   0.00000  Uiso   1.00
H35    H     0.69920   0.25670   0.60637   0.00000  Uiso   1.00
H36    H     0.40412   0.83784   0.80301   0.00000  Uiso   1.00
H37    H     0.39561   0.90528   0.37206   0.00000  Uiso   1.00
O38    O     0.84887   0.30001   0.64819   0.00000  Uiso   1.00
O39    O     0.46173   0.75048   0.90616   0.00000  Uiso   1.00
O40    O     0.45057   0.83895   0.34077   0.00000  Uiso   1.00
N41    N     0.82067   0.18342   0.66380   0.00000  Uiso   1.00
N42    N     0.54480   0.79182   0.84766   0.00000  Uiso   1.00
N43    N     0.53683   0.85485   0.44477   0.00000  Uiso   1.00
N44    N     0.72659   0.22300   0.62303   0.00000  Uiso   1.00
N45    N     0.45072   0.83141   0.80689   0.00000  Uiso   1.00
N46    N     0.44275   0.89444   0.40400   0.00000  Uiso   1.00
C47    C     0.26736   0.92789   0.05095   0.00000  Uiso   1.00
C48    C     0.29979   0.99532   0.00777   0.00000  Uiso   1.00
C49    C     0.30818   0.05919   0.01087   0.00000  Uiso   1.00
C50    C     0.33900   0.11462   0.96713   0.00000  Uiso   1.00
C51    C     0.38603   0.22057   0.90694   0.00000  Uiso   1.00
C52    C     0.20192   0.88443   0.00377   0.00000  Uiso   1.00
C53    C     0.12802   0.85507   0.00350   0.00000  Uiso   1.00
C54    C     0.07646   0.81715   0.95639   0.00000  Uiso   1.00
C55    C     0.97155   0.75091   0.89002   0.00000  Uiso   1.00
C56    C     0.32766   0.89352   0.08429   0.00000  Uiso   1.00
C57    C     0.35949   0.87177   0.15173   0.00000  Uiso   1.00
C58    C     0.41378   0.84148   0.17241   0.00000  Uiso   1.00
C59    C     0.50411   0.78934   0.23106   0.00000  Uiso   1.00
C60    C     0.30718   0.91273   0.96777   0.00000  Uiso   1.00
C61    C     0.32142   0.98708   0.96259   0.00000  Uiso   1.00
C62    C     0.35224   0.04242   0.91884   0.00000  Uiso   1.00
C63    C     0.36068   0.10637   0.92187   0.00000  Uiso   1.00
C64    C     0.22354   0.87620   0.95859   0.00000  Uiso   1.00
C65    C     0.17208   0.83830   0.91147   0.00000  Uiso   1.00
C66    C     0.09813   0.80890   0.91113   0.00000  Uiso   1.00
C67    C     0.34930   0.88528   0.03911   0.00000  Uiso   1.00
C68    C     0.40355   0.85501   0.05970   0.00000  Uiso   1.00
C69    C     0.43545   0.83323   0.12715   0.00000  Uiso   1.00
H70    H     0.25052   0.93429   0.08612   0.00000  Uiso   1.00
H71    H     0.29143   0.06554   0.04584   0.00000  Uiso   1.00
H72    H     0.11130   0.86145   0.03847   0.00000  Uiso   1.00
H73    H     0.34273   0.87815   0.18667   0.00000  Uiso   1.00
H74    H     0.34630   0.20742   0.98123   0.00000  Uiso   1.00
H75    H     0.96650   0.77706   0.96573   0.00000  Uiso   1.00
H76    H     0.45451   0.81228   0.27824   0.00000  Uiso   1.00
H77    H     0.32402   0.90632   0.93259   0.00000  Uiso   1.00
H78    H     0.36897   0.03604   0.88388   0.00000  Uiso   1.00
H79    H     0.18884   0.83194   0.87652   0.00000  Uiso   1.00
H80    H     0.42027   0.84865   0.02472   0.00000  Uiso   1.00
H81    H     0.40923   0.18348   0.84978   0.00000  Uiso   1.00
H82    H     0.02943   0.75311   0.83428   0.00000  Uiso   1.00
H83    H     0.51744   0.78834   0.14679   0.00000  Uiso   1.00
O84    O     0.40598   0.28129   0.88622   0.00000  Uiso   1.00
O85    O     0.90770   0.71666   0.86589   0.00000  Uiso   1.00
O86    O     0.54797   0.76287   0.27589   0.00000  Uiso   1.00
N87    N     0.35496   0.18399   0.95699   0.00000  Uiso   1.00
N88    N     0.99986   0.78163   0.94249   0.00000  Uiso   1.00
N89    N     0.45610   0.81454   0.23466   0.00000  Uiso   1.00
N90    N     0.38882   0.17110   0.88626   0.00000  Uiso   1.00
N91    N     0.03372   0.76875   0.87175   0.00000  Uiso   1.00
N92    N     0.48996   0.80166   0.16393   0.00000  Uiso   1.00
C93    C     0.86129   0.94013   0.22700   0.00000  Uiso   1.00
C94    C     0.89394   0.01753   0.20953   0.00000  Uiso   1.00
C95    C     0.87329   0.05887   0.14752   0.00000  Uiso   1.00
C96    C     0.90980   0.12848   0.14168   0.00000  Uiso   1.00
C97    C     0.95213   0.24451   0.10629   0.00000  Uiso   1.00
C98    C     0.92821   0.91424   0.25737   0.00000  Uiso   1.00
C99    C     0.93637   0.86873   0.23559   0.00000  Uiso   1.00
C100   C     0.00172   0.85138   0.27002   0.00000  Uiso   1.00
C101   C     0.09723   0.80702   0.30893   0.00000  Uiso   1.00
C102   C     0.83133   0.92296   0.28257   0.00000  Uiso   1.00
C103   C     0.75804   0.88477   0.28198   0.00000  Uiso   1.00
C104   C     0.74184   0.87475   0.33763   0.00000  Uiso   1.00
C105   C     0.68693   0.84393   0.41566   0.00000  Uiso   1.00
C106   C     0.96286   0.99023   0.32690   0.00000  Uiso   1.00
C107   C     0.94911   0.04474   0.26379   0.00000  Uiso   1.00
C108   C     0.98566   0.11430   0.25804   0.00000  Uiso   1.00
C109   C     0.96506   0.15574   0.19604   0.00000  Uiso   1.00
C110   C     0.98338   0.94145   0.31163   0.00000  Uiso   1.00
C111   C     0.04874   0.92416   0.34611   0.00000  Uiso   1.00
C112   C     0.05699   0.87864   0.32438   0.00000  Uiso   1.00
C113   C     0.88650   0.95017   0.33682   0.00000  Uiso   1.00
C114   C     0.87041   0.94020   0.39250   0.00000  Uiso   1.00
C115   C     0.79711   0.90201   0.39199   0.00000  Uiso   1.00
H116   H     0.81835   0.91895   0.18476   0.00000  Uiso   1.00
H117   H     0.83060   0.03779   0.10554   0.00000  Uiso   1.00
H118   H     0.89366   0.84768   0.19360   0.00000  Uiso   1.00
H119   H     0.71537   0.86372   0.23998   0.00000  Uiso   1.00
H120   H     0.86853   0.18156   0.04164   0.00000  Uiso   1.00
H121   H     0.00149   0.78067   0.22732   0.00000  Uiso   1.00
H122   H     0.62552   0.81450   0.32513   0.00000  Uiso   1.00
H123   H     0.00581   0.01141   0.36914   0.00000  Uiso   1.00
H124   H     0.02835   0.13534   0.30004   0.00000  Uiso   1.00
H125   H     0.09141   0.94522   0.38810   0.00000  Uiso   1.00
H126   H     0.91312   0.96127   0.43447   0.00000  Uiso   1.00
H127   H     0.02903   0.26073   0.19950   0.00000  Uiso   1.00
H128   H     0.16199   0.85984   0.38518   0.00000  Uiso   1.00
H129   H     0.78602   0.89367   0.48298   0.00000  Uiso   1.00
O130   O     0.96024   0.30099   0.07178   0.00000  Uiso   1.00
O131   O     0.13467   0.77504   0.31540   0.00000  Uiso   1.00
O132   O     0.64141   0.81942   0.44371   0.00000  Uiso   1.00
N133   N     0.90320   0.18318   0.08828   0.00000  Uiso   1.00
N134   N     0.02752   0.80839   0.26188   0.00000  Uiso   1.00
N135   N     0.67602   0.84000   0.35332   0.00000  Uiso   1.00
N136   N     0.98957   0.22578   0.17322   0.00000  Uiso   1.00
N137   N     0.11388   0.85099   0.34682   0.00000  Uiso   1.00
N138   N     0.76238   0.88260   0.43826   0.00000  Uiso   1.00
C139   C     0.45124   0.38890   0.14310   0.00000  Uiso   1.00
C140   C     0.48709   0.46606   0.13229   0.00000  Uiso   1.00
C141   C     0.47626   0.50797   0.15643   0.00000  Uiso   1.00
C142   C     0.51414   0.57723   0.14111   0.00000  Uiso   1.00
C143   C     0.56269   0.69303   0.13015   0.00000  Uiso   1.00
C144   C     0.51635   0.36052   0.17432   0.00000  Uiso   1.00
C145   C     0.53010   0.31369   0.23380   0.00000  Uiso   1.00
C146   C     0.59261   0.29410   0.25385   0.00000  Uiso   1.00
C147   C     0.68655   0.24601   0.30812   0.00000  Uiso   1.00
C148   C     0.40958   0.37335   0.07462   0.00000  Uiso   1.00
C149   C     0.33356   0.33728   0.05028   0.00000  Uiso   1.00
C150   C     0.30618   0.32847   0.98640   0.00000  Uiso   1.00
C151   C     0.23435   0.30030   0.88588   0.00000  Uiso   1.00
C152   C     0.53778   0.43739   0.07295   0.00000  Uiso   1.00
C153   C     0.53410   0.49240   0.09419   0.00000  Uiso   1.00
C154   C     0.57200   0.56162   0.07883   0.00000  Uiso   1.00
C155   C     0.56123   0.60362   0.10294   0.00000  Uiso   1.00
C156   C     0.56335   0.38686   0.13622   0.00000  Uiso   1.00
C157   C     0.62585   0.36734   0.15619   0.00000  Uiso   1.00
C158   C     0.63970   0.32049   0.21569   0.00000  Uiso   1.00
C159   C     0.45658   0.39969   0.03652   0.00000  Uiso   1.00
C160   C     0.42931   0.39093   0.97268   0.00000  Uiso   1.00
C161   C     0.35327   0.35486   0.94824   0.00000  Uiso   1.00
H162   H     0.41464   0.36839   0.17276   0.00000  Uiso   1.00
H163   H     0.43988   0.48757   0.18592   0.00000  Uiso   1.00
H164   H     0.49371   0.29331   0.26326   0.00000  Uiso   1.00
H165   H     0.29721   0.31690   0.07978   0.00000  Uiso   1.00
H166   H     0.48861   0.63130   0.18372   0.00000  Uiso   1.00
H167   H     0.60210   0.22169   0.34681   0.00000  Uiso   1.00
H168   H     0.18773   0.27143   0.95989   0.00000  Uiso   1.00
H169   H     0.57437   0.45790   0.04329   0.00000  Uiso   1.00
H170   H     0.60838   0.58199   0.04934   0.00000  Uiso   1.00
H171   H     0.66221   0.38773   0.12670   0.00000  Uiso   1.00
H172   H     0.46570   0.41132   0.94321   0.00000  Uiso   1.00
H173   H     0.62537   0.70794   0.07288   0.00000  Uiso   1.00
H174   H     0.73886   0.29832   0.23596   0.00000  Uiso   1.00
H175   H     0.32449   0.34806   0.84904   0.00000  Uiso   1.00
O176   O     0.57650   0.74963   0.13463   0.00000  Uiso   1.00
O177   O     0.72538   0.21222   0.34859   0.00000  Uiso   1.00
O178   O     0.18174   0.27749   0.84096   0.00000  Uiso   1.00
N179   N     0.51612   0.63231   0.15679   0.00000  Uiso   1.00
N180   N     0.62224   0.24935   0.30927   0.00000  Uiso   1.00
N181   N     0.23484   0.29584   0.94754   0.00000  Uiso   1.00
N182   N     0.58971   0.67355   0.09715   0.00000  Uiso   1.00
N183   N     0.69582   0.29059   0.24963   0.00000  Uiso   1.00
N184   N     0.30843   0.33708   0.88790   0.00000  Uiso   1.00
C185   C     0.20747   0.45615   0.53324   0.00000  Uiso   1.00
C186   C     0.21449   0.53130   0.50958   0.00000  Uiso   1.00
C187   C     0.28101   0.58534   0.52294   0.00000  Uiso   1.00
C188   C     0.27556   0.65032   0.49678   0.00000  Uiso   1.00
C189   C     0.29704   0.76541   0.46581   0.00000  Uiso   1.00
C190   C     0.16877   0.42749   0.47142   0.00000  Uiso   1.00
C191   C     0.19685   0.39424   0.45270   0.00000  Uiso   1.00
C192   C     0.15291   0.37183   0.39441   0.00000  Uiso   1.00
C193   C     0.10339   0.32572   0.30422   0.00000  Uiso   1.00
C194   C     0.15145   0.42289   0.57060   0.00000  Uiso   1.00
C195   C     0.16495   0.38576   0.63527   0.00000  Uiso   1.00
C196   C     0.10642   0.35946   0.66048   0.00000  Uiso   1.00
C197   C     0.03000   0.30620   0.72429   0.00000  Uiso   1.00
C198   C     0.07950   0.47546   0.46302   0.00000  Uiso   1.00
C199   C     0.14498   0.54178   0.47144   0.00000  Uiso   1.00
C200   C     0.13943   0.60670   0.44525   0.00000  Uiso   1.00
C201   C     0.20593   0.66083   0.45857   0.00000  Uiso   1.00
C202   C     0.09927   0.43798   0.43328   0.00000  Uiso   1.00
C203   C     0.05527   0.41561   0.37501   0.00000  Uiso   1.00
C204   C     0.08328   0.38234   0.35620   0.00000  Uiso   1.00
C205   C     0.08194   0.43338   0.53246   0.00000  Uiso   1.00
C206   C     0.02338   0.40712   0.55758   0.00000  Uiso   1.00
C207   C     0.03679   0.36996   0.62227   0.00000  Uiso   1.00
H208   H     0.26158   0.44798   0.56293   0.00000  Uiso   1.00
H209   H     0.33479   0.57720   0.55246   0.00000  Uiso   1.00
H210   H     0.25063   0.38613   0.48222   0.00000  Uiso   1.00
H211   H     0.21874   0.37765   0.66477   0.00000  Uiso   1.00
H212   H     0.38530   0.72509   0.52400   0.00000  Uiso   1.00
H213   H     0.20785   0.32219   0.37593   0.00000  Uiso   1.00
H214   H     0.14060   0.30430   0.76085   0.00000  Uiso   1.00
H215   H     0.02539   0.48362   0.43333   0.00000  Uiso   1.00
H216   H     0.08564   0.61480   0.41574   0.00000  Uiso   1.00
H217   H     0.00149   0.42373   0.34551   0.00000  Uiso   1.00
H218   H     0.96960   0.41525   0.52805   0.00000  Uiso   1.00
H219   H     0.18308   0.75561   0.41303   0.00000  Uiso   1.00
H220   H     0.00563   0.35270   0.26496   0.00000  Uiso   1.00
H221   H     0.93839   0.33482   0.64988   0.00000  Uiso   1.00
O222   O     0.32809   0.82600   0.45926   0.00000  Uiso   1.00
O223   O     0.09528   0.29739   0.26501   0.00000  Uiso   1.00
O224   O     0.00705   0.27393   0.77002   0.00000  Uiso   1.00
N225   N     0.32944   0.71427   0.50031   0.00000  Uiso   1.00
N226   N     0.16354   0.33759   0.36186   0.00000  Uiso   1.00
N227   N     0.10066   0.32085   0.72173   0.00000  Uiso   1.00
N228   N     0.22063   0.73069   0.44060   0.00000  Uiso   1.00
N229   N     0.05473   0.35401   0.30215   0.00000  Uiso   1.00
N230   N     0.99185   0.33727   0.66202   0.00000  Uiso   1.00
C231   C     0.81183   0.39802   0.74017   0.00000  Uiso   1.00
C232   C     0.83274   0.47526   0.72311   0.00000  Uiso   1.00
C233   C     0.83836   0.51777   0.66295   0.00000  Uiso   1.00
C234   C     0.85819   0.58701   0.65717   0.00000  Uiso   1.00
C235   C     0.88853   0.70304   0.62268   0.00000  Uiso   1.00
C236   C     0.74367   0.37005   0.76270   0.00000  Uiso   1.00
C237   C     0.67441   0.32409   0.73584   0.00000  Uiso   1.00
C238   C     0.61927   0.30475   0.76340   0.00000  Uiso   1.00
C239   C     0.51136   0.25740   0.79041   0.00000  Uiso   1.00
C240   C     0.87635   0.38120   0.80097   0.00000  Uiso   1.00
C241   C     0.91865   0.34460   0.80629   0.00000  Uiso   1.00
C242   C     0.97520   0.33464   0.86607   0.00000  Uiso   1.00
C243   C     0.07330   0.30459   0.95249   0.00000  Uiso   1.00
C244   C     0.83705   0.44539   0.83688   0.00000  Uiso   1.00
C245   C     0.84644   0.50100   0.77564   0.00000  Uiso   1.00
C246   C     0.86627   0.57019   0.76995   0.00000  Uiso   1.00
C247   C     0.87192   0.61279   0.70980   0.00000  Uiso   1.00
C248   C     0.75737   0.39578   0.81523   0.00000  Uiso   1.00
C249   C     0.70232   0.37651   0.84284   0.00000  Uiso   1.00
C250   C     0.63299   0.33053   0.81603   0.00000  Uiso   1.00
C251   C     0.89006   0.40694   0.85350   0.00000  Uiso   1.00
C252   C     0.94656   0.39702   0.91329   0.00000  Uiso   1.00
C253   C     0.98893   0.36041   0.91870   0.00000  Uiso   1.00
H254   H     0.80116   0.37798   0.69927   0.00000  Uiso   1.00
H255   H     0.82774   0.49783   0.62231   0.00000  Uiso   1.00
H256   H     0.66383   0.30418   0.69519   0.00000  Uiso   1.00
H257   H     0.90803   0.32469   0.76562   0.00000  Uiso   1.00
H258   H     0.86323   0.64206   0.56014   0.00000  Uiso   1.00
H259   H     0.51762   0.23371   0.71383   0.00000  Uiso   1.00
H260   H     0.03256   0.27696   0.86236   0.00000  Uiso   1.00
H261   H     0.84772   0.46543   0.87778   0.00000  Uiso   1.00
H262   H     0.87686   0.59009   0.81061   0.00000  Uiso   1.00
H263   H     0.71294   0.39643   0.88350   0.00000  Uiso   1.00
H264   H     0.95714   0.41694   0.95393   0.00000  Uiso   1.00
H265   H     0.90310   0.71694   0.71297   0.00000  Uiso   1.00
H266   H     0.55748   0.30858   0.86667   0.00000  Uiso   1.00
H267   H     0.07242   0.35184   0.01519   0.00000  Uiso   1.00
O268   O     0.90147   0.75993   0.58914   0.00000  Uiso   1.00
O269   O     0.44804   0.22417   0.79079   0.00000  Uiso   1.00
O270   O     0.12363   0.28092   0.98565   0.00000  Uiso   1.00
N271   N     0.86863   0.64258   0.60533   0.00000  Uiso   1.00
N272   N     0.54550   0.26080   0.74902   0.00000  Uiso   1.00
N273   N     0.02691   0.30122   0.88788   0.00000  Uiso   1.00
N274   N     0.89008   0.68287   0.68757   0.00000  Uiso   1.00
N275   N     0.56695   0.30109   0.83126   0.00000  Uiso   1.00
N276   N     0.04836   0.34151   0.97012   0.00000  Uiso   1.00
C277   C     0.33901   0.14682   0.18978   0.00000  Uiso   1.00
C278   C     0.28435   0.07507   0.18437   0.00000  Uiso   1.00
C279   C     0.20736   0.05798   0.15066   0.00000  Uiso   1.00
C280   C     0.16716   0.98947   0.15156   0.00000  Uiso   1.00
C281   C     0.07689   0.88561   0.13806   0.00000  Uiso   1.00
C282   C     0.39981   0.15765   0.16384   0.00000  Uiso   1.00
C283   C     0.41989   0.20999   0.11287   0.00000  Uiso   1.00
C284   C     0.47690   0.21100   0.09650   0.00000  Uiso   1.00
C285   C     0.56591   0.23537   0.05115   0.00000  Uiso   1.00
C286   C     0.37777   0.14520   0.26330   0.00000  Uiso   1.00
C287   C     0.37935   0.18709   0.29596   0.00000  Uiso   1.00
C288   C     0.41783   0.17763   0.36333   0.00000  Uiso   1.00
C289   C     0.47263   0.18267   0.47241   0.00000  Uiso   1.00
C290   C     0.40454   0.05556   0.25134   0.00000  Uiso   1.00
C291   C     0.31995   0.02550   0.21781   0.00000  Uiso   1.00
C292   C     0.27986   0.95700   0.21877   0.00000  Uiso   1.00
C293   C     0.20282   0.93981   0.18507   0.00000  Uiso   1.00
C294   C     0.43540   0.10808   0.19728   0.00000  Uiso   1.00
C295   C     0.49240   0.10902   0.18098   0.00000  Uiso   1.00
C296   C     0.51256   0.16134   0.13000   0.00000  Uiso   1.00
C297   C     0.41337   0.09563   0.29674   0.00000  Uiso   1.00
C298   C     0.45185   0.08611   0.36407   0.00000  Uiso   1.00
C299   C     0.45349   0.12797   0.39683   0.00000  Uiso   1.00
H300   H     0.31130   0.18542   0.16374   0.00000  Uiso   1.00
H301   H     0.17983   0.09636   0.12478   0.00000  Uiso   1.00
H302   H     0.39234   0.24835   0.08701   0.00000  Uiso   1.00
H303   H     0.35180   0.22544   0.27007   0.00000  Uiso   1.00
H304   H     0.04978   0.97576   0.09631   0.00000  Uiso   1.00
H305   H     0.49788   0.29626   0.01668   0.00000  Uiso   1.00
H306   H     0.41241   0.24796   0.40270   0.00000  Uiso   1.00
H307   H     0.43226   0.01696   0.27738   0.00000  Uiso   1.00
H308   H     0.30742   0.91865   0.24465   0.00000  Uiso   1.00
H309   H     0.51993   0.07065   0.20687   0.00000  Uiso   1.00
H310   H     0.47939   0.04774   0.38994   0.00000  Uiso   1.00
H311   H     0.15334   0.83153   0.19360   0.00000  Uiso   1.00
H312   H     0.60144   0.15203   0.11397   0.00000  Uiso   1.00
H313   H     0.51596   0.10373   0.49999   0.00000  Uiso   1.00
O314   O     0.01726   0.84201   0.12136   0.00000  Uiso   1.00
O315   O     0.60516   0.26251   0.01689   0.00000  Uiso   1.00
O316   O     0.49302   0.19913   0.52334   0.00000  Uiso   1.00
N317   N     0.09128   0.95530   0.12371   0.00000  Uiso   1.00
N318   N     0.51022   0.25495   0.04925   0.00000  Uiso   1.00
N319   N     0.43032   0.20980   0.41014   0.00000  Uiso   1.00
N320   N     0.14700   0.87769   0.17606   0.00000  Uiso   1.00
N321   N     0.56594   0.17734   0.10160   0.00000  Uiso   1.00
N322   N     0.48605   0.13219   0.46249   0.00000  Uiso   1.00
C323   C     0.66198   0.09896   0.84671   0.00000  Uiso   1.00
C324   C     0.65243   0.02708   0.88949   0.00000  Uiso   1.00
C325   C     0.69038   0.98504   0.89806   0.00000  Uiso   1.00
C326   C     0.67374   0.92109   0.93922   0.00000  Uiso   1.00
C327   C     0.66696   0.81271   0.00090   0.00000  Uiso   1.00
C328   C     0.68345   0.14456   0.89206   0.00000  Uiso   1.00
C329   C     0.74746   0.20130   0.90278   0.00000  Uiso   1.00
C330   C     0.75692   0.23625   0.94610   0.00000  Uiso   1.00
C331   C     0.79826   0.31028   0.01172   0.00000  Uiso   1.00
C332   C     0.58357   0.09863   0.79823   0.00000  Uiso   1.00
C333   C     0.56361   0.11677   0.73006   0.00000  Uiso   1.00
C334   C     0.48897   0.11306   0.69439   0.00000  Uiso   1.00
C335   C     0.37524   0.11578   0.61434   0.00000  Uiso   1.00
C336   C     0.56494   0.06015   0.90457   0.00000  Uiso   1.00
C337   C     0.59972   0.00601   0.92092   0.00000  Uiso   1.00
C338   C     0.58301   0.94210   0.96208   0.00000  Uiso   1.00
C339   C     0.62093   0.89997   0.97071   0.00000  Uiso   1.00
C340   C     0.63074   0.12349   0.92348   0.00000  Uiso   1.00
C341   C     0.64009   0.15836   0.96679   0.00000  Uiso   1.00
C342   C     0.70411   0.21513   0.97758   0.00000  Uiso   1.00
C343   C     0.53086   0.07755   0.82966   0.00000  Uiso   1.00
C344   C     0.45624   0.07382   0.79409   0.00000  Uiso   1.00
C345   C     0.43617   0.09194   0.72588   0.00000  Uiso   1.00
H346   H     0.70302   0.11537   0.82224   0.00000  Uiso   1.00
H347   H     0.73118   0.00137   0.87373   0.00000  Uiso   1.00
H348   H     0.78824   0.21760   0.87844   0.00000  Uiso   1.00
H349   H     0.60441   0.13308   0.70576   0.00000  Uiso   1.00
H350   H     0.73916   0.86570   0.94470   0.00000  Uiso   1.00
H351   H     0.85948   0.32164   0.95462   0.00000  Uiso   1.00
H352   H     0.47184   0.14341   0.59048   0.00000  Uiso   1.00
H353   H     0.52390   0.04374   0.92904   0.00000  Uiso   1.00
H354   H     0.54222   0.92580   0.98639   0.00000  Uiso   1.00
H355   H     0.59929   0.14203   0.99110   0.00000  Uiso   1.00
H356   H     0.41546   0.05751   0.81842   0.00000  Uiso   1.00
H357   H     0.58580   0.80436   0.03614   0.00000  Uiso   1.00
H358   H     0.70612   0.26031   0.04606   0.00000  Uiso   1.00
H359   H     0.31848   0.08207   0.68192   0.00000  Uiso   1.00
O360   O     0.67779   0.75875   0.02624   0.00000  Uiso   1.00
O361   O     0.83563   0.35694   0.03924   0.00000  Uiso   1.00
O362   O     0.32706   0.12310   0.56150   0.00000  Uiso   1.00
N363   N     0.70054   0.86744   0.95834   0.00000  Uiso   1.00
N364   N     0.81304   0.29372   0.96762   0.00000  Uiso   1.00
N365   N     0.45063   0.12710   0.62718   0.00000  Uiso   1.00
N366   N     0.61802   0.83444   0.00754   0.00000  Uiso   1.00
N367   N     0.73051   0.26071   0.01682   0.00000  Uiso   1.00
N368   N     0.36811   0.09410   0.67639   0.00000  Uiso   1.00
C369   C     0.11026   0.14774   0.61017   0.00000  Uiso   1.00
C370   C     0.08557   0.07031   0.62490   0.00000  Uiso   1.00
C371   C     0.10283   0.02802   0.68691   0.00000  Uiso   1.00
C372   C     0.07490   0.95855   0.69000   0.00000  Uiso   1.00
C373   C     0.04316   0.84230   0.72153   0.00000  Uiso   1.00
C374   C     0.03812   0.16623   0.57260   0.00000  Uiso   1.00
C375   C     0.01548   0.20460   0.59063   0.00000  Uiso   1.00
C376   C     0.94761   0.21589   0.54969   0.00000  Uiso   1.00
C377   C     0.84223   0.24860   0.50000   0.00000  Uiso   1.00
C378   C     0.15208   0.17368   0.56122   0.00000  Uiso   1.00
C379   C     0.22526   0.21832   0.56967   0.00000  Uiso   1.00
C380   C     0.25333   0.23589   0.51914   0.00000  Uiso   1.00
C381   C     0.32489   0.28016   0.45178   0.00000  Uiso   1.00
C382   C     0.02998   0.09958   0.50540   0.00000  Uiso   1.00
C383   C     0.04196   0.04415   0.56799   0.00000  Uiso   1.00
C384   C     0.01401   0.97473   0.57099   0.00000  Uiso   1.00
C385   C     0.03122   0.93234   0.63299   0.00000  Uiso   1.00
C386   C     0.99451   0.14007   0.51569   0.00000  Uiso   1.00
C387   C     0.92666   0.15131   0.47471   0.00000  Uiso   1.00
C388   C     0.90393   0.18968   0.49268   0.00000  Uiso   1.00
C389   C     0.10848   0.14752   0.50431   0.00000  Uiso   1.00
C390   C     0.13644   0.16503   0.45376   0.00000  Uiso   1.00
C391   C     0.20965   0.20969   0.46213   0.00000  Uiso   1.00
H392   H     0.14421   0.16811   0.65447   0.00000  Uiso   1.00
H393   H     0.13657   0.04828   0.73094   0.00000  Uiso   1.00
H394   H     0.04924   0.22484   0.63467   0.00000  Uiso   1.00
H395   H     0.25898   0.23856   0.61372   0.00000  Uiso   1.00
H396   H     0.10884   0.90389   0.79061   0.00000  Uiso   1.00
H397   H     0.92472   0.27620   0.58762   0.00000  Uiso   1.00
H398   H     0.36701   0.30512   0.54343   0.00000  Uiso   1.00
H399   H     0.99603   0.07921   0.46109   0.00000  Uiso   1.00
H400   H     0.98027   0.95450   0.52694   0.00000  Uiso   1.00
H401   H     0.89294   0.13106   0.43068   0.00000  Uiso   1.00
H402   H     0.10268   0.14477   0.40972   0.00000  Uiso   1.00
H403   H     0.98198   0.82777   0.62505   0.00000  Uiso   1.00
H404   H     0.79786   0.20008   0.42205   0.00000  Uiso   1.00
H405   H     0.24015   0.22900   0.37787   0.00000  Uiso   1.00
O406   O     0.03769   0.78540   0.75464   0.00000  Uiso   1.00
O407   O     0.79614   0.27386   0.48831   0.00000  Uiso   1.00
O408   O     0.37641   0.31180   0.43035   0.00000  Uiso   1.00
N409   N     0.08116   0.90309   0.74261   0.00000  Uiso   1.00
N410   N     0.90902   0.25117   0.55283   0.00000  Uiso   1.00
N411   N     0.32251   0.27822   0.51151   0.00000  Uiso   1.00
N412   N     0.01290   0.86214   0.65352   0.00000  Uiso   1.00
N413   N     0.84075   0.21021   0.46374   0.00000  Uiso   1.00
N414   N     0.25425   0.23726   0.42242   0.00000  Uiso   1.00
C415   C     0.53879   0.68175   0.68546   0.00000  Uiso   1.00
C416   C     0.50688   0.60715   0.68182   0.00000  Uiso   1.00
C417   C     0.50848   0.58174   0.63628   0.00000  Uiso   1.00
C418   C     0.47627   0.51194   0.64118   0.00000  Uiso   1.00
C419   C     0.43165   0.40261   0.62810   0.00000  Uiso   1.00
C420   C     0.47364   0.69927   0.68096   0.00000  Uiso   1.00
C421   C     0.44731   0.75133   0.63470   0.00000  Uiso   1.00
C422   C     0.38713   0.75908   0.63888   0.00000  Uiso   1.00
C423   C     0.29096   0.79281   0.62449   0.00000  Uiso   1.00
C424   C     0.59468   0.68484   0.75504   0.00000  Uiso   1.00
C425   C     0.67012   0.72478   0.77108   0.00000  Uiso   1.00
C426   C     0.71185   0.72040   0.83763   0.00000  Uiso   1.00
C427   C     0.80361   0.73172   0.93827   0.00000  Uiso   1.00
C428   C     0.47875   0.60295   0.77514   0.00000  Uiso   1.00
C429   C     0.47426   0.56435   0.73053   0.00000  Uiso   1.00
C430   C     0.44205   0.49456   0.73550   0.00000  Uiso   1.00
C431   C     0.44360   0.46906   0.68997   0.00000  Uiso   1.00
C432   C     0.44103   0.65647   0.72967   0.00000  Uiso   1.00
C433   C     0.38088   0.66415   0.73392   0.00000  Uiso   1.00
C434   C     0.35446   0.71621   0.68767   0.00000  Uiso   1.00
C435   C     0.56207   0.64204   0.80375   0.00000  Uiso   1.00
C436   C     0.60369   0.63760   0.87029   0.00000  Uiso   1.00
C437   C     0.67918   0.67752   0.88643   0.00000  Uiso   1.00
H438   H     0.56417   0.71508   0.64754   0.00000  Uiso   1.00
H439   H     0.53371   0.61489   0.59859   0.00000  Uiso   1.00
H440   H     0.47256   0.78445   0.59702   0.00000  Uiso   1.00
H441   H     0.69534   0.75790   0.73337   0.00000  Uiso   1.00
H442   H     0.48554   0.48493   0.56579   0.00000  Uiso   1.00
H443   H     0.35662   0.84248   0.56249   0.00000  Uiso   1.00
H444   H     0.82638   0.78650   0.85002   0.00000  Uiso   1.00
H445   H     0.45335   0.56963   0.81306   0.00000  Uiso   1.00
H446   H     0.41682   0.46145   0.77320   0.00000  Uiso   1.00
H447   H     0.35566   0.63102   0.77162   0.00000  Uiso   1.00
H448   H     0.57844   0.60447   0.90797   0.00000  Uiso   1.00
H449   H     0.39066   0.36040   0.70751   0.00000  Uiso   1.00
H450   H     0.26173   0.71796   0.70420   0.00000  Uiso   1.00
H451   H     0.73150   0.66197   0.99173   0.00000  Uiso   1.00
O452   O     0.41604   0.35413   0.60743   0.00000  Uiso   1.00
O453   O     0.24691   0.82323   0.60310   0.00000  Uiso   1.00
O454   O     0.86323   0.74978   0.98032   0.00000  Uiso   1.00
N455   N     0.46824   0.47047   0.60462   0.00000  Uiso   1.00
N456   N     0.34769   0.80475   0.60153   0.00000  Uiso   1.00
N457   N     0.78688   0.75242   0.87034   0.00000  Uiso   1.00
N458   N     0.41718   0.40346   0.68088   0.00000  Uiso   1.00
N459   N     0.29664   0.73774   0.67778   0.00000  Uiso   1.00
N460   N     0.73583   0.68542   0.94660   0.00000  Uiso   1.00
C461   C     0.82191   0.64188   0.29222   0.00000  Uiso   1.00
C462   C     0.79053   0.56707   0.32363   0.00000  Uiso   1.00
C463   C     0.71475   0.52928   0.31261   0.00000  Uiso   1.00
C464   C     0.69759   0.46160   0.34608   0.00000  Uiso   1.00
C465   C     0.64024   0.34983   0.38835   0.00000  Uiso   1.00
C466   C     0.87514   0.67742   0.34916   0.00000  Uiso   1.00
C467   C     0.87051   0.73241   0.35959   0.00000  Uiso   1.00
C468   C     0.92458   0.75762   0.41454   0.00000  Uiso   1.00
C469   C     0.99862   0.81720   0.49641   0.00000  Uiso   1.00
C470   C     0.87153   0.64483   0.25805   0.00000  Uiso   1.00
C471   C     0.86388   0.67245   0.19188   0.00000  Uiso   1.00
C472   C     0.91492   0.67024   0.17012   0.00000  Uiso   1.00
C473   C     0.98336   0.67922   0.11053   0.00000  Uiso   1.00
C474   C     0.92619   0.58888   0.37126   0.00000  Uiso   1.00
C475   C     0.84717   0.53828   0.36656   0.00000  Uiso   1.00
C476   C     0.83012   0.47064   0.40006   0.00000  Uiso   1.00
C477   C     0.75433   0.43276   0.38909   0.00000  Uiso   1.00
C478   C     0.93178   0.64863   0.39209   0.00000  Uiso   1.00
C479   C     0.98587   0.67377   0.44704   0.00000  Uiso   1.00
C480   C     0.98132   0.72878   0.45755   0.00000  Uiso   1.00
C481   C     0.92817   0.61604   0.30098   0.00000  Uiso   1.00
C482   C     0.97924   0.61379   0.27933   0.00000  Uiso   1.00
C483   C     0.97166   0.64139   0.21313   0.00000  Uiso   1.00
H484   H     0.77782   0.66430   0.25880   0.00000  Uiso   1.00
H485   H     0.67094   0.55159   0.27939   0.00000  Uiso   1.00
H486   H     0.82667   0.75469   0.32635   0.00000  Uiso   1.00
H487   H     0.82004   0.69472   0.15867   0.00000  Uiso   1.00
H488   H     0.57741   0.41393   0.32116   0.00000  Uiso   1.00
H489   H     0.90581   0.84219   0.42018   0.00000  Uiso   1.00
H490   H     0.89183   0.71575   0.06658   0.00000  Uiso   1.00
H491   H     0.97029   0.56646   0.40469   0.00000  Uiso   1.00
H492   H     0.87396   0.44837   0.43328   0.00000  Uiso   1.00
H493   H     0.02969   0.65148   0.48025   0.00000  Uiso   1.00
H494   H     0.02306   0.59151   0.31256   0.00000  Uiso   1.00
H495   H     0.74219   0.33016   0.44607   0.00000  Uiso   1.00
H496   H     0.07059   0.75843   0.54509   0.00000  Uiso   1.00
H497   H     0.05660   0.63198   0.19149   0.00000  Uiso   1.00
O498   O     0.59296   0.29613   0.39981   0.00000  Uiso   1.00
O499   O     0.02381   0.85801   0.52971   0.00000  Uiso   1.00
O500   O     0.00546   0.69211   0.06580   0.00000  Uiso   1.00
N501   N     0.62941   0.41042   0.34662   0.00000  Uiso   1.00
N502   N     0.93643   0.81081   0.43921   0.00000  Uiso   1.00
N503   N     0.92337   0.69261   0.10863   0.00000  Uiso   1.00
N504   N     0.71808   0.36534   0.41383   0.00000  Uiso   1.00
N505   N     0.02510   0.76574   0.50642   0.00000  Uiso   1.00
N506   N     0.01204   0.64754   0.17584   0.00000  Uiso   1.00
C507   C     0.27983   0.59850   0.12749   0.00000  Uiso   1.00
C508   C     0.31346   0.56259   0.19811   0.00000  Uiso   1.00
C509   C     0.36233   0.59397   0.25050   0.00000  Uiso   1.00
C510   C     0.38679   0.55219   0.31125   0.00000  Uiso   1.00
C511   C     0.44263   0.50717   0.41968   0.00000  Uiso   1.00
C512   C     0.30171   0.57813   0.08446   0.00000  Uiso   1.00
C513   C     0.34070   0.62259   0.04129   0.00000  Uiso   1.00
C514   C     0.35526   0.59390   0.00637   0.00000  Uiso   1.00
C515   C     0.39282   0.57301   0.93831   0.00000  Uiso   1.00
C516   C     0.19454   0.56569   0.11001   0.00000  Uiso   1.00
C517   C     0.14340   0.59969   0.08830   0.00000  Uiso   1.00
C518   C     0.06773   0.56051   0.07487   0.00000  Uiso   1.00
C519   C     0.93889   0.52030   0.04648   0.00000  Uiso   1.00
C520   C     0.23638   0.46848   0.14223   0.00000  Uiso   1.00
C521   C     0.28986   0.49196   0.20611   0.00000  Uiso   1.00
C522   C     0.31425   0.45012   0.26680   0.00000  Uiso   1.00
C523   C     0.36315   0.48144   0.31927   0.00000  Uiso   1.00
C524   C     0.27811   0.50751   0.09246   0.00000  Uiso   1.00
C525   C     0.29262   0.47874   0.05759   0.00000  Uiso   1.00
C526   C     0.33162   0.52315   0.01438   0.00000  Uiso   1.00
C527   C     0.17094   0.49506   0.11801   0.00000  Uiso   1.00
C528   C     0.09533   0.45583   0.10461   0.00000  Uiso   1.00
C529   C     0.04409   0.48976   0.08289   0.00000  Uiso   1.00
H530   H     0.29820   0.65348   0.12126   0.00000  Uiso   1.00
H531   H     0.38058   0.64863   0.24428   0.00000  Uiso   1.00
H532   H     0.35895   0.67724   0.03510   0.00000  Uiso   1.00
H533   H     0.16169   0.65434   0.08211   0.00000  Uiso   1.00
H534   H     0.46153   0.61211   0.38420   0.00000  Uiso   1.00
H535   H     0.41589   0.67244   0.94312   0.00000  Uiso   1.00
H536   H     0.99993   0.62414   0.04224   0.00000  Uiso   1.00
H537   H     0.21800   0.41350   0.14846   0.00000  Uiso   1.00
H538   H     0.29598   0.39547   0.27298   0.00000  Uiso   1.00
H539   H     0.27435   0.42409   0.06380   0.00000  Uiso   1.00
H540   H     0.07709   0.40118   0.11081   0.00000  Uiso   1.00
H541   H     0.39287   0.40664   0.40750   0.00000  Uiso   1.00
H542   H     0.34722   0.46697   0.96640   0.00000  Uiso   1.00
H543   H     0.93126   0.41867   0.06553   0.00000  Uiso   1.00
O544   O     0.47996   0.50185   0.47727   0.00000  Uiso   1.00
O545   O     0.42007   0.58101   0.89857   0.00000  Uiso   1.00
O546   O     0.87434   0.51763   0.02862   0.00000  Uiso   1.00
N547   N     0.43466   0.56622   0.37260   0.00000  Uiso   1.00
N548   N     0.39199   0.62263   0.96021   0.00000  Uiso   1.00
N549   N     0.00310   0.57747   0.05287   0.00000  Uiso   1.00
N550   N     0.39771   0.45566   0.38513   0.00000  Uiso   1.00
N551   N     0.35504   0.51207   0.97275   0.00000  Uiso   1.00
N552   N     0.96616   0.46691   0.06541   0.00000  Uiso   1.00
