data_job_02093
_audit_creation_date              2018-12-19
_audit_creation_method            'Materials Studio'
_symmetry_space_group_name_H-M    'P1'
_symmetry_Int_Tables_number       1
_symmetry_cell_setting            triclinic
loop_
_symmetry_equiv_pos_as_xyz
  x,y,z
_cell_length_a                    30.3208
_cell_length_b                    7.2560
_cell_length_c                    41.5171
_cell_angle_alpha                 90.0000
_cell_angle_beta                  90.0000
_cell_angle_gamma                 90.0000
loop_
_atom_site_label
_atom_site_type_symbol
_atom_site_fract_x
_atom_site_fract_y
_atom_site_fract_z
_atom_site_U_iso_or_equiv
_atom_site_adp_type
_atom_site_occupancy
C1     C     0.46196   0.57895   0.90918   0.00000  Uiso   1.00
C2     C     0.41906   0.66577   0.92091   0.00000  Uiso   1.00
C3     C     0.38175   0.57054   0.93079   0.00000  Uiso   1.00
C4     C     0.34587   0.67516   0.94066   0.00000  Uiso   1.00
C5     C     0.27904   0.78062   0.95885   0.00000  Uiso   1.00
C6     C     0.47039   0.65890   0.87578   0.00000  Uiso   1.00
C7     C     0.47623   0.55788   0.84771   0.00000  Uiso   1.00
C8     C     0.48356   0.65673   0.81958   0.00000  Uiso   1.00
C9     C     0.49645   0.75152   0.76772   0.00000  Uiso   1.00
C10    C     0.49822   0.65558   0.93082   0.00000  Uiso   1.00
C11    C     0.52748   0.55178   0.94903   0.00000  Uiso   1.00
C12    C     0.55826   0.64783   0.96724   0.00000  Uiso   1.00
C13    C     0.61436   0.73746   0.00083   0.00000  Uiso   1.00
C14    C     0.46459   0.93411   0.90913   0.00000  Uiso   1.00
C15    C     0.42049   0.85868   0.92088   0.00000  Uiso   1.00
C16    C     0.38466   0.96348   0.93073   0.00000  Uiso   1.00
C17    C     0.34730   0.86842   0.94063   0.00000  Uiso   1.00
C18    C     0.47182   0.85180   0.87574   0.00000  Uiso   1.00
C19    C     0.47914   0.95082   0.84765   0.00000  Uiso   1.00
C20    C     0.48499   0.84999   0.81955   0.00000  Uiso   1.00
C21    C     0.49965   0.84849   0.93079   0.00000  Uiso   1.00
C22    C     0.53039   0.94472   0.94897   0.00000  Uiso   1.00
C23    C     0.55969   0.84109   0.96720   0.00000  Uiso   1.00
H24    H     0.46084   0.42877   0.90920   0.00000  Uiso   1.00
H25    H     0.38065   0.42124   0.93081   0.00000  Uiso   1.00
H26    H     0.47513   0.40860   0.84775   0.00000  Uiso   1.00
H27    H     0.52637   0.40250   0.94905   0.00000  Uiso   1.00
H28    H     0.29237   0.49798   0.95474   0.00000  Uiso   1.00
H29    H     0.49159   0.47131   0.77959   0.00000  Uiso   1.00
H30    H     0.59964   0.45844   0.99321   0.00000  Uiso   1.00
H31    H     0.46570   0.08431   0.90910   0.00000  Uiso   1.00
H32    H     0.38578   0.11276   0.93070   0.00000  Uiso   1.00
H33    H     0.48025   0.10011   0.84764   0.00000  Uiso   1.00
H34    H     0.53149   0.09401   0.94894   0.00000  Uiso   1.00
H35    H     0.29653   0.05924   0.95465   0.00000  Uiso   1.00
H36    H     0.49575   0.03256   0.77950   0.00000  Uiso   1.00
H37    H     0.60380   0.01970   0.99312   0.00000  Uiso   1.00
O38    O     0.24178   0.78550   0.96890   0.00000  Uiso   1.00
O39    O     0.50315   0.75050   0.73911   0.00000  Uiso   1.00
O40    O     0.64491   0.73362   0.01937   0.00000  Uiso   1.00
N41    N     0.30432   0.62617   0.95176   0.00000  Uiso   1.00
N42    N     0.49057   0.60123   0.78801   0.00000  Uiso   1.00
N43    N     0.59160   0.58920   0.98771   0.00000  Uiso   1.00
N44    N     0.30656   0.92818   0.95171   0.00000  Uiso   1.00
N45    N     0.49281   0.90324   0.78796   0.00000  Uiso   1.00
N46    N     0.59383   0.89121   0.98767   0.00000  Uiso   1.00
C47    C     0.03804   0.42105   0.40918   0.00000  Uiso   1.00
C48    C     0.08094   0.33423   0.42091   0.00000  Uiso   1.00
C49    C     0.11825   0.42946   0.43079   0.00000  Uiso   1.00
C50    C     0.15413   0.32484   0.44066   0.00000  Uiso   1.00
C51    C     0.22096   0.21938   0.45885   0.00000  Uiso   1.00
C52    C     0.02961   0.34110   0.37578   0.00000  Uiso   1.00
C53    C     0.02377   0.44212   0.34771   0.00000  Uiso   1.00
C54    C     0.01644   0.34327   0.31958   0.00000  Uiso   1.00
C55    C     0.00355   0.24848   0.26772   0.00000  Uiso   1.00
C56    C     0.00178   0.34442   0.43082   0.00000  Uiso   1.00
C57    C     0.97252   0.44822   0.44903   0.00000  Uiso   1.00
C58    C     0.94174   0.35217   0.46724   0.00000  Uiso   1.00
C59    C     0.88564   0.26254   0.50083   0.00000  Uiso   1.00
C60    C     0.03541   0.06589   0.40913   0.00000  Uiso   1.00
C61    C     0.07951   0.14132   0.42088   0.00000  Uiso   1.00
C62    C     0.11534   0.03652   0.43073   0.00000  Uiso   1.00
C63    C     0.15270   0.13158   0.44063   0.00000  Uiso   1.00
C64    C     0.02818   0.14820   0.37574   0.00000  Uiso   1.00
C65    C     0.02086   0.04918   0.34765   0.00000  Uiso   1.00
C66    C     0.01501   0.15001   0.31955   0.00000  Uiso   1.00
C67    C     0.00035   0.15151   0.43079   0.00000  Uiso   1.00
C68    C     0.96961   0.05528   0.44897   0.00000  Uiso   1.00
C69    C     0.94031   0.15891   0.46720   0.00000  Uiso   1.00
H70    H     0.03916   0.57123   0.40920   0.00000  Uiso   1.00
H71    H     0.11935   0.57876   0.43081   0.00000  Uiso   1.00
H72    H     0.02487   0.59140   0.34775   0.00000  Uiso   1.00
H73    H     0.97363   0.59750   0.44905   0.00000  Uiso   1.00
H74    H     0.20763   0.50202   0.45474   0.00000  Uiso   1.00
H75    H     0.00841   0.52869   0.27959   0.00000  Uiso   1.00
H76    H     0.90036   0.54156   0.49321   0.00000  Uiso   1.00
H77    H     0.03430   0.91569   0.40910   0.00000  Uiso   1.00
H78    H     0.11422   0.88724   0.43070   0.00000  Uiso   1.00
H79    H     0.01975   0.89989   0.34764   0.00000  Uiso   1.00
H80    H     0.96851   0.90599   0.44894   0.00000  Uiso   1.00
H81    H     0.20347   0.94076   0.45465   0.00000  Uiso   1.00
H82    H     0.00425   0.96744   0.27950   0.00000  Uiso   1.00
H83    H     0.89620   0.98030   0.49312   0.00000  Uiso   1.00
O84    O     0.25822   0.21450   0.46890   0.00000  Uiso   1.00
O85    O     0.99685   0.24950   0.23911   0.00000  Uiso   1.00
O86    O     0.85509   0.26638   0.51937   0.00000  Uiso   1.00
N87    N     0.19568   0.37383   0.45176   0.00000  Uiso   1.00
N88    N     0.00943   0.39877   0.28801   0.00000  Uiso   1.00
N89    N     0.90840   0.41080   0.48771   0.00000  Uiso   1.00
N90    N     0.19344   0.07182   0.45171   0.00000  Uiso   1.00
N91    N     0.00719   0.09676   0.28796   0.00000  Uiso   1.00
N92    N     0.90617   0.10879   0.48767   0.00000  Uiso   1.00
C93    C     0.53804   0.07895   0.59082   0.00000  Uiso   1.00
C94    C     0.58094   0.16577   0.57909   0.00000  Uiso   1.00
C95    C     0.61825   0.07054   0.56921   0.00000  Uiso   1.00
C96    C     0.65413   0.17516   0.55934   0.00000  Uiso   1.00
C97    C     0.72096   0.28062   0.54115   0.00000  Uiso   1.00
C98    C     0.52961   0.15890   0.62422   0.00000  Uiso   1.00
C99    C     0.52377   0.05788   0.65229   0.00000  Uiso   1.00
C100   C     0.51644   0.15673   0.68042   0.00000  Uiso   1.00
C101   C     0.50355   0.25152   0.73228   0.00000  Uiso   1.00
C102   C     0.50178   0.15558   0.56918   0.00000  Uiso   1.00
C103   C     0.47252   0.05178   0.55097   0.00000  Uiso   1.00
C104   C     0.44174   0.14783   0.53276   0.00000  Uiso   1.00
C105   C     0.38564   0.23746   0.49917   0.00000  Uiso   1.00
C106   C     0.53541   0.43411   0.59087   0.00000  Uiso   1.00
C107   C     0.57951   0.35868   0.57912   0.00000  Uiso   1.00
C108   C     0.61534   0.46348   0.56927   0.00000  Uiso   1.00
C109   C     0.65270   0.36842   0.55937   0.00000  Uiso   1.00
C110   C     0.52818   0.35180   0.62426   0.00000  Uiso   1.00
C111   C     0.52086   0.45082   0.65235   0.00000  Uiso   1.00
C112   C     0.51501   0.34999   0.68045   0.00000  Uiso   1.00
C113   C     0.50035   0.34849   0.56921   0.00000  Uiso   1.00
C114   C     0.46961   0.44472   0.55103   0.00000  Uiso   1.00
C115   C     0.44031   0.34109   0.53280   0.00000  Uiso   1.00
H116   H     0.53916   0.92877   0.59080   0.00000  Uiso   1.00
H117   H     0.61935   0.92124   0.56919   0.00000  Uiso   1.00
H118   H     0.52487   0.90860   0.65225   0.00000  Uiso   1.00
H119   H     0.47363   0.90250   0.55095   0.00000  Uiso   1.00
H120   H     0.70763   0.99798   0.54526   0.00000  Uiso   1.00
H121   H     0.50841   0.97131   0.72041   0.00000  Uiso   1.00
H122   H     0.40036   0.95844   0.50679   0.00000  Uiso   1.00
H123   H     0.53430   0.58431   0.59090   0.00000  Uiso   1.00
H124   H     0.61422   0.61276   0.56930   0.00000  Uiso   1.00
H125   H     0.51975   0.60011   0.65236   0.00000  Uiso   1.00
H126   H     0.46851   0.59401   0.55106   0.00000  Uiso   1.00
H127   H     0.70347   0.55924   0.54535   0.00000  Uiso   1.00
H128   H     0.50425   0.53256   0.72050   0.00000  Uiso   1.00
H129   H     0.39620   0.51970   0.50688   0.00000  Uiso   1.00
O130   O     0.75822   0.28550   0.53110   0.00000  Uiso   1.00
O131   O     0.49685   0.25050   0.76089   0.00000  Uiso   1.00
O132   O     0.35509   0.23362   0.48063   0.00000  Uiso   1.00
N133   N     0.69568   0.12617   0.54824   0.00000  Uiso   1.00
N134   N     0.50943   0.10123   0.71199   0.00000  Uiso   1.00
N135   N     0.40840   0.08920   0.51229   0.00000  Uiso   1.00
N136   N     0.69344   0.42818   0.54829   0.00000  Uiso   1.00
N137   N     0.50719   0.40324   0.71204   0.00000  Uiso   1.00
N138   N     0.40617   0.39121   0.51233   0.00000  Uiso   1.00
C139   C     0.96196   0.92105   0.09082   0.00000  Uiso   1.00
C140   C     0.91906   0.83423   0.07909   0.00000  Uiso   1.00
C141   C     0.88175   0.92946   0.06921   0.00000  Uiso   1.00
C142   C     0.84587   0.82484   0.05934   0.00000  Uiso   1.00
C143   C     0.77904   0.71938   0.04115   0.00000  Uiso   1.00
C144   C     0.97039   0.84110   0.12422   0.00000  Uiso   1.00
C145   C     0.97623   0.94212   0.15229   0.00000  Uiso   1.00
C146   C     0.98356   0.84327   0.18042   0.00000  Uiso   1.00
C147   C     0.99645   0.74848   0.23228   0.00000  Uiso   1.00
C148   C     0.99822   0.84442   0.06918   0.00000  Uiso   1.00
C149   C     0.02748   0.94822   0.05097   0.00000  Uiso   1.00
C150   C     0.05826   0.85217   0.03276   0.00000  Uiso   1.00
C151   C     0.11436   0.76254   0.99917   0.00000  Uiso   1.00
C152   C     0.96459   0.56589   0.09087   0.00000  Uiso   1.00
C153   C     0.92049   0.64132   0.07912   0.00000  Uiso   1.00
C154   C     0.88466   0.53652   0.06927   0.00000  Uiso   1.00
C155   C     0.84730   0.63158   0.05937   0.00000  Uiso   1.00
C156   C     0.97182   0.64820   0.12426   0.00000  Uiso   1.00
C157   C     0.97914   0.54918   0.15235   0.00000  Uiso   1.00
C158   C     0.98499   0.65001   0.18045   0.00000  Uiso   1.00
C159   C     0.99965   0.65151   0.06921   0.00000  Uiso   1.00
C160   C     0.03039   0.55528   0.05103   0.00000  Uiso   1.00
C161   C     0.05969   0.65891   0.03280   0.00000  Uiso   1.00
H162   H     0.96084   0.07123   0.09080   0.00000  Uiso   1.00
H163   H     0.88065   0.07876   0.06919   0.00000  Uiso   1.00
H164   H     0.97513   0.09140   0.15225   0.00000  Uiso   1.00
H165   H     0.02637   0.09750   0.05095   0.00000  Uiso   1.00
H166   H     0.79237   0.00202   0.04526   0.00000  Uiso   1.00
H167   H     0.99159   0.02869   0.22041   0.00000  Uiso   1.00
H168   H     0.09964   0.04156   0.00679   0.00000  Uiso   1.00
H169   H     0.96570   0.41569   0.09090   0.00000  Uiso   1.00
H170   H     0.88578   0.38724   0.06930   0.00000  Uiso   1.00
H171   H     0.98025   0.39989   0.15236   0.00000  Uiso   1.00
H172   H     0.03149   0.40599   0.05106   0.00000  Uiso   1.00
H173   H     0.79653   0.44076   0.04535   0.00000  Uiso   1.00
H174   H     0.99575   0.46744   0.22050   0.00000  Uiso   1.00
H175   H     0.10380   0.48030   0.00688   0.00000  Uiso   1.00
O176   O     0.74178   0.71450   0.03110   0.00000  Uiso   1.00
O177   O     0.00315   0.74950   0.26089   0.00000  Uiso   1.00
O178   O     0.14491   0.76638   0.98063   0.00000  Uiso   1.00
N179   N     0.80432   0.87383   0.04824   0.00000  Uiso   1.00
N180   N     0.99057   0.89877   0.21199   0.00000  Uiso   1.00
N181   N     0.09160   0.91080   0.01229   0.00000  Uiso   1.00
N182   N     0.80656   0.57182   0.04829   0.00000  Uiso   1.00
N183   N     0.99281   0.59676   0.21204   0.00000  Uiso   1.00
N184   N     0.09383   0.60879   0.01233   0.00000  Uiso   1.00
C185   C     0.53804   0.42105   0.09082   0.00000  Uiso   1.00
C186   C     0.58094   0.33423   0.07909   0.00000  Uiso   1.00
C187   C     0.61825   0.42946   0.06921   0.00000  Uiso   1.00
C188   C     0.65413   0.32484   0.05934   0.00000  Uiso   1.00
C189   C     0.72096   0.21938   0.04115   0.00000  Uiso   1.00
C190   C     0.52961   0.34110   0.12422   0.00000  Uiso   1.00
C191   C     0.52377   0.44212   0.15229   0.00000  Uiso   1.00
C192   C     0.51644   0.34327   0.18042   0.00000  Uiso   1.00
C193   C     0.50355   0.24848   0.23228   0.00000  Uiso   1.00
C194   C     0.50178   0.34442   0.06918   0.00000  Uiso   1.00
C195   C     0.47252   0.44822   0.05097   0.00000  Uiso   1.00
C196   C     0.44174   0.35217   0.03276   0.00000  Uiso   1.00
C197   C     0.38564   0.26254   0.99917   0.00000  Uiso   1.00
C198   C     0.53541   0.06589   0.09087   0.00000  Uiso   1.00
C199   C     0.57951   0.14132   0.07912   0.00000  Uiso   1.00
C200   C     0.61534   0.03652   0.06927   0.00000  Uiso   1.00
C201   C     0.65270   0.13158   0.05937   0.00000  Uiso   1.00
C202   C     0.52818   0.14820   0.12426   0.00000  Uiso   1.00
C203   C     0.52086   0.04918   0.15235   0.00000  Uiso   1.00
C204   C     0.51501   0.15001   0.18045   0.00000  Uiso   1.00
C205   C     0.50035   0.15151   0.06921   0.00000  Uiso   1.00
C206   C     0.46961   0.05528   0.05103   0.00000  Uiso   1.00
C207   C     0.44031   0.15891   0.03280   0.00000  Uiso   1.00
H208   H     0.53916   0.57123   0.09080   0.00000  Uiso   1.00
H209   H     0.61935   0.57876   0.06919   0.00000  Uiso   1.00
H210   H     0.52487   0.59140   0.15225   0.00000  Uiso   1.00
H211   H     0.47363   0.59750   0.05095   0.00000  Uiso   1.00
H212   H     0.70763   0.50202   0.04526   0.00000  Uiso   1.00
H213   H     0.50841   0.52869   0.22041   0.00000  Uiso   1.00
H214   H     0.40036   0.54156   0.00679   0.00000  Uiso   1.00
H215   H     0.53430   0.91569   0.09090   0.00000  Uiso   1.00
H216   H     0.61422   0.88724   0.06930   0.00000  Uiso   1.00
H217   H     0.51975   0.89989   0.15236   0.00000  Uiso   1.00
H218   H     0.46851   0.90599   0.05106   0.00000  Uiso   1.00
H219   H     0.70347   0.94076   0.04535   0.00000  Uiso   1.00
H220   H     0.50425   0.96744   0.22050   0.00000  Uiso   1.00
H221   H     0.39620   0.98030   0.00688   0.00000  Uiso   1.00
O222   O     0.75822   0.21450   0.03110   0.00000  Uiso   1.00
O223   O     0.49685   0.24950   0.26089   0.00000  Uiso   1.00
O224   O     0.35509   0.26638   0.98063   0.00000  Uiso   1.00
N225   N     0.69568   0.37383   0.04824   0.00000  Uiso   1.00
N226   N     0.50943   0.39877   0.21199   0.00000  Uiso   1.00
N227   N     0.40840   0.41080   0.01229   0.00000  Uiso   1.00
N228   N     0.69344   0.07182   0.04829   0.00000  Uiso   1.00
N229   N     0.50719   0.09676   0.21204   0.00000  Uiso   1.00
N230   N     0.40617   0.10879   0.01233   0.00000  Uiso   1.00
C231   C     0.96196   0.57895   0.59082   0.00000  Uiso   1.00
C232   C     0.91906   0.66577   0.57909   0.00000  Uiso   1.00
C233   C     0.88175   0.57054   0.56921   0.00000  Uiso   1.00
C234   C     0.84587   0.67516   0.55934   0.00000  Uiso   1.00
C235   C     0.77904   0.78062   0.54115   0.00000  Uiso   1.00
C236   C     0.97039   0.65890   0.62422   0.00000  Uiso   1.00
C237   C     0.97623   0.55788   0.65229   0.00000  Uiso   1.00
C238   C     0.98356   0.65673   0.68042   0.00000  Uiso   1.00
C239   C     0.99645   0.75152   0.73228   0.00000  Uiso   1.00
C240   C     0.99822   0.65558   0.56918   0.00000  Uiso   1.00
C241   C     0.02748   0.55178   0.55097   0.00000  Uiso   1.00
C242   C     0.05826   0.64783   0.53276   0.00000  Uiso   1.00
C243   C     0.11436   0.73746   0.49917   0.00000  Uiso   1.00
C244   C     0.96459   0.93411   0.59087   0.00000  Uiso   1.00
C245   C     0.92049   0.85868   0.57912   0.00000  Uiso   1.00
C246   C     0.88466   0.96348   0.56927   0.00000  Uiso   1.00
C247   C     0.84730   0.86842   0.55937   0.00000  Uiso   1.00
C248   C     0.97182   0.85180   0.62426   0.00000  Uiso   1.00
C249   C     0.97914   0.95082   0.65235   0.00000  Uiso   1.00
C250   C     0.98499   0.84999   0.68045   0.00000  Uiso   1.00
C251   C     0.99965   0.84849   0.56921   0.00000  Uiso   1.00
C252   C     0.03039   0.94472   0.55103   0.00000  Uiso   1.00
C253   C     0.05969   0.84109   0.53280   0.00000  Uiso   1.00
H254   H     0.96084   0.42877   0.59080   0.00000  Uiso   1.00
H255   H     0.88065   0.42124   0.56919   0.00000  Uiso   1.00
H256   H     0.97513   0.40860   0.65225   0.00000  Uiso   1.00
H257   H     0.02637   0.40250   0.55095   0.00000  Uiso   1.00
H258   H     0.79237   0.49798   0.54526   0.00000  Uiso   1.00
H259   H     0.99159   0.47131   0.72041   0.00000  Uiso   1.00
H260   H     0.09964   0.45844   0.50679   0.00000  Uiso   1.00
H261   H     0.96570   0.08431   0.59090   0.00000  Uiso   1.00
H262   H     0.88578   0.11276   0.56930   0.00000  Uiso   1.00
H263   H     0.98025   0.10011   0.65236   0.00000  Uiso   1.00
H264   H     0.03149   0.09401   0.55106   0.00000  Uiso   1.00
H265   H     0.79653   0.05924   0.54535   0.00000  Uiso   1.00
H266   H     0.99575   0.03256   0.72050   0.00000  Uiso   1.00
H267   H     0.10380   0.01970   0.50688   0.00000  Uiso   1.00
O268   O     0.74178   0.78550   0.53110   0.00000  Uiso   1.00
O269   O     0.00315   0.75050   0.76089   0.00000  Uiso   1.00
O270   O     0.14491   0.73362   0.48063   0.00000  Uiso   1.00
N271   N     0.80432   0.62617   0.54824   0.00000  Uiso   1.00
N272   N     0.99057   0.60123   0.71199   0.00000  Uiso   1.00
N273   N     0.09160   0.58920   0.51229   0.00000  Uiso   1.00
N274   N     0.80656   0.92818   0.54829   0.00000  Uiso   1.00
N275   N     0.99281   0.90324   0.71204   0.00000  Uiso   1.00
N276   N     0.09383   0.89121   0.51233   0.00000  Uiso   1.00
C277   C     0.46196   0.92105   0.40918   0.00000  Uiso   1.00
C278   C     0.41906   0.83423   0.42091   0.00000  Uiso   1.00
C279   C     0.38175   0.92946   0.43079   0.00000  Uiso   1.00
C280   C     0.34587   0.82484   0.44066   0.00000  Uiso   1.00
C281   C     0.27904   0.71938   0.45885   0.00000  Uiso   1.00
C282   C     0.47039   0.84110   0.37578   0.00000  Uiso   1.00
C283   C     0.47623   0.94212   0.34771   0.00000  Uiso   1.00
C284   C     0.48356   0.84327   0.31958   0.00000  Uiso   1.00
C285   C     0.49645   0.74848   0.26772   0.00000  Uiso   1.00
C286   C     0.49822   0.84442   0.43082   0.00000  Uiso   1.00
C287   C     0.52748   0.94822   0.44903   0.00000  Uiso   1.00
C288   C     0.55826   0.85217   0.46724   0.00000  Uiso   1.00
C289   C     0.61436   0.76254   0.50083   0.00000  Uiso   1.00
C290   C     0.46459   0.56589   0.40913   0.00000  Uiso   1.00
C291   C     0.42049   0.64132   0.42088   0.00000  Uiso   1.00
C292   C     0.38466   0.53652   0.43073   0.00000  Uiso   1.00
C293   C     0.34730   0.63158   0.44063   0.00000  Uiso   1.00
C294   C     0.47182   0.64820   0.37574   0.00000  Uiso   1.00
C295   C     0.47914   0.54918   0.34765   0.00000  Uiso   1.00
C296   C     0.48499   0.65001   0.31955   0.00000  Uiso   1.00
C297   C     0.49965   0.65151   0.43079   0.00000  Uiso   1.00
C298   C     0.53039   0.55528   0.44897   0.00000  Uiso   1.00
C299   C     0.55969   0.65891   0.46720   0.00000  Uiso   1.00
H300   H     0.46084   0.07123   0.40920   0.00000  Uiso   1.00
H301   H     0.38065   0.07876   0.43081   0.00000  Uiso   1.00
H302   H     0.47513   0.09140   0.34775   0.00000  Uiso   1.00
H303   H     0.52637   0.09750   0.44905   0.00000  Uiso   1.00
H304   H     0.29237   0.00202   0.45474   0.00000  Uiso   1.00
H305   H     0.49159   0.02869   0.27959   0.00000  Uiso   1.00
H306   H     0.59964   0.04156   0.49321   0.00000  Uiso   1.00
H307   H     0.46570   0.41569   0.40910   0.00000  Uiso   1.00
H308   H     0.38578   0.38724   0.43070   0.00000  Uiso   1.00
H309   H     0.48025   0.39989   0.34764   0.00000  Uiso   1.00
H310   H     0.53149   0.40599   0.44894   0.00000  Uiso   1.00
H311   H     0.29653   0.44076   0.45465   0.00000  Uiso   1.00
H312   H     0.49575   0.46744   0.27950   0.00000  Uiso   1.00
H313   H     0.60380   0.48030   0.49312   0.00000  Uiso   1.00
O314   O     0.24178   0.71450   0.46890   0.00000  Uiso   1.00
O315   O     0.50315   0.74950   0.23911   0.00000  Uiso   1.00
O316   O     0.64491   0.76638   0.51937   0.00000  Uiso   1.00
N317   N     0.30432   0.87383   0.45176   0.00000  Uiso   1.00
N318   N     0.49057   0.89877   0.28801   0.00000  Uiso   1.00
N319   N     0.59160   0.91080   0.48771   0.00000  Uiso   1.00
N320   N     0.30656   0.57182   0.45171   0.00000  Uiso   1.00
N321   N     0.49281   0.59676   0.28796   0.00000  Uiso   1.00
N322   N     0.59383   0.60879   0.48767   0.00000  Uiso   1.00
C323   C     0.03804   0.07895   0.90918   0.00000  Uiso   1.00
C324   C     0.08094   0.16577   0.92091   0.00000  Uiso   1.00
C325   C     0.11825   0.07054   0.93079   0.00000  Uiso   1.00
C326   C     0.15413   0.17516   0.94066   0.00000  Uiso   1.00
C327   C     0.22096   0.28062   0.95885   0.00000  Uiso   1.00
C328   C     0.02961   0.15890   0.87578   0.00000  Uiso   1.00
C329   C     0.02377   0.05788   0.84771   0.00000  Uiso   1.00
C330   C     0.01644   0.15673   0.81958   0.00000  Uiso   1.00
C331   C     0.00355   0.25152   0.76772   0.00000  Uiso   1.00
C332   C     0.00178   0.15558   0.93082   0.00000  Uiso   1.00
C333   C     0.97252   0.05178   0.94903   0.00000  Uiso   1.00
C334   C     0.94174   0.14783   0.96724   0.00000  Uiso   1.00
C335   C     0.88564   0.23746   0.00083   0.00000  Uiso   1.00
C336   C     0.03541   0.43411   0.90913   0.00000  Uiso   1.00
C337   C     0.07951   0.35868   0.92088   0.00000  Uiso   1.00
C338   C     0.11534   0.46348   0.93073   0.00000  Uiso   1.00
C339   C     0.15270   0.36842   0.94063   0.00000  Uiso   1.00
C340   C     0.02818   0.35180   0.87574   0.00000  Uiso   1.00
C341   C     0.02086   0.45082   0.84765   0.00000  Uiso   1.00
C342   C     0.01501   0.34999   0.81955   0.00000  Uiso   1.00
C343   C     0.00035   0.34849   0.93079   0.00000  Uiso   1.00
C344   C     0.96961   0.44472   0.94897   0.00000  Uiso   1.00
C345   C     0.94031   0.34109   0.96720   0.00000  Uiso   1.00
H346   H     0.03916   0.92877   0.90920   0.00000  Uiso   1.00
H347   H     0.11935   0.92124   0.93081   0.00000  Uiso   1.00
H348   H     0.02487   0.90860   0.84775   0.00000  Uiso   1.00
H349   H     0.97363   0.90250   0.94905   0.00000  Uiso   1.00
H350   H     0.20763   0.99798   0.95474   0.00000  Uiso   1.00
H351   H     0.00841   0.97131   0.77959   0.00000  Uiso   1.00
H352   H     0.90036   0.95844   0.99321   0.00000  Uiso   1.00
H353   H     0.03430   0.58431   0.90910   0.00000  Uiso   1.00
H354   H     0.11422   0.61276   0.93070   0.00000  Uiso   1.00
H355   H     0.01975   0.60011   0.84764   0.00000  Uiso   1.00
H356   H     0.96851   0.59401   0.94894   0.00000  Uiso   1.00
H357   H     0.20347   0.55924   0.95465   0.00000  Uiso   1.00
H358   H     0.00425   0.53256   0.77950   0.00000  Uiso   1.00
H359   H     0.89620   0.51970   0.99312   0.00000  Uiso   1.00
O360   O     0.25822   0.28550   0.96890   0.00000  Uiso   1.00
O361   O     0.99685   0.25050   0.73911   0.00000  Uiso   1.00
O362   O     0.85509   0.23362   0.01937   0.00000  Uiso   1.00
N363   N     0.19568   0.12617   0.95176   0.00000  Uiso   1.00
N364   N     0.00943   0.10123   0.78801   0.00000  Uiso   1.00
N365   N     0.90840   0.08920   0.98771   0.00000  Uiso   1.00
N366   N     0.19344   0.42818   0.95171   0.00000  Uiso   1.00
N367   N     0.00719   0.40324   0.78796   0.00000  Uiso   1.00
N368   N     0.90617   0.39121   0.98767   0.00000  Uiso   1.00
