data_job_03765
_audit_creation_date              2018-12-19
_audit_creation_method            'Materials Studio'
_symmetry_space_group_name_H-M    'P1'
_symmetry_Int_Tables_number       1
_symmetry_cell_setting            triclinic
loop_
_symmetry_equiv_pos_as_xyz
  x,y,z
_cell_length_a                    16.0373
_cell_length_b                    14.6724
_cell_length_c                    12.3551
_cell_angle_alpha                 90.0000
_cell_angle_beta                  120.8570
_cell_angle_gamma                 90.0000
loop_
_atom_site_label
_atom_site_type_symbol
_atom_site_fract_x
_atom_site_fract_y
_atom_site_fract_z
_atom_site_U_iso_or_equiv
_atom_site_adp_type
_atom_site_occupancy
C1     C     0.26328   0.34426   0.51603   0.00000  Uiso   1.00
C2     C     0.22956   0.31265   0.60499   0.00000  Uiso   1.00
C3     C     0.16370   0.35780   0.62713   0.00000  Uiso   1.00
C4     C     0.14235   0.31775   0.71192   0.00000  Uiso   1.00
C5     C     0.08348   0.28120   0.84091   0.00000  Uiso   1.00
C6     C     0.37373   0.35022   0.59569   0.00000  Uiso   1.00
C7     C     0.42908   0.42696   0.60999   0.00000  Uiso   1.00
C8     C     0.52910   0.41853   0.68693   0.00000  Uiso   1.00
C9     C     0.69406   0.44029   0.80141   0.00000  Uiso   1.00
C10    C     0.24085   0.26614   0.42363   0.00000  Uiso   1.00
C11    C     0.18450   0.27220   0.29325   0.00000  Uiso   1.00
C12    C     0.17266   0.19298   0.22532   0.00000  Uiso   1.00
C13    C     0.13131   0.08421   0.07264   0.00000  Uiso   1.00
C14    C     0.34250   0.19283   0.62723   0.00000  Uiso   1.00
C15    C     0.27259   0.23040   0.66539   0.00000  Uiso   1.00
C16    C     0.25134   0.19026   0.75016   0.00000  Uiso   1.00
C17    C     0.18545   0.23535   0.77242   0.00000  Uiso   1.00
C18    C     0.41676   0.26797   0.65609   0.00000  Uiso   1.00
C19    C     0.51672   0.25942   0.73301   0.00000  Uiso   1.00
C20    C     0.57220   0.33613   0.74744   0.00000  Uiso   1.00
C21    C     0.28388   0.18389   0.48402   0.00000  Uiso   1.00
C22    C     0.27213   0.10465   0.41628   0.00000  Uiso   1.00
C23    C     0.21577   0.11058   0.28582   0.00000  Uiso   1.00
H24    H     0.22979   0.40830   0.46901   0.00000  Uiso   1.00
H25    H     0.13042   0.42146   0.58038   0.00000  Uiso   1.00
H26    H     0.39576   0.49060   0.56323   0.00000  Uiso   1.00
H27    H     0.15121   0.33586   0.24654   0.00000  Uiso   1.00
H28    H     0.03926   0.39979   0.73053   0.00000  Uiso   1.00
H29    H     0.59874   0.54558   0.69433   0.00000  Uiso   1.00
H30    H     0.08306   0.21928   0.02652   0.00000  Uiso   1.00
H31    H     0.37600   0.12879   0.67425   0.00000  Uiso   1.00
H32    H     0.28465   0.12661   0.79688   0.00000  Uiso   1.00
H33    H     0.54999   0.19576   0.77973   0.00000  Uiso   1.00
H34    H     0.30544   0.04101   0.46304   0.00000  Uiso   1.00
H35    H     0.16443   0.16049   0.90625   0.00000  Uiso   1.00
H36    H     0.72392   0.30627   0.87005   0.00000  Uiso   1.00
H37    H     0.20824   0.97997   0.20225   0.00000  Uiso   1.00
O38    O     0.03914   0.28377   0.89539   0.00000  Uiso   1.00
O39    O     0.77316   0.47503   0.84788   0.00000  Uiso   1.00
O40    O     0.09660   0.04692   0.97174   0.00000  Uiso   1.00
N41    N     0.08124   0.34376   0.75503   0.00000  Uiso   1.00
N42    N     0.60432   0.48007   0.72121   0.00000  Uiso   1.00
N43    N     0.12223   0.17501   0.09687   0.00000  Uiso   1.00
N44    N     0.14859   0.21499   0.84959   0.00000  Uiso   1.00
N45    N     0.67168   0.35130   0.81576   0.00000  Uiso   1.00
N46    N     0.18958   0.04624   0.19142   0.00000  Uiso   1.00
C47    C     0.76328   0.84426   0.51603   0.00000  Uiso   1.00
C48    C     0.72956   0.81265   0.60499   0.00000  Uiso   1.00
C49    C     0.66370   0.85780   0.62713   0.00000  Uiso   1.00
C50    C     0.64235   0.81775   0.71192   0.00000  Uiso   1.00
C51    C     0.58348   0.78120   0.84091   0.00000  Uiso   1.00
C52    C     0.87373   0.85022   0.59569   0.00000  Uiso   1.00
C53    C     0.92908   0.92696   0.60999   0.00000  Uiso   1.00
C54    C     0.02910   0.91853   0.68693   0.00000  Uiso   1.00
C55    C     0.19406   0.94029   0.80141   0.00000  Uiso   1.00
C56    C     0.74085   0.76614   0.42363   0.00000  Uiso   1.00
C57    C     0.68450   0.77220   0.29325   0.00000  Uiso   1.00
C58    C     0.67266   0.69298   0.22532   0.00000  Uiso   1.00
C59    C     0.63131   0.58421   0.07264   0.00000  Uiso   1.00
C60    C     0.84250   0.69283   0.62723   0.00000  Uiso   1.00
C61    C     0.77259   0.73040   0.66539   0.00000  Uiso   1.00
C62    C     0.75134   0.69026   0.75016   0.00000  Uiso   1.00
C63    C     0.68545   0.73535   0.77242   0.00000  Uiso   1.00
C64    C     0.91676   0.76797   0.65609   0.00000  Uiso   1.00
C65    C     0.01672   0.75942   0.73301   0.00000  Uiso   1.00
C66    C     0.07220   0.83613   0.74744   0.00000  Uiso   1.00
C67    C     0.78388   0.68389   0.48402   0.00000  Uiso   1.00
C68    C     0.77213   0.60465   0.41628   0.00000  Uiso   1.00
C69    C     0.71577   0.61058   0.28582   0.00000  Uiso   1.00
H70    H     0.72979   0.90830   0.46901   0.00000  Uiso   1.00
H71    H     0.63042   0.92146   0.58038   0.00000  Uiso   1.00
H72    H     0.89576   0.99060   0.56323   0.00000  Uiso   1.00
H73    H     0.65121   0.83586   0.24654   0.00000  Uiso   1.00
H74    H     0.53926   0.89979   0.73053   0.00000  Uiso   1.00
H75    H     0.09874   0.04558   0.69433   0.00000  Uiso   1.00
H76    H     0.58306   0.71928   0.02652   0.00000  Uiso   1.00
H77    H     0.87600   0.62879   0.67425   0.00000  Uiso   1.00
H78    H     0.78465   0.62661   0.79688   0.00000  Uiso   1.00
H79    H     0.04999   0.69576   0.77973   0.00000  Uiso   1.00
H80    H     0.80544   0.54101   0.46304   0.00000  Uiso   1.00
H81    H     0.66443   0.66049   0.90625   0.00000  Uiso   1.00
H82    H     0.22392   0.80627   0.87005   0.00000  Uiso   1.00
H83    H     0.70824   0.47997   0.20225   0.00000  Uiso   1.00
O84    O     0.53914   0.78377   0.89539   0.00000  Uiso   1.00
O85    O     0.27316   0.97503   0.84788   0.00000  Uiso   1.00
O86    O     0.59660   0.54692   0.97174   0.00000  Uiso   1.00
N87    N     0.58124   0.84376   0.75503   0.00000  Uiso   1.00
N88    N     0.10432   0.98007   0.72121   0.00000  Uiso   1.00
N89    N     0.62223   0.67501   0.09687   0.00000  Uiso   1.00
N90    N     0.64859   0.71499   0.84959   0.00000  Uiso   1.00
N91    N     0.17168   0.85130   0.81576   0.00000  Uiso   1.00
N92    N     0.68958   0.54624   0.19142   0.00000  Uiso   1.00
C93    C     0.73672   0.34426   0.48397   0.00000  Uiso   1.00
C94    C     0.77044   0.31265   0.39501   0.00000  Uiso   1.00
C95    C     0.83630   0.35780   0.37287   0.00000  Uiso   1.00
C96    C     0.85765   0.31775   0.28808   0.00000  Uiso   1.00
C97    C     0.91652   0.28120   0.15909   0.00000  Uiso   1.00
C98    C     0.62627   0.35022   0.40431   0.00000  Uiso   1.00
C99    C     0.57092   0.42696   0.39001   0.00000  Uiso   1.00
C100   C     0.47090   0.41853   0.31307   0.00000  Uiso   1.00
C101   C     0.30594   0.44029   0.19859   0.00000  Uiso   1.00
C102   C     0.75915   0.26614   0.57637   0.00000  Uiso   1.00
C103   C     0.81550   0.27220   0.70675   0.00000  Uiso   1.00
C104   C     0.82734   0.19298   0.77468   0.00000  Uiso   1.00
C105   C     0.86869   0.08421   0.92736   0.00000  Uiso   1.00
C106   C     0.65750   0.19283   0.37277   0.00000  Uiso   1.00
C107   C     0.72741   0.23040   0.33461   0.00000  Uiso   1.00
C108   C     0.74866   0.19026   0.24984   0.00000  Uiso   1.00
C109   C     0.81455   0.23535   0.22758   0.00000  Uiso   1.00
C110   C     0.58324   0.26797   0.34391   0.00000  Uiso   1.00
C111   C     0.48328   0.25942   0.26699   0.00000  Uiso   1.00
C112   C     0.42780   0.33613   0.25256   0.00000  Uiso   1.00
C113   C     0.71612   0.18389   0.51598   0.00000  Uiso   1.00
C114   C     0.72787   0.10465   0.58372   0.00000  Uiso   1.00
C115   C     0.78423   0.11058   0.71418   0.00000  Uiso   1.00
H116   H     0.77021   0.40830   0.53099   0.00000  Uiso   1.00
H117   H     0.86958   0.42146   0.41962   0.00000  Uiso   1.00
H118   H     0.60424   0.49060   0.43677   0.00000  Uiso   1.00
H119   H     0.84879   0.33586   0.75346   0.00000  Uiso   1.00
H120   H     0.96074   0.39979   0.26947   0.00000  Uiso   1.00
H121   H     0.40126   0.54558   0.30567   0.00000  Uiso   1.00
H122   H     0.91694   0.21928   0.97348   0.00000  Uiso   1.00
H123   H     0.62400   0.12879   0.32575   0.00000  Uiso   1.00
H124   H     0.71535   0.12661   0.20312   0.00000  Uiso   1.00
H125   H     0.45001   0.19576   0.22027   0.00000  Uiso   1.00
H126   H     0.69456   0.04101   0.53696   0.00000  Uiso   1.00
H127   H     0.83557   0.16049   0.09375   0.00000  Uiso   1.00
H128   H     0.27608   0.30627   0.12995   0.00000  Uiso   1.00
H129   H     0.79176   0.97997   0.79775   0.00000  Uiso   1.00
O130   O     0.96086   0.28377   0.10461   0.00000  Uiso   1.00
O131   O     0.22684   0.47503   0.15212   0.00000  Uiso   1.00
O132   O     0.90340   0.04692   0.02826   0.00000  Uiso   1.00
N133   N     0.91876   0.34376   0.24497   0.00000  Uiso   1.00
N134   N     0.39568   0.48007   0.27879   0.00000  Uiso   1.00
N135   N     0.87777   0.17501   0.90313   0.00000  Uiso   1.00
N136   N     0.85141   0.21499   0.15041   0.00000  Uiso   1.00
N137   N     0.32832   0.35130   0.18424   0.00000  Uiso   1.00
N138   N     0.81042   0.04624   0.80858   0.00000  Uiso   1.00
C139   C     0.23672   0.84426   0.48397   0.00000  Uiso   1.00
C140   C     0.27044   0.81265   0.39501   0.00000  Uiso   1.00
C141   C     0.33630   0.85780   0.37287   0.00000  Uiso   1.00
C142   C     0.35765   0.81775   0.28808   0.00000  Uiso   1.00
C143   C     0.41652   0.78120   0.15909   0.00000  Uiso   1.00
C144   C     0.12627   0.85022   0.40431   0.00000  Uiso   1.00
C145   C     0.07092   0.92696   0.39001   0.00000  Uiso   1.00
C146   C     0.97090   0.91853   0.31307   0.00000  Uiso   1.00
C147   C     0.80594   0.94029   0.19859   0.00000  Uiso   1.00
C148   C     0.25915   0.76614   0.57637   0.00000  Uiso   1.00
C149   C     0.31550   0.77220   0.70675   0.00000  Uiso   1.00
C150   C     0.32734   0.69298   0.77468   0.00000  Uiso   1.00
C151   C     0.36869   0.58421   0.92736   0.00000  Uiso   1.00
C152   C     0.15750   0.69283   0.37277   0.00000  Uiso   1.00
C153   C     0.22741   0.73040   0.33461   0.00000  Uiso   1.00
C154   C     0.24866   0.69026   0.24984   0.00000  Uiso   1.00
C155   C     0.31455   0.73535   0.22758   0.00000  Uiso   1.00
C156   C     0.08324   0.76797   0.34391   0.00000  Uiso   1.00
C157   C     0.98328   0.75942   0.26699   0.00000  Uiso   1.00
C158   C     0.92780   0.83613   0.25256   0.00000  Uiso   1.00
C159   C     0.21612   0.68389   0.51598   0.00000  Uiso   1.00
C160   C     0.22787   0.60465   0.58372   0.00000  Uiso   1.00
C161   C     0.28423   0.61058   0.71418   0.00000  Uiso   1.00
H162   H     0.27021   0.90830   0.53099   0.00000  Uiso   1.00
H163   H     0.36958   0.92146   0.41962   0.00000  Uiso   1.00
H164   H     0.10424   0.99060   0.43677   0.00000  Uiso   1.00
H165   H     0.34879   0.83586   0.75346   0.00000  Uiso   1.00
H166   H     0.46074   0.89979   0.26947   0.00000  Uiso   1.00
H167   H     0.90126   0.04558   0.30567   0.00000  Uiso   1.00
H168   H     0.41694   0.71928   0.97348   0.00000  Uiso   1.00
H169   H     0.12400   0.62879   0.32575   0.00000  Uiso   1.00
H170   H     0.21535   0.62661   0.20312   0.00000  Uiso   1.00
H171   H     0.95001   0.69576   0.22027   0.00000  Uiso   1.00
H172   H     0.19456   0.54101   0.53696   0.00000  Uiso   1.00
H173   H     0.33557   0.66049   0.09375   0.00000  Uiso   1.00
H174   H     0.77608   0.80627   0.12995   0.00000  Uiso   1.00
H175   H     0.29176   0.47997   0.79775   0.00000  Uiso   1.00
O176   O     0.46086   0.78377   0.10461   0.00000  Uiso   1.00
O177   O     0.72684   0.97503   0.15212   0.00000  Uiso   1.00
O178   O     0.40340   0.54692   0.02826   0.00000  Uiso   1.00
N179   N     0.41876   0.84376   0.24497   0.00000  Uiso   1.00
N180   N     0.89568   0.98007   0.27879   0.00000  Uiso   1.00
N181   N     0.37777   0.67501   0.90313   0.00000  Uiso   1.00
N182   N     0.35141   0.71499   0.15041   0.00000  Uiso   1.00
N183   N     0.82832   0.85130   0.18424   0.00000  Uiso   1.00
N184   N     0.31042   0.54624   0.80858   0.00000  Uiso   1.00
