data_job_05317
_audit_creation_date              2018-12-19
_audit_creation_method            'Materials Studio'
_symmetry_space_group_name_H-M    'P1'
_symmetry_Int_Tables_number       1
_symmetry_cell_setting            triclinic
loop_
_symmetry_equiv_pos_as_xyz
  x,y,z
_cell_length_a                    23.3392
_cell_length_b                    33.6995
_cell_length_c                    7.1826
_cell_angle_alpha                 90.0000
_cell_angle_beta                  90.0000
_cell_angle_gamma                 90.0000
loop_
_atom_site_label
_atom_site_type_symbol
_atom_site_fract_x
_atom_site_fract_y
_atom_site_fract_z
_atom_site_U_iso_or_equiv
_atom_site_adp_type
_atom_site_occupancy
C1     C     0.60056   0.88405   0.09901   0.00000  Uiso   1.00
C2     C     0.61278   0.84015   0.06643   0.00000  Uiso   1.00
C3     C     0.62393   0.81222   0.20373   0.00000  Uiso   1.00
C4     C     0.63406   0.77357   0.14542   0.00000  Uiso   1.00
C5     C     0.65322   0.70697   0.12356   0.00000  Uiso   1.00
C6     C     0.64485   0.90670   0.98469   0.00000  Uiso   1.00
C7     C     0.68296   0.93474   0.05327   0.00000  Uiso   1.00
C8     C     0.72009   0.95212   0.92614   0.00000  Uiso   1.00
C9     C     0.78901   0.98886   0.77735   0.00000  Uiso   1.00
C10    C     0.54280   0.89231   0.00764   0.00000  Uiso   1.00
C11    C     0.49511   0.90826   0.09549   0.00000  Uiso   1.00
C12    C     0.44632   0.91353   0.98767   0.00000  Uiso   1.00
C13    C     0.35679   0.92793   0.87450   0.00000  Uiso   1.00
C14    C     0.59874   0.86508   0.75131   0.00000  Uiso   1.00
C15    C     0.61179   0.82984   0.87757   0.00000  Uiso   1.00
C16    C     0.62191   0.79123   0.81904   0.00000  Uiso   1.00
C17    C     0.63307   0.76325   0.95623   0.00000  Uiso   1.00
C18    C     0.64387   0.89640   0.79584   0.00000  Uiso   1.00
C19    C     0.68094   0.91374   0.66858   0.00000  Uiso   1.00
C20    C     0.71910   0.94179   0.73694   0.00000  Uiso   1.00
C21    C     0.54181   0.88200   0.81878   0.00000  Uiso   1.00
C22    C     0.49309   0.88726   0.71080   0.00000  Uiso   1.00
C23    C     0.44533   0.90321   0.79847   0.00000  Uiso   1.00
H24    H     0.60133   0.89208   0.24604   0.00000  Uiso   1.00
H25    H     0.62470   0.82021   0.34987   0.00000  Uiso   1.00
H26    H     0.68371   0.94271   0.19942   0.00000  Uiso   1.00
H27    H     0.49589   0.91623   0.24164   0.00000  Uiso   1.00
H28    H     0.65018   0.73598   0.38169   0.00000  Uiso   1.00
H29    H     0.77461   0.99429   0.06445   0.00000  Uiso   1.00
H30    H     0.37855   0.93845   0.15347   0.00000  Uiso   1.00
H31    H     0.59797   0.85706   0.60427   0.00000  Uiso   1.00
H32    H     0.62114   0.78326   0.67288   0.00000  Uiso   1.00
H33    H     0.68016   0.90576   0.52244   0.00000  Uiso   1.00
H34    H     0.49234   0.87928   0.56466   0.00000  Uiso   1.00
H35    H     0.64730   0.70599   0.83222   0.00000  Uiso   1.00
H36    H     0.77173   0.96430   0.51498   0.00000  Uiso   1.00
H37    H     0.37567   0.90847   0.60401   0.00000  Uiso   1.00
O38    O     0.66406   0.67308   0.16366   0.00000  Uiso   1.00
O39    O     0.82730   0.01197   0.74746   0.00000  Uiso   1.00
O40    O     0.30768   0.93871   0.86426   0.00000  Uiso   1.00
N41    N     0.64631   0.73905   0.24296   0.00000  Uiso   1.00
N42    N     0.76265   0.98055   0.94637   0.00000  Uiso   1.00
N43    N     0.39237   0.92836   0.02958   0.00000  Uiso   1.00
N44    N     0.64476   0.72291   0.94729   0.00000  Uiso   1.00
N45    N     0.76110   0.96441   0.65070   0.00000  Uiso   1.00
N46    N     0.39082   0.91222   0.73392   0.00000  Uiso   1.00
C47    C     0.54250   0.61818   0.40233   0.00000  Uiso   1.00
C48    C     0.52912   0.66189   0.43582   0.00000  Uiso   1.00
C49    C     0.51674   0.68972   0.29923   0.00000  Uiso   1.00
C50    C     0.50568   0.72819   0.35831   0.00000  Uiso   1.00
C51    C     0.48468   0.79451   0.38159   0.00000  Uiso   1.00
C52    C     0.49923   0.59486   0.51785   0.00000  Uiso   1.00
C53    C     0.46173   0.56634   0.45021   0.00000  Uiso   1.00
C54    C     0.42551   0.54839   0.57836   0.00000  Uiso   1.00
C55    C     0.35814   0.51062   0.72900   0.00000  Uiso   1.00
C56    C     0.60077   0.61068   0.49169   0.00000  Uiso   1.00
C57    C     0.64864   0.59544   0.40208   0.00000  Uiso   1.00
C58    C     0.69790   0.59079   0.50823   0.00000  Uiso   1.00
C59    C     0.78818   0.57757   0.61825   0.00000  Uiso   1.00
C60    C     0.54488   0.63700   0.75017   0.00000  Uiso   1.00
C61    C     0.53041   0.67211   0.62476   0.00000  Uiso   1.00
C62    C     0.51937   0.71055   0.68407   0.00000  Uiso   1.00
C63    C     0.50697   0.73844   0.54759   0.00000  Uiso   1.00
C64    C     0.50052   0.60509   0.70678   0.00000  Uiso   1.00
C65    C     0.46435   0.58717   0.83506   0.00000  Uiso   1.00
C66    C     0.42680   0.55863   0.76764   0.00000  Uiso   1.00
C67    C     0.60206   0.62090   0.68063   0.00000  Uiso   1.00
C68    C     0.65126   0.61627   0.78693   0.00000  Uiso   1.00
C69    C     0.69919   0.60103   0.69750   0.00000  Uiso   1.00
H70    H     0.54150   0.61021   0.25524   0.00000  Uiso   1.00
H71    H     0.51575   0.68179   0.15303   0.00000  Uiso   1.00
H72    H     0.46075   0.55843   0.30400   0.00000  Uiso   1.00
H73    H     0.64763   0.58753   0.25588   0.00000  Uiso   1.00
H74    H     0.48774   0.76567   0.12303   0.00000  Uiso   1.00
H75    H     0.37179   0.50554   0.44137   0.00000  Uiso   1.00
H76    H     0.76586   0.56688   0.33989   0.00000  Uiso   1.00
H77    H     0.54588   0.64496   0.89727   0.00000  Uiso   1.00
H78    H     0.52037   0.71846   0.83029   0.00000  Uiso   1.00
H79    H     0.46536   0.59509   0.98126   0.00000  Uiso   1.00
H80    H     0.65224   0.62419   0.93313   0.00000  Uiso   1.00
H81    H     0.49149   0.79542   0.67272   0.00000  Uiso   1.00
H82    H     0.37553   0.53529   0.99106   0.00000  Uiso   1.00
H83    H     0.76960   0.59664   0.88959   0.00000  Uiso   1.00
O84    O     0.47274   0.82826   0.34224   0.00000  Uiso   1.00
O85    O     0.32061   0.48697   0.75988   0.00000  Uiso   1.00
O86    O     0.83762   0.56747   0.62675   0.00000  Uiso   1.00
N87    N     0.49214   0.76258   0.26159   0.00000  Uiso   1.00
N88    N     0.38372   0.51938   0.55921   0.00000  Uiso   1.00
N89    N     0.75214   0.57673   0.46435   0.00000  Uiso   1.00
N90    N     0.49415   0.77860   0.55738   0.00000  Uiso   1.00
N91    N     0.38573   0.53539   0.85500   0.00000  Uiso   1.00
N92    N     0.75415   0.59274   0.76014   0.00000  Uiso   1.00
C93    C     0.39944   0.11595   0.09901   0.00000  Uiso   1.00
C94    C     0.38722   0.15985   0.06643   0.00000  Uiso   1.00
C95    C     0.37607   0.18778   0.20373   0.00000  Uiso   1.00
C96    C     0.36594   0.22643   0.14542   0.00000  Uiso   1.00
C97    C     0.34678   0.29303   0.12356   0.00000  Uiso   1.00
C98    C     0.35515   0.09330   0.98469   0.00000  Uiso   1.00
C99    C     0.31704   0.06526   0.05327   0.00000  Uiso   1.00
C100   C     0.27991   0.04788   0.92614   0.00000  Uiso   1.00
C101   C     0.21099   0.01114   0.77735   0.00000  Uiso   1.00
C102   C     0.45720   0.10769   0.00764   0.00000  Uiso   1.00
C103   C     0.50489   0.09174   0.09549   0.00000  Uiso   1.00
C104   C     0.55368   0.08647   0.98767   0.00000  Uiso   1.00
C105   C     0.64321   0.07207   0.87450   0.00000  Uiso   1.00
C106   C     0.40126   0.13492   0.75131   0.00000  Uiso   1.00
C107   C     0.38821   0.17016   0.87757   0.00000  Uiso   1.00
C108   C     0.37809   0.20877   0.81904   0.00000  Uiso   1.00
C109   C     0.36693   0.23675   0.95623   0.00000  Uiso   1.00
C110   C     0.35613   0.10360   0.79584   0.00000  Uiso   1.00
C111   C     0.31906   0.08626   0.66858   0.00000  Uiso   1.00
C112   C     0.28090   0.05821   0.73694   0.00000  Uiso   1.00
C113   C     0.45819   0.11800   0.81878   0.00000  Uiso   1.00
C114   C     0.50691   0.11274   0.71080   0.00000  Uiso   1.00
C115   C     0.55467   0.09679   0.79847   0.00000  Uiso   1.00
H116   H     0.39867   0.10792   0.24604   0.00000  Uiso   1.00
H117   H     0.37530   0.17979   0.34987   0.00000  Uiso   1.00
H118   H     0.31629   0.05729   0.19942   0.00000  Uiso   1.00
H119   H     0.50411   0.08377   0.24164   0.00000  Uiso   1.00
H120   H     0.34982   0.26402   0.38169   0.00000  Uiso   1.00
H121   H     0.22539   0.00571   0.06445   0.00000  Uiso   1.00
H122   H     0.62145   0.06155   0.15347   0.00000  Uiso   1.00
H123   H     0.40203   0.14294   0.60427   0.00000  Uiso   1.00
H124   H     0.37886   0.21674   0.67288   0.00000  Uiso   1.00
H125   H     0.31984   0.09424   0.52244   0.00000  Uiso   1.00
H126   H     0.50766   0.12072   0.56466   0.00000  Uiso   1.00
H127   H     0.35270   0.29401   0.83222   0.00000  Uiso   1.00
H128   H     0.22827   0.03570   0.51498   0.00000  Uiso   1.00
H129   H     0.62433   0.09153   0.60401   0.00000  Uiso   1.00
O130   O     0.33594   0.32692   0.16366   0.00000  Uiso   1.00
O131   O     0.17270   0.98803   0.74746   0.00000  Uiso   1.00
O132   O     0.69232   0.06129   0.86426   0.00000  Uiso   1.00
N133   N     0.35369   0.26095   0.24296   0.00000  Uiso   1.00
N134   N     0.23735   0.01945   0.94637   0.00000  Uiso   1.00
N135   N     0.60763   0.07164   0.02958   0.00000  Uiso   1.00
N136   N     0.35524   0.27709   0.94729   0.00000  Uiso   1.00
N137   N     0.23890   0.03559   0.65070   0.00000  Uiso   1.00
N138   N     0.60918   0.08778   0.73392   0.00000  Uiso   1.00
C139   C     0.45750   0.38182   0.40233   0.00000  Uiso   1.00
C140   C     0.47088   0.33811   0.43582   0.00000  Uiso   1.00
C141   C     0.48326   0.31028   0.29923   0.00000  Uiso   1.00
C142   C     0.49432   0.27181   0.35831   0.00000  Uiso   1.00
C143   C     0.51532   0.20549   0.38159   0.00000  Uiso   1.00
C144   C     0.50077   0.40514   0.51785   0.00000  Uiso   1.00
C145   C     0.53827   0.43366   0.45021   0.00000  Uiso   1.00
C146   C     0.57449   0.45161   0.57836   0.00000  Uiso   1.00
C147   C     0.64186   0.48938   0.72900   0.00000  Uiso   1.00
C148   C     0.39923   0.38932   0.49169   0.00000  Uiso   1.00
C149   C     0.35136   0.40456   0.40208   0.00000  Uiso   1.00
C150   C     0.30210   0.40921   0.50823   0.00000  Uiso   1.00
C151   C     0.21182   0.42243   0.61825   0.00000  Uiso   1.00
C152   C     0.45512   0.36300   0.75017   0.00000  Uiso   1.00
C153   C     0.46959   0.32789   0.62476   0.00000  Uiso   1.00
C154   C     0.48063   0.28945   0.68407   0.00000  Uiso   1.00
C155   C     0.49303   0.26156   0.54759   0.00000  Uiso   1.00
C156   C     0.49948   0.39491   0.70678   0.00000  Uiso   1.00
C157   C     0.53565   0.41283   0.83506   0.00000  Uiso   1.00
C158   C     0.57320   0.44137   0.76764   0.00000  Uiso   1.00
C159   C     0.39794   0.37910   0.68063   0.00000  Uiso   1.00
C160   C     0.34874   0.38373   0.78693   0.00000  Uiso   1.00
C161   C     0.30081   0.39897   0.69750   0.00000  Uiso   1.00
H162   H     0.45850   0.38979   0.25524   0.00000  Uiso   1.00
H163   H     0.48425   0.31821   0.15303   0.00000  Uiso   1.00
H164   H     0.53925   0.44157   0.30400   0.00000  Uiso   1.00
H165   H     0.35237   0.41247   0.25588   0.00000  Uiso   1.00
H166   H     0.51226   0.23433   0.12303   0.00000  Uiso   1.00
H167   H     0.62821   0.49446   0.44137   0.00000  Uiso   1.00
H168   H     0.23414   0.43312   0.33989   0.00000  Uiso   1.00
H169   H     0.45412   0.35504   0.89727   0.00000  Uiso   1.00
H170   H     0.47963   0.28154   0.83029   0.00000  Uiso   1.00
H171   H     0.53464   0.40491   0.98126   0.00000  Uiso   1.00
H172   H     0.34776   0.37581   0.93313   0.00000  Uiso   1.00
H173   H     0.50851   0.20458   0.67272   0.00000  Uiso   1.00
H174   H     0.62447   0.46471   0.99106   0.00000  Uiso   1.00
H175   H     0.23040   0.40336   0.88959   0.00000  Uiso   1.00
O176   O     0.52726   0.17174   0.34224   0.00000  Uiso   1.00
O177   O     0.67939   0.51303   0.75988   0.00000  Uiso   1.00
O178   O     0.16238   0.43253   0.62675   0.00000  Uiso   1.00
N179   N     0.50786   0.23742   0.26159   0.00000  Uiso   1.00
N180   N     0.61628   0.48062   0.55921   0.00000  Uiso   1.00
N181   N     0.24786   0.42327   0.46435   0.00000  Uiso   1.00
N182   N     0.50585   0.22140   0.55738   0.00000  Uiso   1.00
N183   N     0.61427   0.46461   0.85500   0.00000  Uiso   1.00
N184   N     0.24585   0.40726   0.76014   0.00000  Uiso   1.00
C185   C     0.89944   0.38405   0.90099   0.00000  Uiso   1.00
C186   C     0.88722   0.34015   0.93357   0.00000  Uiso   1.00
C187   C     0.87607   0.31222   0.79627   0.00000  Uiso   1.00
C188   C     0.86594   0.27357   0.85458   0.00000  Uiso   1.00
C189   C     0.84678   0.20697   0.87644   0.00000  Uiso   1.00
C190   C     0.85515   0.40670   0.01531   0.00000  Uiso   1.00
C191   C     0.81704   0.43474   0.94673   0.00000  Uiso   1.00
C192   C     0.77991   0.45212   0.07386   0.00000  Uiso   1.00
C193   C     0.71099   0.48886   0.22265   0.00000  Uiso   1.00
C194   C     0.95720   0.39231   0.99236   0.00000  Uiso   1.00
C195   C     0.00489   0.40826   0.90451   0.00000  Uiso   1.00
C196   C     0.05368   0.41353   0.01233   0.00000  Uiso   1.00
C197   C     0.14321   0.42793   0.12550   0.00000  Uiso   1.00
C198   C     0.90126   0.36508   0.24869   0.00000  Uiso   1.00
C199   C     0.88821   0.32984   0.12243   0.00000  Uiso   1.00
C200   C     0.87809   0.29123   0.18096   0.00000  Uiso   1.00
C201   C     0.86693   0.26325   0.04377   0.00000  Uiso   1.00
C202   C     0.85613   0.39640   0.20416   0.00000  Uiso   1.00
C203   C     0.81906   0.41374   0.33142   0.00000  Uiso   1.00
C204   C     0.78090   0.44179   0.26306   0.00000  Uiso   1.00
C205   C     0.95819   0.38200   0.18122   0.00000  Uiso   1.00
C206   C     0.00691   0.38726   0.28920   0.00000  Uiso   1.00
C207   C     0.05467   0.40321   0.20153   0.00000  Uiso   1.00
H208   H     0.89867   0.39208   0.75396   0.00000  Uiso   1.00
H209   H     0.87530   0.32021   0.65013   0.00000  Uiso   1.00
H210   H     0.81629   0.44271   0.80058   0.00000  Uiso   1.00
H211   H     0.00411   0.41623   0.75836   0.00000  Uiso   1.00
H212   H     0.84982   0.23598   0.61831   0.00000  Uiso   1.00
H213   H     0.72539   0.49429   0.93555   0.00000  Uiso   1.00
H214   H     0.12145   0.43845   0.84653   0.00000  Uiso   1.00
H215   H     0.90203   0.35706   0.39573   0.00000  Uiso   1.00
H216   H     0.87886   0.28326   0.32712   0.00000  Uiso   1.00
H217   H     0.81984   0.40576   0.47756   0.00000  Uiso   1.00
H218   H     0.00766   0.37928   0.43534   0.00000  Uiso   1.00
H219   H     0.85270   0.20599   0.16778   0.00000  Uiso   1.00
H220   H     0.72827   0.46430   0.48502   0.00000  Uiso   1.00
H221   H     0.12433   0.40847   0.39599   0.00000  Uiso   1.00
O222   O     0.83594   0.17308   0.83634   0.00000  Uiso   1.00
O223   O     0.67270   0.51197   0.25254   0.00000  Uiso   1.00
O224   O     0.19232   0.43871   0.13574   0.00000  Uiso   1.00
N225   N     0.85369   0.23905   0.75704   0.00000  Uiso   1.00
N226   N     0.73735   0.48055   0.05363   0.00000  Uiso   1.00
N227   N     0.10763   0.42836   0.97042   0.00000  Uiso   1.00
N228   N     0.85524   0.22291   0.05271   0.00000  Uiso   1.00
N229   N     0.73890   0.46441   0.34930   0.00000  Uiso   1.00
N230   N     0.10918   0.41222   0.26608   0.00000  Uiso   1.00
C231   C     0.95750   0.11818   0.59767   0.00000  Uiso   1.00
C232   C     0.97088   0.16189   0.56418   0.00000  Uiso   1.00
C233   C     0.98326   0.18972   0.70077   0.00000  Uiso   1.00
C234   C     0.99432   0.22819   0.64169   0.00000  Uiso   1.00
C235   C     0.01532   0.29451   0.61841   0.00000  Uiso   1.00
C236   C     0.00077   0.09486   0.48215   0.00000  Uiso   1.00
C237   C     0.03827   0.06634   0.54979   0.00000  Uiso   1.00
C238   C     0.07449   0.04839   0.42164   0.00000  Uiso   1.00
C239   C     0.14186   0.01062   0.27100   0.00000  Uiso   1.00
C240   C     0.89923   0.11068   0.50831   0.00000  Uiso   1.00
C241   C     0.85136   0.09544   0.59792   0.00000  Uiso   1.00
C242   C     0.80210   0.09079   0.49177   0.00000  Uiso   1.00
C243   C     0.71182   0.07757   0.38175   0.00000  Uiso   1.00
C244   C     0.95512   0.13700   0.24983   0.00000  Uiso   1.00
C245   C     0.96959   0.17211   0.37524   0.00000  Uiso   1.00
C246   C     0.98063   0.21055   0.31593   0.00000  Uiso   1.00
C247   C     0.99303   0.23844   0.45241   0.00000  Uiso   1.00
C248   C     0.99948   0.10509   0.29322   0.00000  Uiso   1.00
C249   C     0.03565   0.08717   0.16494   0.00000  Uiso   1.00
C250   C     0.07320   0.05863   0.23236   0.00000  Uiso   1.00
C251   C     0.89794   0.12090   0.31937   0.00000  Uiso   1.00
C252   C     0.84874   0.11627   0.21307   0.00000  Uiso   1.00
C253   C     0.80081   0.10103   0.30250   0.00000  Uiso   1.00
H254   H     0.95850   0.11021   0.74476   0.00000  Uiso   1.00
H255   H     0.98425   0.18179   0.84697   0.00000  Uiso   1.00
H256   H     0.03925   0.05843   0.69600   0.00000  Uiso   1.00
H257   H     0.85237   0.08753   0.74412   0.00000  Uiso   1.00
H258   H     0.01226   0.26567   0.87697   0.00000  Uiso   1.00
H259   H     0.12821   0.00554   0.55863   0.00000  Uiso   1.00
H260   H     0.73414   0.06688   0.66011   0.00000  Uiso   1.00
H261   H     0.95412   0.14496   0.10273   0.00000  Uiso   1.00
H262   H     0.97963   0.21846   0.16971   0.00000  Uiso   1.00
H263   H     0.03464   0.09509   0.01874   0.00000  Uiso   1.00
H264   H     0.84776   0.12419   0.06687   0.00000  Uiso   1.00
H265   H     0.00851   0.29542   0.32728   0.00000  Uiso   1.00
H266   H     0.12447   0.03529   0.00894   0.00000  Uiso   1.00
H267   H     0.73040   0.09664   0.11041   0.00000  Uiso   1.00
O268   O     0.02726   0.32826   0.65776   0.00000  Uiso   1.00
O269   O     0.17939   0.98697   0.24012   0.00000  Uiso   1.00
O270   O     0.66238   0.06747   0.37325   0.00000  Uiso   1.00
N271   N     0.00786   0.26258   0.73841   0.00000  Uiso   1.00
N272   N     0.11628   0.01938   0.44079   0.00000  Uiso   1.00
N273   N     0.74786   0.07673   0.53565   0.00000  Uiso   1.00
N274   N     0.00585   0.27860   0.44262   0.00000  Uiso   1.00
N275   N     0.11427   0.03539   0.14500   0.00000  Uiso   1.00
N276   N     0.74585   0.09274   0.23986   0.00000  Uiso   1.00
C277   C     0.10056   0.61595   0.90099   0.00000  Uiso   1.00
C278   C     0.11278   0.65985   0.93357   0.00000  Uiso   1.00
C279   C     0.12393   0.68778   0.79627   0.00000  Uiso   1.00
C280   C     0.13406   0.72643   0.85458   0.00000  Uiso   1.00
C281   C     0.15322   0.79303   0.87644   0.00000  Uiso   1.00
C282   C     0.14485   0.59330   0.01531   0.00000  Uiso   1.00
C283   C     0.18296   0.56526   0.94673   0.00000  Uiso   1.00
C284   C     0.22009   0.54788   0.07386   0.00000  Uiso   1.00
C285   C     0.28901   0.51114   0.22265   0.00000  Uiso   1.00
C286   C     0.04280   0.60769   0.99236   0.00000  Uiso   1.00
C287   C     0.99511   0.59174   0.90451   0.00000  Uiso   1.00
C288   C     0.94632   0.58647   0.01233   0.00000  Uiso   1.00
C289   C     0.85679   0.57207   0.12550   0.00000  Uiso   1.00
C290   C     0.09874   0.63492   0.24869   0.00000  Uiso   1.00
C291   C     0.11179   0.67016   0.12243   0.00000  Uiso   1.00
C292   C     0.12191   0.70877   0.18096   0.00000  Uiso   1.00
C293   C     0.13307   0.73675   0.04377   0.00000  Uiso   1.00
C294   C     0.14387   0.60360   0.20416   0.00000  Uiso   1.00
C295   C     0.18094   0.58626   0.33142   0.00000  Uiso   1.00
C296   C     0.21910   0.55821   0.26306   0.00000  Uiso   1.00
C297   C     0.04181   0.61800   0.18122   0.00000  Uiso   1.00
C298   C     0.99309   0.61274   0.28920   0.00000  Uiso   1.00
C299   C     0.94533   0.59679   0.20153   0.00000  Uiso   1.00
H300   H     0.10133   0.60792   0.75396   0.00000  Uiso   1.00
H301   H     0.12470   0.67979   0.65013   0.00000  Uiso   1.00
H302   H     0.18371   0.55729   0.80058   0.00000  Uiso   1.00
H303   H     0.99589   0.58377   0.75836   0.00000  Uiso   1.00
H304   H     0.15018   0.76402   0.61831   0.00000  Uiso   1.00
H305   H     0.27461   0.50571   0.93555   0.00000  Uiso   1.00
H306   H     0.87855   0.56155   0.84653   0.00000  Uiso   1.00
H307   H     0.09797   0.64294   0.39573   0.00000  Uiso   1.00
H308   H     0.12114   0.71674   0.32712   0.00000  Uiso   1.00
H309   H     0.18016   0.59424   0.47756   0.00000  Uiso   1.00
H310   H     0.99234   0.62072   0.43534   0.00000  Uiso   1.00
H311   H     0.14730   0.79401   0.16778   0.00000  Uiso   1.00
H312   H     0.27173   0.53570   0.48502   0.00000  Uiso   1.00
H313   H     0.87567   0.59153   0.39599   0.00000  Uiso   1.00
O314   O     0.16406   0.82692   0.83634   0.00000  Uiso   1.00
O315   O     0.32730   0.48803   0.25254   0.00000  Uiso   1.00
O316   O     0.80768   0.56129   0.13574   0.00000  Uiso   1.00
N317   N     0.14631   0.76095   0.75704   0.00000  Uiso   1.00
N318   N     0.26265   0.51945   0.05363   0.00000  Uiso   1.00
N319   N     0.89237   0.57164   0.97042   0.00000  Uiso   1.00
N320   N     0.14476   0.77709   0.05271   0.00000  Uiso   1.00
N321   N     0.26110   0.53559   0.34930   0.00000  Uiso   1.00
N322   N     0.89082   0.58778   0.26608   0.00000  Uiso   1.00
C323   C     0.04250   0.88182   0.59767   0.00000  Uiso   1.00
C324   C     0.02912   0.83811   0.56418   0.00000  Uiso   1.00
C325   C     0.01674   0.81028   0.70077   0.00000  Uiso   1.00
C326   C     0.00568   0.77181   0.64169   0.00000  Uiso   1.00
C327   C     0.98468   0.70549   0.61841   0.00000  Uiso   1.00
C328   C     0.99923   0.90514   0.48215   0.00000  Uiso   1.00
C329   C     0.96173   0.93366   0.54979   0.00000  Uiso   1.00
C330   C     0.92551   0.95161   0.42164   0.00000  Uiso   1.00
C331   C     0.85814   0.98938   0.27100   0.00000  Uiso   1.00
C332   C     0.10077   0.88932   0.50831   0.00000  Uiso   1.00
C333   C     0.14864   0.90456   0.59792   0.00000  Uiso   1.00
C334   C     0.19790   0.90921   0.49177   0.00000  Uiso   1.00
C335   C     0.28818   0.92243   0.38175   0.00000  Uiso   1.00
C336   C     0.04488   0.86300   0.24983   0.00000  Uiso   1.00
C337   C     0.03041   0.82789   0.37524   0.00000  Uiso   1.00
C338   C     0.01937   0.78945   0.31593   0.00000  Uiso   1.00
C339   C     0.00697   0.76156   0.45241   0.00000  Uiso   1.00
C340   C     0.00052   0.89491   0.29322   0.00000  Uiso   1.00
C341   C     0.96435   0.91283   0.16494   0.00000  Uiso   1.00
C342   C     0.92680   0.94137   0.23236   0.00000  Uiso   1.00
C343   C     0.10206   0.87910   0.31937   0.00000  Uiso   1.00
C344   C     0.15126   0.88373   0.21307   0.00000  Uiso   1.00
C345   C     0.19919   0.89897   0.30250   0.00000  Uiso   1.00
H346   H     0.04150   0.88979   0.74476   0.00000  Uiso   1.00
H347   H     0.01575   0.81821   0.84697   0.00000  Uiso   1.00
H348   H     0.96075   0.94157   0.69600   0.00000  Uiso   1.00
H349   H     0.14763   0.91247   0.74412   0.00000  Uiso   1.00
H350   H     0.98774   0.73433   0.87697   0.00000  Uiso   1.00
H351   H     0.87179   0.99446   0.55863   0.00000  Uiso   1.00
H352   H     0.26586   0.93312   0.66011   0.00000  Uiso   1.00
H353   H     0.04588   0.85504   0.10273   0.00000  Uiso   1.00
H354   H     0.02037   0.78154   0.16971   0.00000  Uiso   1.00
H355   H     0.96536   0.90491   0.01874   0.00000  Uiso   1.00
H356   H     0.15224   0.87581   0.06687   0.00000  Uiso   1.00
H357   H     0.99149   0.70458   0.32728   0.00000  Uiso   1.00
H358   H     0.87553   0.96471   0.00894   0.00000  Uiso   1.00
H359   H     0.26960   0.90336   0.11041   0.00000  Uiso   1.00
O360   O     0.97274   0.67174   0.65776   0.00000  Uiso   1.00
O361   O     0.82061   0.01303   0.24012   0.00000  Uiso   1.00
O362   O     0.33762   0.93253   0.37325   0.00000  Uiso   1.00
N363   N     0.99214   0.73742   0.73841   0.00000  Uiso   1.00
N364   N     0.88372   0.98062   0.44079   0.00000  Uiso   1.00
N365   N     0.25214   0.92327   0.53565   0.00000  Uiso   1.00
N366   N     0.99415   0.72140   0.44262   0.00000  Uiso   1.00
N367   N     0.88573   0.96461   0.14500   0.00000  Uiso   1.00
N368   N     0.25415   0.90726   0.23986   0.00000  Uiso   1.00
