data_job_05516
_audit_creation_date              2018-12-19
_audit_creation_method            'Materials Studio'
_symmetry_space_group_name_H-M    'P1'
_symmetry_Int_Tables_number       1
_symmetry_cell_setting            triclinic
loop_
_symmetry_equiv_pos_as_xyz
  x,y,z
_cell_length_a                    16.8472
_cell_length_b                    18.7914
_cell_length_c                    15.7139
_cell_angle_alpha                 90.0000
_cell_angle_beta                  90.0000
_cell_angle_gamma                 90.0000
loop_
_atom_site_label
_atom_site_type_symbol
_atom_site_fract_x
_atom_site_fract_y
_atom_site_fract_z
_atom_site_U_iso_or_equiv
_atom_site_adp_type
_atom_site_occupancy
C1     C     0.00804   0.83471   0.91224   0.00000  Uiso   1.00
C2     C     0.03456   0.76221   0.87922   0.00000  Uiso   1.00
C3     C     0.07992   0.75031   0.80688   0.00000  Uiso   1.00
C4     C     0.09791   0.68007   0.78743   0.00000  Uiso   1.00
C5     C     0.14309   0.57604   0.72835   0.00000  Uiso   1.00
C6     C     0.91779   0.83127   0.91851   0.00000  Uiso   1.00
C7     C     0.86497   0.87745   0.87921   0.00000  Uiso   1.00
C8     C     0.78467   0.86535   0.89284   0.00000  Uiso   1.00
C9     C     0.64856   0.86857   0.89482   0.00000  Uiso   1.00
C10    C     0.03839   0.83968   0.00347   0.00000  Uiso   1.00
C11    C     0.08694   0.89294   0.03563   0.00000  Uiso   1.00
C12    C     0.10816   0.88792   0.12080   0.00000  Uiso   1.00
C13    C     0.15929   0.90420   0.25469   0.00000  Uiso   1.00
C14    C     0.95935   0.73113   0.00633   0.00000  Uiso   1.00
C15    C     0.00811   0.70594   0.93032   0.00000  Uiso   1.00
C16    C     0.02605   0.63570   0.91098   0.00000  Uiso   1.00
C17    C     0.07142   0.62370   0.83862   0.00000  Uiso   1.00
C18    C     0.89135   0.77501   0.96961   0.00000  Uiso   1.00
C19    C     0.81110   0.76284   0.98331   0.00000  Uiso   1.00
C20    C     0.75818   0.80898   0.94404   0.00000  Uiso   1.00
C21    C     0.01194   0.78341   0.05458   0.00000  Uiso   1.00
C22    C     0.03308   0.77832   0.13972   0.00000  Uiso   1.00
C23    C     0.08166   0.83156   0.17200   0.00000  Uiso   1.00
H24    H     0.02862   0.87852   0.87246   0.00000  Uiso   1.00
H25    H     0.10036   0.79387   0.76735   0.00000  Uiso   1.00
H26    H     0.88545   0.92099   0.83968   0.00000  Uiso   1.00
H27    H     0.10740   0.93647   0.99606   0.00000  Uiso   1.00
H28    H     0.16822   0.67520   0.67333   0.00000  Uiso   1.00
H29    H     0.71507   0.94325   0.82587   0.00000  Uiso   1.00
H30    H     0.18307   0.97590   0.15564   0.00000  Uiso   1.00
H31    H     0.93876   0.68732   0.04612   0.00000  Uiso   1.00
H32    H     0.00557   0.59217   0.95053   0.00000  Uiso   1.00
H33    H     0.79066   0.71930   0.02286   0.00000  Uiso   1.00
H34    H     0.01260   0.73478   0.17925   0.00000  Uiso   1.00
H35    H     0.09128   0.51149   0.82201   0.00000  Uiso   1.00
H36    H     0.63813   0.77956   0.97455   0.00000  Uiso   1.00
H37    H     0.10614   0.81220   0.30432   0.00000  Uiso   1.00
O38    O     0.17530   0.53420   0.68164   0.00000  Uiso   1.00
O39    O     0.58079   0.88589   0.88178   0.00000  Uiso   1.00
O40    O     0.19480   0.92872   0.31442   0.00000  Uiso   1.00
N41    N     0.14095   0.64973   0.72145   0.00000  Uiso   1.00
N42    N     0.71729   0.90034   0.86405   0.00000  Uiso   1.00
N43    N     0.15482   0.93087   0.17236   0.00000  Uiso   1.00
N44    N     0.09955   0.56164   0.80145   0.00000  Uiso   1.00
N45    N     0.67589   0.81225   0.94405   0.00000  Uiso   1.00
N46    N     0.11342   0.84278   0.25237   0.00000  Uiso   1.00
C47    C     0.49196   0.66529   0.41224   0.00000  Uiso   1.00
C48    C     0.46544   0.73779   0.37922   0.00000  Uiso   1.00
C49    C     0.42008   0.74969   0.30688   0.00000  Uiso   1.00
C50    C     0.40209   0.81993   0.28743   0.00000  Uiso   1.00
C51    C     0.35691   0.92396   0.22835   0.00000  Uiso   1.00
C52    C     0.58221   0.66873   0.41851   0.00000  Uiso   1.00
C53    C     0.63503   0.62255   0.37921   0.00000  Uiso   1.00
C54    C     0.71533   0.63465   0.39284   0.00000  Uiso   1.00
C55    C     0.85144   0.63143   0.39482   0.00000  Uiso   1.00
C56    C     0.46161   0.66032   0.50347   0.00000  Uiso   1.00
C57    C     0.41306   0.60706   0.53563   0.00000  Uiso   1.00
C58    C     0.39184   0.61208   0.62080   0.00000  Uiso   1.00
C59    C     0.34071   0.59580   0.75469   0.00000  Uiso   1.00
C60    C     0.54065   0.76887   0.50633   0.00000  Uiso   1.00
C61    C     0.49189   0.79406   0.43032   0.00000  Uiso   1.00
C62    C     0.47395   0.86430   0.41098   0.00000  Uiso   1.00
C63    C     0.42858   0.87630   0.33862   0.00000  Uiso   1.00
C64    C     0.60865   0.72499   0.46961   0.00000  Uiso   1.00
C65    C     0.68890   0.73716   0.48331   0.00000  Uiso   1.00
C66    C     0.74182   0.69102   0.44404   0.00000  Uiso   1.00
C67    C     0.48806   0.71659   0.55458   0.00000  Uiso   1.00
C68    C     0.46692   0.72168   0.63972   0.00000  Uiso   1.00
C69    C     0.41834   0.66844   0.67200   0.00000  Uiso   1.00
H70    H     0.47138   0.62148   0.37246   0.00000  Uiso   1.00
H71    H     0.39964   0.70613   0.26735   0.00000  Uiso   1.00
H72    H     0.61455   0.57901   0.33968   0.00000  Uiso   1.00
H73    H     0.39260   0.56353   0.49606   0.00000  Uiso   1.00
H74    H     0.33178   0.82480   0.17333   0.00000  Uiso   1.00
H75    H     0.78493   0.55675   0.32587   0.00000  Uiso   1.00
H76    H     0.31693   0.52410   0.65564   0.00000  Uiso   1.00
H77    H     0.56124   0.81268   0.54612   0.00000  Uiso   1.00
H78    H     0.49443   0.90783   0.45053   0.00000  Uiso   1.00
H79    H     0.70934   0.78070   0.52286   0.00000  Uiso   1.00
H80    H     0.48740   0.76522   0.67925   0.00000  Uiso   1.00
H81    H     0.40872   0.98851   0.32201   0.00000  Uiso   1.00
H82    H     0.86187   0.72044   0.47455   0.00000  Uiso   1.00
H83    H     0.39386   0.68780   0.80432   0.00000  Uiso   1.00
O84    O     0.32470   0.96580   0.18164   0.00000  Uiso   1.00
O85    O     0.91921   0.61411   0.38178   0.00000  Uiso   1.00
O86    O     0.30520   0.57128   0.81442   0.00000  Uiso   1.00
N87    N     0.35905   0.85027   0.22145   0.00000  Uiso   1.00
N88    N     0.78271   0.59966   0.36405   0.00000  Uiso   1.00
N89    N     0.34518   0.56913   0.67236   0.00000  Uiso   1.00
N90    N     0.40045   0.93836   0.30145   0.00000  Uiso   1.00
N91    N     0.82411   0.68775   0.44405   0.00000  Uiso   1.00
N92    N     0.38658   0.65722   0.75237   0.00000  Uiso   1.00
C93    C     0.99196   0.83471   0.58776   0.00000  Uiso   1.00
C94    C     0.96544   0.76221   0.62078   0.00000  Uiso   1.00
C95    C     0.92008   0.75031   0.69312   0.00000  Uiso   1.00
C96    C     0.90209   0.68007   0.71257   0.00000  Uiso   1.00
C97    C     0.85691   0.57604   0.77165   0.00000  Uiso   1.00
C98    C     0.08221   0.83127   0.58149   0.00000  Uiso   1.00
C99    C     0.13503   0.87745   0.62079   0.00000  Uiso   1.00
C100   C     0.21533   0.86535   0.60716   0.00000  Uiso   1.00
C101   C     0.35144   0.86857   0.60518   0.00000  Uiso   1.00
C102   C     0.96161   0.83968   0.49653   0.00000  Uiso   1.00
C103   C     0.91306   0.89294   0.46437   0.00000  Uiso   1.00
C104   C     0.89184   0.88792   0.37920   0.00000  Uiso   1.00
C105   C     0.84071   0.90420   0.24531   0.00000  Uiso   1.00
C106   C     0.04065   0.73113   0.49367   0.00000  Uiso   1.00
C107   C     0.99189   0.70594   0.56968   0.00000  Uiso   1.00
C108   C     0.97395   0.63570   0.58902   0.00000  Uiso   1.00
C109   C     0.92858   0.62370   0.66138   0.00000  Uiso   1.00
C110   C     0.10865   0.77501   0.53039   0.00000  Uiso   1.00
C111   C     0.18890   0.76284   0.51669   0.00000  Uiso   1.00
C112   C     0.24182   0.80898   0.55596   0.00000  Uiso   1.00
C113   C     0.98806   0.78341   0.44542   0.00000  Uiso   1.00
C114   C     0.96692   0.77832   0.36028   0.00000  Uiso   1.00
C115   C     0.91834   0.83156   0.32800   0.00000  Uiso   1.00
H116   H     0.97138   0.87852   0.62754   0.00000  Uiso   1.00
H117   H     0.89964   0.79387   0.73265   0.00000  Uiso   1.00
H118   H     0.11455   0.92099   0.66032   0.00000  Uiso   1.00
H119   H     0.89260   0.93647   0.50394   0.00000  Uiso   1.00
H120   H     0.83178   0.67520   0.82667   0.00000  Uiso   1.00
H121   H     0.28493   0.94325   0.67413   0.00000  Uiso   1.00
H122   H     0.81693   0.97590   0.34436   0.00000  Uiso   1.00
H123   H     0.06124   0.68732   0.45388   0.00000  Uiso   1.00
H124   H     0.99443   0.59217   0.54947   0.00000  Uiso   1.00
H125   H     0.20934   0.71930   0.47714   0.00000  Uiso   1.00
H126   H     0.98740   0.73478   0.32075   0.00000  Uiso   1.00
H127   H     0.90872   0.51149   0.67799   0.00000  Uiso   1.00
H128   H     0.36187   0.77956   0.52545   0.00000  Uiso   1.00
H129   H     0.89386   0.81220   0.19568   0.00000  Uiso   1.00
O130   O     0.82470   0.53420   0.81836   0.00000  Uiso   1.00
O131   O     0.41921   0.88589   0.61822   0.00000  Uiso   1.00
O132   O     0.80520   0.92872   0.18558   0.00000  Uiso   1.00
N133   N     0.85905   0.64973   0.77855   0.00000  Uiso   1.00
N134   N     0.28271   0.90034   0.63595   0.00000  Uiso   1.00
N135   N     0.84518   0.93087   0.32764   0.00000  Uiso   1.00
N136   N     0.90045   0.56164   0.69855   0.00000  Uiso   1.00
N137   N     0.32411   0.81225   0.55595   0.00000  Uiso   1.00
N138   N     0.88658   0.84278   0.24763   0.00000  Uiso   1.00
C139   C     0.50804   0.66529   0.08776   0.00000  Uiso   1.00
C140   C     0.53456   0.73779   0.12078   0.00000  Uiso   1.00
C141   C     0.57992   0.74969   0.19312   0.00000  Uiso   1.00
C142   C     0.59791   0.81993   0.21257   0.00000  Uiso   1.00
C143   C     0.64309   0.92396   0.27165   0.00000  Uiso   1.00
C144   C     0.41779   0.66873   0.08149   0.00000  Uiso   1.00
C145   C     0.36497   0.62255   0.12079   0.00000  Uiso   1.00
C146   C     0.28467   0.63465   0.10716   0.00000  Uiso   1.00
C147   C     0.14856   0.63143   0.10518   0.00000  Uiso   1.00
C148   C     0.53839   0.66032   0.99653   0.00000  Uiso   1.00
C149   C     0.58694   0.60706   0.96437   0.00000  Uiso   1.00
C150   C     0.60816   0.61208   0.87920   0.00000  Uiso   1.00
C151   C     0.65929   0.59580   0.74531   0.00000  Uiso   1.00
C152   C     0.45935   0.76887   0.99367   0.00000  Uiso   1.00
C153   C     0.50811   0.79406   0.06968   0.00000  Uiso   1.00
C154   C     0.52605   0.86430   0.08902   0.00000  Uiso   1.00
C155   C     0.57142   0.87630   0.16138   0.00000  Uiso   1.00
C156   C     0.39135   0.72499   0.03039   0.00000  Uiso   1.00
C157   C     0.31110   0.73716   0.01669   0.00000  Uiso   1.00
C158   C     0.25818   0.69102   0.05596   0.00000  Uiso   1.00
C159   C     0.51194   0.71659   0.94542   0.00000  Uiso   1.00
C160   C     0.53308   0.72168   0.86028   0.00000  Uiso   1.00
C161   C     0.58166   0.66844   0.82800   0.00000  Uiso   1.00
H162   H     0.52862   0.62148   0.12754   0.00000  Uiso   1.00
H163   H     0.60036   0.70613   0.23265   0.00000  Uiso   1.00
H164   H     0.38545   0.57901   0.16032   0.00000  Uiso   1.00
H165   H     0.60740   0.56353   0.00394   0.00000  Uiso   1.00
H166   H     0.66822   0.82480   0.32667   0.00000  Uiso   1.00
H167   H     0.21507   0.55675   0.17413   0.00000  Uiso   1.00
H168   H     0.68307   0.52410   0.84436   0.00000  Uiso   1.00
H169   H     0.43876   0.81268   0.95388   0.00000  Uiso   1.00
H170   H     0.50557   0.90783   0.04947   0.00000  Uiso   1.00
H171   H     0.29066   0.78070   0.97714   0.00000  Uiso   1.00
H172   H     0.51260   0.76522   0.82075   0.00000  Uiso   1.00
H173   H     0.59128   0.98851   0.17799   0.00000  Uiso   1.00
H174   H     0.13813   0.72044   0.02545   0.00000  Uiso   1.00
H175   H     0.60614   0.68780   0.69568   0.00000  Uiso   1.00
O176   O     0.67530   0.96580   0.31836   0.00000  Uiso   1.00
O177   O     0.08079   0.61411   0.11822   0.00000  Uiso   1.00
O178   O     0.69480   0.57128   0.68558   0.00000  Uiso   1.00
N179   N     0.64095   0.85027   0.27855   0.00000  Uiso   1.00
N180   N     0.21729   0.59966   0.13595   0.00000  Uiso   1.00
N181   N     0.65482   0.56913   0.82764   0.00000  Uiso   1.00
N182   N     0.59955   0.93836   0.19855   0.00000  Uiso   1.00
N183   N     0.17589   0.68775   0.05595   0.00000  Uiso   1.00
N184   N     0.61342   0.65722   0.74763   0.00000  Uiso   1.00
C185   C     0.99196   0.16529   0.08776   0.00000  Uiso   1.00
C186   C     0.96544   0.23779   0.12078   0.00000  Uiso   1.00
C187   C     0.92008   0.24969   0.19312   0.00000  Uiso   1.00
C188   C     0.90209   0.31993   0.21257   0.00000  Uiso   1.00
C189   C     0.85691   0.42396   0.27165   0.00000  Uiso   1.00
C190   C     0.08221   0.16873   0.08149   0.00000  Uiso   1.00
C191   C     0.13503   0.12255   0.12079   0.00000  Uiso   1.00
C192   C     0.21533   0.13465   0.10716   0.00000  Uiso   1.00
C193   C     0.35144   0.13143   0.10518   0.00000  Uiso   1.00
C194   C     0.96161   0.16032   0.99653   0.00000  Uiso   1.00
C195   C     0.91306   0.10706   0.96437   0.00000  Uiso   1.00
C196   C     0.89184   0.11208   0.87920   0.00000  Uiso   1.00
C197   C     0.84071   0.09580   0.74531   0.00000  Uiso   1.00
C198   C     0.04065   0.26887   0.99367   0.00000  Uiso   1.00
C199   C     0.99189   0.29406   0.06968   0.00000  Uiso   1.00
C200   C     0.97395   0.36430   0.08902   0.00000  Uiso   1.00
C201   C     0.92858   0.37630   0.16138   0.00000  Uiso   1.00
C202   C     0.10865   0.22499   0.03039   0.00000  Uiso   1.00
C203   C     0.18890   0.23716   0.01669   0.00000  Uiso   1.00
C204   C     0.24182   0.19102   0.05596   0.00000  Uiso   1.00
C205   C     0.98806   0.21659   0.94542   0.00000  Uiso   1.00
C206   C     0.96692   0.22168   0.86028   0.00000  Uiso   1.00
C207   C     0.91834   0.16844   0.82800   0.00000  Uiso   1.00
H208   H     0.97138   0.12148   0.12754   0.00000  Uiso   1.00
H209   H     0.89964   0.20613   0.23265   0.00000  Uiso   1.00
H210   H     0.11455   0.07901   0.16032   0.00000  Uiso   1.00
H211   H     0.89260   0.06353   0.00394   0.00000  Uiso   1.00
H212   H     0.83178   0.32480   0.32667   0.00000  Uiso   1.00
H213   H     0.28493   0.05675   0.17413   0.00000  Uiso   1.00
H214   H     0.81693   0.02410   0.84436   0.00000  Uiso   1.00
H215   H     0.06124   0.31268   0.95388   0.00000  Uiso   1.00
H216   H     0.99443   0.40783   0.04947   0.00000  Uiso   1.00
H217   H     0.20934   0.28070   0.97714   0.00000  Uiso   1.00
H218   H     0.98740   0.26522   0.82075   0.00000  Uiso   1.00
H219   H     0.90872   0.48851   0.17799   0.00000  Uiso   1.00
H220   H     0.36187   0.22044   0.02545   0.00000  Uiso   1.00
H221   H     0.89386   0.18780   0.69568   0.00000  Uiso   1.00
O222   O     0.82470   0.46580   0.31836   0.00000  Uiso   1.00
O223   O     0.41921   0.11411   0.11822   0.00000  Uiso   1.00
O224   O     0.80520   0.07128   0.68558   0.00000  Uiso   1.00
N225   N     0.85905   0.35027   0.27855   0.00000  Uiso   1.00
N226   N     0.28271   0.09966   0.13595   0.00000  Uiso   1.00
N227   N     0.84518   0.06913   0.82764   0.00000  Uiso   1.00
N228   N     0.90045   0.43836   0.19855   0.00000  Uiso   1.00
N229   N     0.32411   0.18775   0.05595   0.00000  Uiso   1.00
N230   N     0.88658   0.15722   0.74763   0.00000  Uiso   1.00
C231   C     0.50804   0.33471   0.58776   0.00000  Uiso   1.00
C232   C     0.53456   0.26221   0.62078   0.00000  Uiso   1.00
C233   C     0.57992   0.25031   0.69312   0.00000  Uiso   1.00
C234   C     0.59791   0.18007   0.71257   0.00000  Uiso   1.00
C235   C     0.64309   0.07604   0.77165   0.00000  Uiso   1.00
C236   C     0.41779   0.33127   0.58149   0.00000  Uiso   1.00
C237   C     0.36497   0.37745   0.62079   0.00000  Uiso   1.00
C238   C     0.28467   0.36535   0.60716   0.00000  Uiso   1.00
C239   C     0.14856   0.36857   0.60518   0.00000  Uiso   1.00
C240   C     0.53839   0.33968   0.49653   0.00000  Uiso   1.00
C241   C     0.58694   0.39294   0.46437   0.00000  Uiso   1.00
C242   C     0.60816   0.38792   0.37920   0.00000  Uiso   1.00
C243   C     0.65929   0.40420   0.24531   0.00000  Uiso   1.00
C244   C     0.45935   0.23113   0.49367   0.00000  Uiso   1.00
C245   C     0.50811   0.20594   0.56968   0.00000  Uiso   1.00
C246   C     0.52605   0.13570   0.58902   0.00000  Uiso   1.00
C247   C     0.57142   0.12370   0.66138   0.00000  Uiso   1.00
C248   C     0.39135   0.27501   0.53039   0.00000  Uiso   1.00
C249   C     0.31110   0.26284   0.51669   0.00000  Uiso   1.00
C250   C     0.25818   0.30898   0.55596   0.00000  Uiso   1.00
C251   C     0.51194   0.28341   0.44542   0.00000  Uiso   1.00
C252   C     0.53308   0.27832   0.36028   0.00000  Uiso   1.00
C253   C     0.58166   0.33156   0.32800   0.00000  Uiso   1.00
H254   H     0.52862   0.37852   0.62754   0.00000  Uiso   1.00
H255   H     0.60036   0.29387   0.73265   0.00000  Uiso   1.00
H256   H     0.38545   0.42099   0.66032   0.00000  Uiso   1.00
H257   H     0.60740   0.43647   0.50394   0.00000  Uiso   1.00
H258   H     0.66822   0.17520   0.82667   0.00000  Uiso   1.00
H259   H     0.21507   0.44325   0.67413   0.00000  Uiso   1.00
H260   H     0.68307   0.47590   0.34436   0.00000  Uiso   1.00
H261   H     0.43876   0.18732   0.45388   0.00000  Uiso   1.00
H262   H     0.50557   0.09217   0.54947   0.00000  Uiso   1.00
H263   H     0.29066   0.21930   0.47714   0.00000  Uiso   1.00
H264   H     0.51260   0.23478   0.32075   0.00000  Uiso   1.00
H265   H     0.59128   0.01149   0.67799   0.00000  Uiso   1.00
H266   H     0.13813   0.27956   0.52545   0.00000  Uiso   1.00
H267   H     0.60614   0.31220   0.19568   0.00000  Uiso   1.00
O268   O     0.67530   0.03420   0.81836   0.00000  Uiso   1.00
O269   O     0.08079   0.38589   0.61822   0.00000  Uiso   1.00
O270   O     0.69480   0.42872   0.18558   0.00000  Uiso   1.00
N271   N     0.64095   0.14973   0.77855   0.00000  Uiso   1.00
N272   N     0.21729   0.40034   0.63595   0.00000  Uiso   1.00
N273   N     0.65482   0.43087   0.32764   0.00000  Uiso   1.00
N274   N     0.59955   0.06164   0.69855   0.00000  Uiso   1.00
N275   N     0.17589   0.31225   0.55595   0.00000  Uiso   1.00
N276   N     0.61342   0.34278   0.24763   0.00000  Uiso   1.00
C277   C     0.00804   0.16529   0.41224   0.00000  Uiso   1.00
C278   C     0.03456   0.23779   0.37922   0.00000  Uiso   1.00
C279   C     0.07992   0.24969   0.30688   0.00000  Uiso   1.00
C280   C     0.09791   0.31993   0.28743   0.00000  Uiso   1.00
C281   C     0.14309   0.42396   0.22835   0.00000  Uiso   1.00
C282   C     0.91779   0.16873   0.41851   0.00000  Uiso   1.00
C283   C     0.86497   0.12255   0.37921   0.00000  Uiso   1.00
C284   C     0.78467   0.13465   0.39284   0.00000  Uiso   1.00
C285   C     0.64856   0.13143   0.39482   0.00000  Uiso   1.00
C286   C     0.03839   0.16032   0.50347   0.00000  Uiso   1.00
C287   C     0.08694   0.10706   0.53563   0.00000  Uiso   1.00
C288   C     0.10816   0.11208   0.62080   0.00000  Uiso   1.00
C289   C     0.15929   0.09580   0.75469   0.00000  Uiso   1.00
C290   C     0.95935   0.26887   0.50633   0.00000  Uiso   1.00
C291   C     0.00811   0.29406   0.43032   0.00000  Uiso   1.00
C292   C     0.02605   0.36430   0.41098   0.00000  Uiso   1.00
C293   C     0.07142   0.37630   0.33862   0.00000  Uiso   1.00
C294   C     0.89135   0.22499   0.46961   0.00000  Uiso   1.00
C295   C     0.81110   0.23716   0.48331   0.00000  Uiso   1.00
C296   C     0.75818   0.19102   0.44404   0.00000  Uiso   1.00
C297   C     0.01194   0.21659   0.55458   0.00000  Uiso   1.00
C298   C     0.03308   0.22168   0.63972   0.00000  Uiso   1.00
C299   C     0.08166   0.16844   0.67200   0.00000  Uiso   1.00
H300   H     0.02862   0.12148   0.37246   0.00000  Uiso   1.00
H301   H     0.10036   0.20613   0.26735   0.00000  Uiso   1.00
H302   H     0.88545   0.07901   0.33968   0.00000  Uiso   1.00
H303   H     0.10740   0.06353   0.49606   0.00000  Uiso   1.00
H304   H     0.16822   0.32480   0.17333   0.00000  Uiso   1.00
H305   H     0.71507   0.05675   0.32587   0.00000  Uiso   1.00
H306   H     0.18307   0.02410   0.65564   0.00000  Uiso   1.00
H307   H     0.93876   0.31268   0.54612   0.00000  Uiso   1.00
H308   H     0.00557   0.40783   0.45053   0.00000  Uiso   1.00
H309   H     0.79066   0.28070   0.52286   0.00000  Uiso   1.00
H310   H     0.01260   0.26522   0.67925   0.00000  Uiso   1.00
H311   H     0.09128   0.48851   0.32201   0.00000  Uiso   1.00
H312   H     0.63813   0.22044   0.47455   0.00000  Uiso   1.00
H313   H     0.10614   0.18780   0.80432   0.00000  Uiso   1.00
O314   O     0.17530   0.46580   0.18164   0.00000  Uiso   1.00
O315   O     0.58079   0.11411   0.38178   0.00000  Uiso   1.00
O316   O     0.19480   0.07128   0.81442   0.00000  Uiso   1.00
N317   N     0.14095   0.35027   0.22145   0.00000  Uiso   1.00
N318   N     0.71729   0.09966   0.36405   0.00000  Uiso   1.00
N319   N     0.15482   0.06913   0.67236   0.00000  Uiso   1.00
N320   N     0.09955   0.43836   0.30145   0.00000  Uiso   1.00
N321   N     0.67589   0.18775   0.44405   0.00000  Uiso   1.00
N322   N     0.11342   0.15722   0.75237   0.00000  Uiso   1.00
C323   C     0.49196   0.33471   0.91224   0.00000  Uiso   1.00
C324   C     0.46544   0.26221   0.87922   0.00000  Uiso   1.00
C325   C     0.42008   0.25031   0.80688   0.00000  Uiso   1.00
C326   C     0.40209   0.18007   0.78743   0.00000  Uiso   1.00
C327   C     0.35691   0.07604   0.72835   0.00000  Uiso   1.00
C328   C     0.58221   0.33127   0.91851   0.00000  Uiso   1.00
C329   C     0.63503   0.37745   0.87921   0.00000  Uiso   1.00
C330   C     0.71533   0.36535   0.89284   0.00000  Uiso   1.00
C331   C     0.85144   0.36857   0.89482   0.00000  Uiso   1.00
C332   C     0.46161   0.33968   0.00347   0.00000  Uiso   1.00
C333   C     0.41306   0.39294   0.03563   0.00000  Uiso   1.00
C334   C     0.39184   0.38792   0.12080   0.00000  Uiso   1.00
C335   C     0.34071   0.40420   0.25469   0.00000  Uiso   1.00
C336   C     0.54065   0.23113   0.00633   0.00000  Uiso   1.00
C337   C     0.49189   0.20594   0.93032   0.00000  Uiso   1.00
C338   C     0.47395   0.13570   0.91098   0.00000  Uiso   1.00
C339   C     0.42858   0.12370   0.83862   0.00000  Uiso   1.00
C340   C     0.60865   0.27501   0.96961   0.00000  Uiso   1.00
C341   C     0.68890   0.26284   0.98331   0.00000  Uiso   1.00
C342   C     0.74182   0.30898   0.94404   0.00000  Uiso   1.00
C343   C     0.48806   0.28341   0.05458   0.00000  Uiso   1.00
C344   C     0.46692   0.27832   0.13972   0.00000  Uiso   1.00
C345   C     0.41834   0.33156   0.17200   0.00000  Uiso   1.00
H346   H     0.47138   0.37852   0.87246   0.00000  Uiso   1.00
H347   H     0.39964   0.29387   0.76735   0.00000  Uiso   1.00
H348   H     0.61455   0.42099   0.83968   0.00000  Uiso   1.00
H349   H     0.39260   0.43647   0.99606   0.00000  Uiso   1.00
H350   H     0.33178   0.17520   0.67333   0.00000  Uiso   1.00
H351   H     0.78493   0.44325   0.82587   0.00000  Uiso   1.00
H352   H     0.31693   0.47590   0.15564   0.00000  Uiso   1.00
H353   H     0.56124   0.18732   0.04612   0.00000  Uiso   1.00
H354   H     0.49443   0.09217   0.95053   0.00000  Uiso   1.00
H355   H     0.70934   0.21930   0.02286   0.00000  Uiso   1.00
H356   H     0.48740   0.23478   0.17925   0.00000  Uiso   1.00
H357   H     0.40872   0.01149   0.82201   0.00000  Uiso   1.00
H358   H     0.86187   0.27956   0.97455   0.00000  Uiso   1.00
H359   H     0.39386   0.31220   0.30432   0.00000  Uiso   1.00
O360   O     0.32470   0.03420   0.68164   0.00000  Uiso   1.00
O361   O     0.91921   0.38589   0.88178   0.00000  Uiso   1.00
O362   O     0.30520   0.42872   0.31442   0.00000  Uiso   1.00
N363   N     0.35905   0.14973   0.72145   0.00000  Uiso   1.00
N364   N     0.78271   0.40034   0.86405   0.00000  Uiso   1.00
N365   N     0.34518   0.43087   0.17236   0.00000  Uiso   1.00
N366   N     0.40045   0.06164   0.80145   0.00000  Uiso   1.00
N367   N     0.82411   0.31225   0.94405   0.00000  Uiso   1.00
N368   N     0.38658   0.34278   0.25237   0.00000  Uiso   1.00
