data_job_04397
_audit_creation_date              2018-12-19
_audit_creation_method            'Materials Studio'
_symmetry_space_group_name_H-M    'P1'
_symmetry_Int_Tables_number       1
_symmetry_cell_setting            triclinic
loop_
_symmetry_equiv_pos_as_xyz
  x,y,z
_cell_length_a                    12.5376
_cell_length_b                    17.4732
_cell_length_c                    12.3113
_cell_angle_alpha                 90.0000
_cell_angle_beta                  72.5519
_cell_angle_gamma                 90.0000
loop_
_atom_site_label
_atom_site_type_symbol
_atom_site_fract_x
_atom_site_fract_y
_atom_site_fract_z
_atom_site_U_iso_or_equiv
_atom_site_adp_type
_atom_site_occupancy
C1     C     0.37515   0.16697   0.63241   0.00000  Uiso   1.00
C2     C     0.42744   0.17016   0.50357   0.00000  Uiso   1.00
C3     C     0.43291   0.23434   0.43570   0.00000  Uiso   1.00
C4     C     0.48414   0.22549   0.31965   0.00000  Uiso   1.00
C5     C     0.55857   0.24117   0.12664   0.00000  Uiso   1.00
C6     C     0.28714   0.10390   0.65475   0.00000  Uiso   1.00
C7     C     0.17466   0.11237   0.71401   0.00000  Uiso   1.00
C8     C     0.10778   0.04775   0.72523   0.00000  Uiso   1.00
C9     C     0.96442   0.96054   0.76701   0.00000  Uiso   1.00
C10    C     0.46653   0.13787   0.68037   0.00000  Uiso   1.00
C11    C     0.50485   0.17489   0.76120   0.00000  Uiso   1.00
C12    C     0.58898   0.13885   0.79400   0.00000  Uiso   1.00
C13    C     0.72414   0.10438   0.87555   0.00000  Uiso   1.00
C14    C     0.45639   0.03714   0.54698   0.00000  Uiso   1.00
C15    C     0.47157   0.09964   0.45717   0.00000  Uiso   1.00
C16    C     0.52280   0.09070   0.34118   0.00000  Uiso   1.00
C17    C     0.52835   0.15485   0.27316   0.00000  Uiso   1.00
C18    C     0.33127   0.03339   0.60835   0.00000  Uiso   1.00
C19    C     0.26455   0.96873   0.61949   0.00000  Uiso   1.00
C20    C     0.15199   0.97710   0.67875   0.00000  Uiso   1.00
C21    C     0.51066   0.06735   0.63397   0.00000  Uiso   1.00
C22    C     0.59474   0.03125   0.66666   0.00000  Uiso   1.00
C23    C     0.63319   0.06820   0.74752   0.00000  Uiso   1.00
H24    H     0.34079   0.22187   0.66854   0.00000  Uiso   1.00
H25    H     0.39874   0.28890   0.47165   0.00000  Uiso   1.00
H26    H     0.14053   0.16695   0.74992   0.00000  Uiso   1.00
H27    H     0.47068   0.22945   0.79708   0.00000  Uiso   1.00
H28    H     0.48243   0.33211   0.23288   0.00000  Uiso   1.00
H29    H     0.93798   0.07497   0.81967   0.00000  Uiso   1.00
H30    H     0.63415   0.20677   0.91913   0.00000  Uiso   1.00
H31    H     0.49075   0.98224   0.51085   0.00000  Uiso   1.00
H32    H     0.55695   0.03612   0.30530   0.00000  Uiso   1.00
H33    H     0.29873   0.91417   0.58358   0.00000  Uiso   1.00
H34    H     0.62887   0.97668   0.63074   0.00000  Uiso   1.00
H35    H     0.61082   0.12694   0.09787   0.00000  Uiso   1.00
H36    H     0.06637   0.86980   0.68466   0.00000  Uiso   1.00
H37    H     0.76255   0.00161   0.78412   0.00000  Uiso   1.00
O38    O     0.58743   0.26929   0.03299   0.00000  Uiso   1.00
O39    O     0.87314   0.93193   0.80286   0.00000  Uiso   1.00
O40    O     0.78650   0.10485   0.93334   0.00000  Uiso   1.00
N41    N     0.50358   0.27643   0.22932   0.00000  Uiso   1.00
N42    N     0.99455   0.03602   0.77792   0.00000  Uiso   1.00
N43    N     0.64539   0.15924   0.87093   0.00000  Uiso   1.00
N44    N     0.57267   0.16604   0.15667   0.00000  Uiso   1.00
N45    N     0.06364   0.92563   0.70527   0.00000  Uiso   1.00
N46    N     0.71448   0.04884   0.79828   0.00000  Uiso   1.00
C47    C     0.99815   0.80663   0.21092   0.00000  Uiso   1.00
C48    C     0.94284   0.80360   0.33932   0.00000  Uiso   1.00
C49    C     0.93420   0.73926   0.40751   0.00000  Uiso   1.00
C50    C     0.88056   0.74830   0.52308   0.00000  Uiso   1.00
C51    C     0.80133   0.73282   0.71553   0.00000  Uiso   1.00
C52    C     0.08740   0.86875   0.19084   0.00000  Uiso   1.00
C53    C     0.20030   0.85918   0.13418   0.00000  Uiso   1.00
C54    C     0.26834   0.92307   0.12474   0.00000  Uiso   1.00
C55    C     0.41353   0.00874   0.08661   0.00000  Uiso   1.00
C56    C     0.90945   0.83695   0.16012   0.00000  Uiso   1.00
C57    C     0.87275   0.80066   0.07761   0.00000  Uiso   1.00
C58    C     0.79100   0.83778   0.04228   0.00000  Uiso   1.00
C59    C     0.65990   0.87409   0.95645   0.00000  Uiso   1.00
C60    C     0.91823   0.93709   0.29489   0.00000  Uiso   1.00
C61    C     0.89944   0.87446   0.38493   0.00000  Uiso   1.00
C62    C     0.84579   0.88360   0.50042   0.00000  Uiso   1.00
C63    C     0.83707   0.81928   0.56877   0.00000  Uiso   1.00
C64    C     0.04400   0.93961   0.23645   0.00000  Uiso   1.00
C65    C     0.11189   0.00352   0.22709   0.00000  Uiso   1.00
C66    C     0.22486   0.99405   0.17043   0.00000  Uiso   1.00
C67    C     0.86604   0.90781   0.20573   0.00000  Uiso   1.00
C68    C     0.78433   0.94500   0.17052   0.00000  Uiso   1.00
C69    C     0.74751   0.90877   0.08798   0.00000  Uiso   1.00
H70    H     0.03195   0.75147   0.17540   0.00000  Uiso   1.00
H71    H     0.96781   0.68444   0.37219   0.00000  Uiso   1.00
H72    H     0.23386   0.80434   0.09889   0.00000  Uiso   1.00
H73    H     0.90636   0.74583   0.04233   0.00000  Uiso   1.00
H74    H     0.87760   0.64137   0.61048   0.00000  Uiso   1.00
H75    H     0.43858   0.89421   0.03418   0.00000  Uiso   1.00
H76    H     0.74799   0.77082   0.91491   0.00000  Uiso   1.00
H77    H     0.88444   0.99226   0.33040   0.00000  Uiso   1.00
H78    H     0.81221   0.93844   0.53569   0.00000  Uiso   1.00
H79    H     0.07826   0.05835   0.26239   0.00000  Uiso   1.00
H80    H     0.75076   0.99983   0.20584   0.00000  Uiso   1.00
H81    H     0.75131   0.84753   0.74319   0.00000  Uiso   1.00
H82    H     0.31230   0.10037   0.16688   0.00000  Uiso   1.00
H83    H     0.62169   0.97698   0.04762   0.00000  Uiso   1.00
O84    O     0.76964   0.70471   0.80909   0.00000  Uiso   1.00
O85    O     0.50561   0.03642   0.05298   0.00000  Uiso   1.00
O86    O     0.59956   0.87454   0.89652   0.00000  Uiso   1.00
N87    N     0.85777   0.69727   0.61353   0.00000  Uiso   1.00
N88    N     0.38226   0.93366   0.07474   0.00000  Uiso   1.00
N89    N     0.73663   0.81831   0.96322   0.00000  Uiso   1.00
N90    N     0.78982   0.80821   0.68494   0.00000  Uiso   1.00
N91    N     0.31430   0.04459   0.14615   0.00000  Uiso   1.00
N92    N     0.66867   0.92924   0.03463   0.00000  Uiso   1.00
C93    C     0.62485   0.66697   0.36759   0.00000  Uiso   1.00
C94    C     0.57256   0.67016   0.49643   0.00000  Uiso   1.00
C95    C     0.56709   0.73434   0.56430   0.00000  Uiso   1.00
C96    C     0.51586   0.72549   0.68035   0.00000  Uiso   1.00
C97    C     0.44143   0.74117   0.87336   0.00000  Uiso   1.00
C98    C     0.71286   0.60390   0.34525   0.00000  Uiso   1.00
C99    C     0.82534   0.61237   0.28599   0.00000  Uiso   1.00
C100   C     0.89222   0.54775   0.27477   0.00000  Uiso   1.00
C101   C     0.03558   0.46054   0.23299   0.00000  Uiso   1.00
C102   C     0.53347   0.63787   0.31963   0.00000  Uiso   1.00
C103   C     0.49515   0.67489   0.23880   0.00000  Uiso   1.00
C104   C     0.41102   0.63885   0.20600   0.00000  Uiso   1.00
C105   C     0.27586   0.60438   0.12445   0.00000  Uiso   1.00
C106   C     0.54361   0.53714   0.45302   0.00000  Uiso   1.00
C107   C     0.52843   0.59964   0.54283   0.00000  Uiso   1.00
C108   C     0.47720   0.59070   0.65882   0.00000  Uiso   1.00
C109   C     0.47165   0.65485   0.72684   0.00000  Uiso   1.00
C110   C     0.66873   0.53339   0.39165   0.00000  Uiso   1.00
C111   C     0.73545   0.46873   0.38051   0.00000  Uiso   1.00
C112   C     0.84801   0.47710   0.32125   0.00000  Uiso   1.00
C113   C     0.48934   0.56735   0.36603   0.00000  Uiso   1.00
C114   C     0.40526   0.53125   0.33334   0.00000  Uiso   1.00
C115   C     0.36681   0.56820   0.25248   0.00000  Uiso   1.00
H116   H     0.65921   0.72187   0.33146   0.00000  Uiso   1.00
H117   H     0.60126   0.78890   0.52835   0.00000  Uiso   1.00
H118   H     0.85947   0.66695   0.25008   0.00000  Uiso   1.00
H119   H     0.52932   0.72945   0.20292   0.00000  Uiso   1.00
H120   H     0.51757   0.83211   0.76712   0.00000  Uiso   1.00
H121   H     0.06202   0.57497   0.18033   0.00000  Uiso   1.00
H122   H     0.36585   0.70677   0.08087   0.00000  Uiso   1.00
H123   H     0.50925   0.48224   0.48915   0.00000  Uiso   1.00
H124   H     0.44305   0.53612   0.69470   0.00000  Uiso   1.00
H125   H     0.70127   0.41417   0.41642   0.00000  Uiso   1.00
H126   H     0.37113   0.47668   0.36926   0.00000  Uiso   1.00
H127   H     0.38918   0.62694   0.90213   0.00000  Uiso   1.00
H128   H     0.93363   0.36980   0.31534   0.00000  Uiso   1.00
H129   H     0.23745   0.50161   0.21588   0.00000  Uiso   1.00
O130   O     0.41257   0.76929   0.96701   0.00000  Uiso   1.00
O131   O     0.12686   0.43193   0.19714   0.00000  Uiso   1.00
O132   O     0.21350   0.60485   0.06666   0.00000  Uiso   1.00
N133   N     0.49642   0.77643   0.77068   0.00000  Uiso   1.00
N134   N     0.00545   0.53602   0.22208   0.00000  Uiso   1.00
N135   N     0.35461   0.65924   0.12907   0.00000  Uiso   1.00
N136   N     0.42733   0.66604   0.84333   0.00000  Uiso   1.00
N137   N     0.93636   0.42563   0.29473   0.00000  Uiso   1.00
N138   N     0.28552   0.54884   0.20172   0.00000  Uiso   1.00
C139   C     0.00185   0.30663   0.78908   0.00000  Uiso   1.00
C140   C     0.05716   0.30360   0.66068   0.00000  Uiso   1.00
C141   C     0.06580   0.23926   0.59249   0.00000  Uiso   1.00
C142   C     0.11944   0.24830   0.47692   0.00000  Uiso   1.00
C143   C     0.19867   0.23282   0.28447   0.00000  Uiso   1.00
C144   C     0.91260   0.36875   0.80916   0.00000  Uiso   1.00
C145   C     0.79970   0.35918   0.86582   0.00000  Uiso   1.00
C146   C     0.73166   0.42307   0.87526   0.00000  Uiso   1.00
C147   C     0.58647   0.50874   0.91339   0.00000  Uiso   1.00
C148   C     0.09055   0.33695   0.83988   0.00000  Uiso   1.00
C149   C     0.12725   0.30066   0.92239   0.00000  Uiso   1.00
C150   C     0.20900   0.33778   0.95772   0.00000  Uiso   1.00
C151   C     0.34010   0.37409   0.04355   0.00000  Uiso   1.00
C152   C     0.08177   0.43709   0.70511   0.00000  Uiso   1.00
C153   C     0.10056   0.37446   0.61507   0.00000  Uiso   1.00
C154   C     0.15421   0.38360   0.49958   0.00000  Uiso   1.00
C155   C     0.16293   0.31928   0.43123   0.00000  Uiso   1.00
C156   C     0.95600   0.43961   0.76355   0.00000  Uiso   1.00
C157   C     0.88811   0.50352   0.77291   0.00000  Uiso   1.00
C158   C     0.77514   0.49405   0.82957   0.00000  Uiso   1.00
C159   C     0.13396   0.40781   0.79427   0.00000  Uiso   1.00
C160   C     0.21567   0.44500   0.82948   0.00000  Uiso   1.00
C161   C     0.25249   0.40877   0.91202   0.00000  Uiso   1.00
H162   H     0.96805   0.25147   0.82460   0.00000  Uiso   1.00
H163   H     0.03219   0.18444   0.62781   0.00000  Uiso   1.00
H164   H     0.76614   0.30434   0.90111   0.00000  Uiso   1.00
H165   H     0.09364   0.24583   0.95767   0.00000  Uiso   1.00
H166   H     0.12240   0.14137   0.38952   0.00000  Uiso   1.00
H167   H     0.56142   0.39421   0.96582   0.00000  Uiso   1.00
H168   H     0.25201   0.27082   0.08509   0.00000  Uiso   1.00
H169   H     0.11556   0.49226   0.66960   0.00000  Uiso   1.00
H170   H     0.18779   0.43844   0.46431   0.00000  Uiso   1.00
H171   H     0.92174   0.55835   0.73761   0.00000  Uiso   1.00
H172   H     0.24924   0.49983   0.79416   0.00000  Uiso   1.00
H173   H     0.24869   0.34753   0.25681   0.00000  Uiso   1.00
H174   H     0.68770   0.60037   0.83312   0.00000  Uiso   1.00
H175   H     0.37831   0.47698   0.95238   0.00000  Uiso   1.00
O176   O     0.23036   0.20471   0.19091   0.00000  Uiso   1.00
O177   O     0.49439   0.53642   0.94702   0.00000  Uiso   1.00
O178   O     0.40044   0.37454   0.10348   0.00000  Uiso   1.00
N179   N     0.14223   0.19727   0.38647   0.00000  Uiso   1.00
N180   N     0.61774   0.43366   0.92526   0.00000  Uiso   1.00
N181   N     0.26337   0.31831   0.03678   0.00000  Uiso   1.00
N182   N     0.21018   0.30821   0.31506   0.00000  Uiso   1.00
N183   N     0.68570   0.54459   0.85385   0.00000  Uiso   1.00
N184   N     0.33133   0.42924   0.96537   0.00000  Uiso   1.00
