data_job_00249
_audit_creation_date              2018-12-19
_audit_creation_method            'Materials Studio'
_symmetry_space_group_name_H-M    'P1'
_symmetry_Int_Tables_number       1
_symmetry_cell_setting            triclinic
loop_
_symmetry_equiv_pos_as_xyz
  x,y,z
_cell_length_a                    8.7060
_cell_length_b                    19.2552
_cell_length_c                    16.9228
_cell_angle_alpha                 90.0000
_cell_angle_beta                  115.2527
_cell_angle_gamma                 90.0000
loop_
_atom_site_label
_atom_site_type_symbol
_atom_site_fract_x
_atom_site_fract_y
_atom_site_fract_z
_atom_site_U_iso_or_equiv
_atom_site_adp_type
_atom_site_occupancy
C1     C     0.83609   0.81302   0.45409   0.00000  Uiso   1.00
C2     C     0.92837   0.84955   0.54179   0.00000  Uiso   1.00
C3     C     0.08751   0.88025   0.57205   0.00000  Uiso   1.00
C4     C     0.14992   0.91099   0.65404   0.00000  Uiso   1.00
C5     C     0.30746   0.96768   0.78265   0.00000  Uiso   1.00
C6     C     0.79677   0.73997   0.47507   0.00000  Uiso   1.00
C7     C     0.84525   0.67854   0.44922   0.00000  Uiso   1.00
C8     C     0.79686   0.61705   0.47504   0.00000  Uiso   1.00
C9     C     0.74999   0.50361   0.50000   0.00000  Uiso   1.00
C10    C     0.66517   0.84954   0.40834   0.00000  Uiso   1.00
C11    C     0.60296   0.88022   0.32636   0.00000  Uiso   1.00
C12    C     0.44374   0.91096   0.29598   0.00000  Uiso   1.00
C13    C     0.19254   0.96764   0.21733   0.00000  Uiso   1.00
C14    C     0.66394   0.81302   0.54591   0.00000  Uiso   1.00
C15    C     0.83486   0.84955   0.59167   0.00000  Uiso   1.00
C16    C     0.89704   0.88025   0.67363   0.00000  Uiso   1.00
C17    C     0.05625   0.91099   0.70400   0.00000  Uiso   1.00
C18    C     0.70327   0.73997   0.52494   0.00000  Uiso   1.00
C19    C     0.65478   0.67855   0.55080   0.00000  Uiso   1.00
C20    C     0.70318   0.61704   0.52500   0.00000  Uiso   1.00
C21    C     0.57166   0.84954   0.45821   0.00000  Uiso   1.00
C22    C     0.41250   0.88023   0.42795   0.00000  Uiso   1.00
C23    C     0.35007   0.91095   0.34594   0.00000  Uiso   1.00
H24    H     0.90889   0.81302   0.41527   0.00000  Uiso   1.00
H25    H     0.15984   0.88023   0.53343   0.00000  Uiso   1.00
H26    H     0.91760   0.67856   0.41062   0.00000  Uiso   1.00
H27    H     0.67536   0.88021   0.28778   0.00000  Uiso   1.00
H28    H     0.39685   0.95473   0.68645   0.00000  Uiso   1.00
H29    H     0.88603   0.52950   0.42746   0.00000  Uiso   1.00
H30    H     0.37521   0.95471   0.16843   0.00000  Uiso   1.00
H31    H     0.59113   0.81302   0.58474   0.00000  Uiso   1.00
H32    H     0.82465   0.88024   0.71221   0.00000  Uiso   1.00
H33    H     0.58242   0.67857   0.58939   0.00000  Uiso   1.00
H34    H     0.34017   0.88022   0.46656   0.00000  Uiso   1.00
H35    H     0.12481   0.95474   0.83156   0.00000  Uiso   1.00
H36    H     0.61398   0.52950   0.57256   0.00000  Uiso   1.00
H37    H     0.10316   0.95472   0.31354   0.00000  Uiso   1.00
O38    O     0.42020   0.99893   0.83981   0.00000  Uiso   1.00
O39    O     0.74999   0.44104   0.50001   0.00000  Uiso   1.00
O40    O     0.07982   0.99892   0.16018   0.00000  Uiso   1.00
N41    N     0.30077   0.94552   0.70310   0.00000  Uiso   1.00
N42    N     0.82320   0.54795   0.46097   0.00000  Uiso   1.00
N43    N     0.34560   0.94547   0.21879   0.00000  Uiso   1.00
N44    N     0.15438   0.94552   0.78118   0.00000  Uiso   1.00
N45    N     0.67681   0.54795   0.53905   0.00000  Uiso   1.00
N46    N     0.19922   0.94548   0.29687   0.00000  Uiso   1.00
C47    C     0.16391   0.31302   0.04591   0.00000  Uiso   1.00
C48    C     0.07163   0.34955   0.95821   0.00000  Uiso   1.00
C49    C     0.91249   0.38025   0.92795   0.00000  Uiso   1.00
C50    C     0.85008   0.41099   0.84596   0.00000  Uiso   1.00
C51    C     0.69254   0.46768   0.71735   0.00000  Uiso   1.00
C52    C     0.20323   0.23997   0.02493   0.00000  Uiso   1.00
C53    C     0.15475   0.17854   0.05078   0.00000  Uiso   1.00
C54    C     0.20314   0.11705   0.02496   0.00000  Uiso   1.00
C55    C     0.25001   0.00361  -0.00000   0.00000  Uiso   1.00
C56    C     0.33483   0.34954   0.09166   0.00000  Uiso   1.00
C57    C     0.39704   0.38022   0.17364   0.00000  Uiso   1.00
C58    C     0.55626   0.41096   0.20402   0.00000  Uiso   1.00
C59    C     0.80746   0.46764   0.28267   0.00000  Uiso   1.00
C60    C     0.33606   0.31302   0.95409   0.00000  Uiso   1.00
C61    C     0.16514   0.34955   0.90833   0.00000  Uiso   1.00
C62    C     0.10296   0.38025   0.82637   0.00000  Uiso   1.00
C63    C     0.94375   0.41099   0.79600   0.00000  Uiso   1.00
C64    C     0.29673   0.23997   0.97506   0.00000  Uiso   1.00
C65    C     0.34522   0.17855   0.94920   0.00000  Uiso   1.00
C66    C     0.29682   0.11704   0.97500   0.00000  Uiso   1.00
C67    C     0.42834   0.34954   0.04179   0.00000  Uiso   1.00
C68    C     0.58750   0.38023   0.07205   0.00000  Uiso   1.00
C69    C     0.64993   0.41095   0.15406   0.00000  Uiso   1.00
H70    H     0.09111   0.31302   0.08473   0.00000  Uiso   1.00
H71    H     0.84016   0.38023   0.96657   0.00000  Uiso   1.00
H72    H     0.08240   0.17856   0.08938   0.00000  Uiso   1.00
H73    H     0.32464   0.38021   0.21222   0.00000  Uiso   1.00
H74    H     0.60315   0.45473   0.81355   0.00000  Uiso   1.00
H75    H     0.11397   0.02950   0.07254   0.00000  Uiso   1.00
H76    H     0.62479   0.45471   0.33157   0.00000  Uiso   1.00
H77    H     0.40887   0.31302   0.91526   0.00000  Uiso   1.00
H78    H     0.17535   0.38024   0.78779   0.00000  Uiso   1.00
H79    H     0.41758   0.17857   0.91061   0.00000  Uiso   1.00
H80    H     0.65983   0.38022   0.03344   0.00000  Uiso   1.00
H81    H     0.87519   0.45474   0.66844   0.00000  Uiso   1.00
H82    H     0.38602   0.02950   0.92744   0.00000  Uiso   1.00
H83    H     0.89684   0.45472   0.18646   0.00000  Uiso   1.00
O84    O     0.57980   0.49893   0.66019   0.00000  Uiso   1.00
O85    O     0.25001   0.94104  -0.00001   0.00000  Uiso   1.00
O86    O     0.92018   0.49892   0.33982   0.00000  Uiso   1.00
N87    N     0.69923   0.44552   0.79690   0.00000  Uiso   1.00
N88    N     0.17680   0.04795   0.03903   0.00000  Uiso   1.00
N89    N     0.65440   0.44547   0.28121   0.00000  Uiso   1.00
N90    N     0.84562   0.44552   0.71882   0.00000  Uiso   1.00
N91    N     0.32319   0.04795   0.96095   0.00000  Uiso   1.00
N92    N     0.80078   0.44548   0.20313   0.00000  Uiso   1.00
C93    C     0.16391   0.18698   0.54591   0.00000  Uiso   1.00
C94    C     0.07163   0.15045   0.45821   0.00000  Uiso   1.00
C95    C     0.91249   0.11975   0.42795   0.00000  Uiso   1.00
C96    C     0.85008   0.08901   0.34596   0.00000  Uiso   1.00
C97    C     0.69254   0.03232   0.21735   0.00000  Uiso   1.00
C98    C     0.20323   0.26003   0.52493   0.00000  Uiso   1.00
C99    C     0.15475   0.32146   0.55078   0.00000  Uiso   1.00
C100   C     0.20314   0.38295   0.52496   0.00000  Uiso   1.00
C101   C     0.25001   0.49639   0.50000   0.00000  Uiso   1.00
C102   C     0.33483   0.15046   0.59166   0.00000  Uiso   1.00
C103   C     0.39704   0.11978   0.67364   0.00000  Uiso   1.00
C104   C     0.55626   0.08904   0.70402   0.00000  Uiso   1.00
C105   C     0.80746   0.03236   0.78267   0.00000  Uiso   1.00
C106   C     0.33606   0.18698   0.45409   0.00000  Uiso   1.00
C107   C     0.16514   0.15045   0.40833   0.00000  Uiso   1.00
C108   C     0.10296   0.11975   0.32637   0.00000  Uiso   1.00
C109   C     0.94375   0.08901   0.29600   0.00000  Uiso   1.00
C110   C     0.29673   0.26003   0.47506   0.00000  Uiso   1.00
C111   C     0.34522   0.32145   0.44920   0.00000  Uiso   1.00
C112   C     0.29682   0.38296   0.47500   0.00000  Uiso   1.00
C113   C     0.42834   0.15046   0.54179   0.00000  Uiso   1.00
C114   C     0.58750   0.11977   0.57205   0.00000  Uiso   1.00
C115   C     0.64993   0.08905   0.65406   0.00000  Uiso   1.00
H116   H     0.09111   0.18698   0.58473   0.00000  Uiso   1.00
H117   H     0.84016   0.11977   0.46657   0.00000  Uiso   1.00
H118   H     0.08240   0.32144   0.58938   0.00000  Uiso   1.00
H119   H     0.32464   0.11979   0.71222   0.00000  Uiso   1.00
H120   H     0.60315   0.04527   0.31355   0.00000  Uiso   1.00
H121   H     0.11397   0.47050   0.57254   0.00000  Uiso   1.00
H122   H     0.62479   0.04529   0.83157   0.00000  Uiso   1.00
H123   H     0.40887   0.18698   0.41526   0.00000  Uiso   1.00
H124   H     0.17535   0.11976   0.28779   0.00000  Uiso   1.00
H125   H     0.41758   0.32143   0.41061   0.00000  Uiso   1.00
H126   H     0.65983   0.11978   0.53344   0.00000  Uiso   1.00
H127   H     0.87519   0.04526   0.16844   0.00000  Uiso   1.00
H128   H     0.38602   0.47050   0.42744   0.00000  Uiso   1.00
H129   H     0.89684   0.04528   0.68646   0.00000  Uiso   1.00
O130   O     0.57980   0.00107   0.16019   0.00000  Uiso   1.00
O131   O     0.25001   0.55896   0.49999   0.00000  Uiso   1.00
O132   O     0.92018   0.00108   0.83982   0.00000  Uiso   1.00
N133   N     0.69923   0.05448   0.29690   0.00000  Uiso   1.00
N134   N     0.17680   0.45205   0.53903   0.00000  Uiso   1.00
N135   N     0.65440   0.05453   0.78121   0.00000  Uiso   1.00
N136   N     0.84562   0.05448   0.21882   0.00000  Uiso   1.00
N137   N     0.32319   0.45205   0.46095   0.00000  Uiso   1.00
N138   N     0.80078   0.05452   0.70313   0.00000  Uiso   1.00
C139   C     0.83609   0.68698   0.95409   0.00000  Uiso   1.00
C140   C     0.92837   0.65045   0.04179   0.00000  Uiso   1.00
C141   C     0.08751   0.61975   0.07205   0.00000  Uiso   1.00
C142   C     0.14992   0.58901   0.15404   0.00000  Uiso   1.00
C143   C     0.30746   0.53232   0.28265   0.00000  Uiso   1.00
C144   C     0.79677   0.76003   0.97507   0.00000  Uiso   1.00
C145   C     0.84525   0.82146   0.94922   0.00000  Uiso   1.00
C146   C     0.79686   0.88295   0.97504   0.00000  Uiso   1.00
C147   C     0.74999   0.99639   0.00000   0.00000  Uiso   1.00
C148   C     0.66517   0.65046   0.90834   0.00000  Uiso   1.00
C149   C     0.60296   0.61978   0.82636   0.00000  Uiso   1.00
C150   C     0.44374   0.58904   0.79598   0.00000  Uiso   1.00
C151   C     0.19254   0.53236   0.71733   0.00000  Uiso   1.00
C152   C     0.66394   0.68698   0.04591   0.00000  Uiso   1.00
C153   C     0.83486   0.65045   0.09167   0.00000  Uiso   1.00
C154   C     0.89704   0.61975   0.17363   0.00000  Uiso   1.00
C155   C     0.05625   0.58901   0.20400   0.00000  Uiso   1.00
C156   C     0.70327   0.76003   0.02494   0.00000  Uiso   1.00
C157   C     0.65478   0.82145   0.05080   0.00000  Uiso   1.00
C158   C     0.70318   0.88296   0.02500   0.00000  Uiso   1.00
C159   C     0.57166   0.65046   0.95821   0.00000  Uiso   1.00
C160   C     0.41250   0.61977   0.92795   0.00000  Uiso   1.00
C161   C     0.35007   0.58905   0.84594   0.00000  Uiso   1.00
H162   H     0.90889   0.68698   0.91527   0.00000  Uiso   1.00
H163   H     0.15984   0.61977   0.03343   0.00000  Uiso   1.00
H164   H     0.91760   0.82144   0.91062   0.00000  Uiso   1.00
H165   H     0.67536   0.61979   0.78778   0.00000  Uiso   1.00
H166   H     0.39685   0.54527   0.18645   0.00000  Uiso   1.00
H167   H     0.88603   0.97050   0.92746   0.00000  Uiso   1.00
H168   H     0.37521   0.54529   0.66843   0.00000  Uiso   1.00
H169   H     0.59113   0.68698   0.08474   0.00000  Uiso   1.00
H170   H     0.82465   0.61976   0.21221   0.00000  Uiso   1.00
H171   H     0.58242   0.82143   0.08939   0.00000  Uiso   1.00
H172   H     0.34017   0.61978   0.96656   0.00000  Uiso   1.00
H173   H     0.12481   0.54526   0.33156   0.00000  Uiso   1.00
H174   H     0.61398   0.97050   0.07256   0.00000  Uiso   1.00
H175   H     0.10316   0.54528   0.81354   0.00000  Uiso   1.00
O176   O     0.42020   0.50107   0.33981   0.00000  Uiso   1.00
O177   O     0.74999   0.05896   0.00001   0.00000  Uiso   1.00
O178   O     0.07982   0.50108   0.66018   0.00000  Uiso   1.00
N179   N     0.30077   0.55448   0.20310   0.00000  Uiso   1.00
N180   N     0.82320   0.95205   0.96097   0.00000  Uiso   1.00
N181   N     0.34560   0.55453   0.71879   0.00000  Uiso   1.00
N182   N     0.15438   0.55448   0.28118   0.00000  Uiso   1.00
N183   N     0.67681   0.95205   0.03905   0.00000  Uiso   1.00
N184   N     0.19922   0.55452   0.79687   0.00000  Uiso   1.00
