data_job_03112
_audit_creation_date              2018-12-19
_audit_creation_method            'Materials Studio'
_symmetry_space_group_name_H-M    'P1'
_symmetry_Int_Tables_number       1
_symmetry_cell_setting            triclinic
loop_
_symmetry_equiv_pos_as_xyz
  x,y,z
_cell_length_a                    7.6674
_cell_length_b                    10.7265
_cell_length_c                    16.1633
_cell_angle_alpha                 87.5232
_cell_angle_beta                  96.3162
_cell_angle_gamma                 98.5682
loop_
_atom_site_label
_atom_site_type_symbol
_atom_site_fract_x
_atom_site_fract_y
_atom_site_fract_z
_atom_site_U_iso_or_equiv
_atom_site_adp_type
_atom_site_occupancy
C1     C     0.36226   0.88550   0.70722   0.00000  Uiso   1.00
C2     C     0.51483   0.84671   0.66602   0.00000  Uiso   1.00
C3     C     0.50014   0.78925   0.58977   0.00000  Uiso   1.00
C4     C     0.65539   0.76123   0.56290   0.00000  Uiso   1.00
C5     C     0.86734   0.69660   0.49170   0.00000  Uiso   1.00
C6     C     0.36665   0.81963   0.79278   0.00000  Uiso   1.00
C7     C     0.22735   0.73942   0.82311   0.00000  Uiso   1.00
C8     C     0.25785   0.68862   0.90295   0.00000  Uiso   1.00
C9     C     0.23971   0.58203   0.02856   0.00000  Uiso   1.00
C10    C     0.41214   0.02606   0.72307   0.00000  Uiso   1.00
C11    C     0.31108   0.11943   0.69480   0.00000  Uiso   1.00
C12    C     0.37987   0.24243   0.71597   0.00000  Uiso   1.00
C13    C     0.43236   0.45636   0.73334   0.00000  Uiso   1.00
C14    C     0.66411   0.93790   0.79509   0.00000  Uiso   1.00
C15    C     0.67878   0.87517   0.71376   0.00000  Uiso   1.00
C16    C     0.83410   0.84723   0.68699   0.00000  Uiso   1.00
C17    C     0.81964   0.78974   0.61071   0.00000  Uiso   1.00
C18    C     0.53059   0.84809   0.84051   0.00000  Uiso   1.00
C19    C     0.56131   0.79740   0.92033   0.00000  Uiso   1.00
C20    C     0.42210   0.71713   0.95076   0.00000  Uiso   1.00
C21    C     0.57610   0.05453   0.77080   0.00000  Uiso   1.00
C22    C     0.64505   0.17740   0.79202   0.00000  Uiso   1.00
C23    C     0.54411   0.27094   0.76379   0.00000  Uiso   1.00
H24    H     0.23461   0.86333   0.67006   0.00000  Uiso   1.00
H25    H     0.37323   0.76723   0.55286   0.00000  Uiso   1.00
H26    H     0.10048   0.71742   0.78616   0.00000  Uiso   1.00
H27    H     0.18421   0.09737   0.65787   0.00000  Uiso   1.00
H28    H     0.59921   0.67319   0.44398   0.00000  Uiso   1.00
H29    H     0.02409   0.56820   0.93591   0.00000  Uiso   1.00
H30    H     0.20063   0.36939   0.66540   0.00000  Uiso   1.00
H31    H     0.79175   0.96006   0.83225   0.00000  Uiso   1.00
H32    H     0.96095   0.86927   0.72394   0.00000  Uiso   1.00
H33    H     0.68820   0.81945   0.95724   0.00000  Uiso   1.00
H34    H     0.77192   0.19940   0.82895   0.00000  Uiso   1.00
H35    H     0.07622   0.75600   0.58283   0.00000  Uiso   1.00
H36    H     0.50109   0.65101   0.07478   0.00000  Uiso   1.00
H37    H     0.67765   0.45220   0.80426   0.00000  Uiso   1.00
O38    O     0.93896   0.65308   0.43924   0.00000  Uiso   1.00
O39    O     0.18440   0.51536   0.08465   0.00000  Uiso   1.00
O40    O     0.41604   0.56650   0.72973   0.00000  Uiso   1.00
N41    N     0.68826   0.70516   0.49151   0.00000  Uiso   1.00
N42    N     0.15056   0.60698   0.95144   0.00000  Uiso   1.00
N43    N     0.31559   0.35603   0.69855   0.00000  Uiso   1.00
N44    N     0.94494   0.74972   0.56623   0.00000  Uiso   1.00
N45    N     0.40724   0.65154   0.02616   0.00000  Uiso   1.00
N46    N     0.57227   0.40059   0.77327   0.00000  Uiso   1.00
C47    C     0.63774   0.11450   0.29278   0.00000  Uiso   1.00
C48    C     0.48517   0.15329   0.33398   0.00000  Uiso   1.00
C49    C     0.49986   0.21075   0.41023   0.00000  Uiso   1.00
C50    C     0.34461   0.23877   0.43710   0.00000  Uiso   1.00
C51    C     0.13266   0.30340   0.50830   0.00000  Uiso   1.00
C52    C     0.63335   0.18037   0.20722   0.00000  Uiso   1.00
C53    C     0.77265   0.26058   0.17689   0.00000  Uiso   1.00
C54    C     0.74215   0.31138   0.09705   0.00000  Uiso   1.00
C55    C     0.76029   0.41797   0.97144   0.00000  Uiso   1.00
C56    C     0.58786   0.97394   0.27693   0.00000  Uiso   1.00
C57    C     0.68892   0.88057   0.30520   0.00000  Uiso   1.00
C58    C     0.62013   0.75757   0.28403   0.00000  Uiso   1.00
C59    C     0.56764   0.54364   0.26666   0.00000  Uiso   1.00
C60    C     0.33589   0.06210   0.20491   0.00000  Uiso   1.00
C61    C     0.32122   0.12483   0.28624   0.00000  Uiso   1.00
C62    C     0.16590   0.15277   0.31301   0.00000  Uiso   1.00
C63    C     0.18036   0.21026   0.38929   0.00000  Uiso   1.00
C64    C     0.46941   0.15191   0.15949   0.00000  Uiso   1.00
C65    C     0.43869   0.20260   0.07967   0.00000  Uiso   1.00
C66    C     0.57790   0.28287   0.04924   0.00000  Uiso   1.00
C67    C     0.42390   0.94547   0.22920   0.00000  Uiso   1.00
C68    C     0.35495   0.82260   0.20798   0.00000  Uiso   1.00
C69    C     0.45589   0.72906   0.23621   0.00000  Uiso   1.00
H70    H     0.76539   0.13667   0.32994   0.00000  Uiso   1.00
H71    H     0.62677   0.23277   0.44714   0.00000  Uiso   1.00
H72    H     0.89952   0.28258   0.21384   0.00000  Uiso   1.00
H73    H     0.81579   0.90263   0.34213   0.00000  Uiso   1.00
H74    H     0.40079   0.32681   0.55602   0.00000  Uiso   1.00
H75    H     0.97591   0.43180   0.06409   0.00000  Uiso   1.00
H76    H     0.79937   0.63061   0.33460   0.00000  Uiso   1.00
H77    H     0.20825   0.03994   0.16775   0.00000  Uiso   1.00
H78    H     0.03905   0.13073   0.27606   0.00000  Uiso   1.00
H79    H     0.31180   0.18055   0.04276   0.00000  Uiso   1.00
H80    H     0.22808   0.80060   0.17105   0.00000  Uiso   1.00
H81    H     0.92378   0.24400   0.41717   0.00000  Uiso   1.00
H82    H     0.49891   0.34899   0.92522   0.00000  Uiso   1.00
H83    H     0.32235   0.54780   0.19574   0.00000  Uiso   1.00
O84    O     0.06104   0.34692   0.56076   0.00000  Uiso   1.00
O85    O     0.81560   0.48464   0.91535   0.00000  Uiso   1.00
O86    O     0.58396   0.43350   0.27027   0.00000  Uiso   1.00
N87    N     0.31174   0.29484   0.50849   0.00000  Uiso   1.00
N88    N     0.84944   0.39302   0.04856   0.00000  Uiso   1.00
N89    N     0.68441   0.64397   0.30145   0.00000  Uiso   1.00
N90    N     0.05506   0.25028   0.43377   0.00000  Uiso   1.00
N91    N     0.59276   0.34846   0.97384   0.00000  Uiso   1.00
N92    N     0.42773   0.59941   0.22673   0.00000  Uiso   1.00
