data_job_00779
_audit_creation_date              2018-12-19
_audit_creation_method            'Materials Studio'
_symmetry_space_group_name_H-M    'P1'
_symmetry_Int_Tables_number       1
_symmetry_cell_setting            triclinic
loop_
_symmetry_equiv_pos_as_xyz
  x,y,z
_cell_length_a                    19.7652
_cell_length_b                    9.4513
_cell_length_c                    17.8870
_cell_angle_alpha                 90.0000
_cell_angle_beta                  47.5544
_cell_angle_gamma                 90.0000
loop_
_atom_site_label
_atom_site_type_symbol
_atom_site_fract_x
_atom_site_fract_y
_atom_site_fract_z
_atom_site_U_iso_or_equiv
_atom_site_adp_type
_atom_site_occupancy
C1     C     0.71183   0.22838   0.11899   0.00000  Uiso   1.00
C2     C     0.65715   0.35908   0.18238   0.00000  Uiso   1.00
C3     C     0.58639   0.36232   0.28699   0.00000  Uiso   1.00
C4     C     0.54499   0.49234   0.33074   0.00000  Uiso   1.00
C5     C     0.45574   0.67666   0.43811   0.00000  Uiso   1.00
C6     C     0.70200   0.21602   0.04170   0.00000  Uiso   1.00
C7     C     0.66896   0.09896   0.02802   0.00000  Uiso   1.00
C8     C     0.66532   0.10855   0.95333   0.00000  Uiso   1.00
C9     C     0.64576   0.07072   0.84224   0.00000  Uiso   1.00
C10    C     0.81219   0.26434   0.05865   0.00000  Uiso   1.00
C11    C     0.87180   0.18790   0.05920   0.00000  Uiso   1.00
C12    C     0.96095   0.23815   0.99876   0.00000  Uiso   1.00
C13    C     0.11246   0.27536   0.91400   0.00000  Uiso   1.00
C14    C     0.76415   0.45353   0.01066   0.00000  Uiso   1.00
C15    C     0.68557   0.48137   0.12353   0.00000  Uiso   1.00
C16    C     0.64427   0.61142   0.16713   0.00000  Uiso   1.00
C17    C     0.57346   0.61485   0.27179   0.00000  Uiso   1.00
C18    C     0.73042   0.33830   0.98286   0.00000  Uiso   1.00
C19    C     0.72684   0.34806   0.90816   0.00000  Uiso   1.00
C20    C     0.69379   0.23105   0.89438   0.00000  Uiso   1.00
C21    C     0.84061   0.38663   0.99981   0.00000  Uiso   1.00
C22    C     0.92968   0.43701   0.93935   0.00000  Uiso   1.00
C23    C     0.98942   0.36066   0.93981   0.00000  Uiso   1.00
H24    H     0.68970   0.13317   0.16480   0.00000  Uiso   1.00
H25    H     0.56441   0.26765   0.33250   0.00000  Uiso   1.00
H26    H     0.64698   0.00434   0.07356   0.00000  Uiso   1.00
H27    H     0.84978   0.09327   0.10475   0.00000  Uiso   1.00
H28    H     0.43801   0.47068   0.49248   0.00000  Uiso   1.00
H29    H     0.61213   0.91543   0.94647   0.00000  Uiso   1.00
H30    H     0.03979   0.10296   0.01222   0.00000  Uiso   1.00
H31    H     0.78628   0.54874   0.96484   0.00000  Uiso   1.00
H32    H     0.66628   0.70604   0.12158   0.00000  Uiso   1.00
H33    H     0.74884   0.44271   0.86264   0.00000  Uiso   1.00
H34    H     0.95165   0.53164   0.89382   0.00000  Uiso   1.00
H35    H     0.52068   0.82648   0.32128   0.00000  Uiso   1.00
H36    H     0.69481   0.27123   0.77527   0.00000  Uiso   1.00
H37    H     0.12247   0.45876   0.84103   0.00000  Uiso   1.00
O38    O     0.39865   0.74454   0.51359   0.00000  Uiso   1.00
O39    O     0.62711   0.01607   0.79723   0.00000  Uiso   1.00
O40    O     0.18818   0.26211   0.88351   0.00000  Uiso   1.00
N41    N     0.47395   0.53283   0.43068   0.00000  Uiso   1.00
N42    N     0.63673   0.01372   0.92020   0.00000  Uiso   1.00
N43    N     0.03656   0.18902   0.98166   0.00000  Uiso   1.00
N44    N     0.51843   0.72429   0.33856   0.00000  Uiso   1.00
N45    N     0.68121   0.20517   0.82808   0.00000  Uiso   1.00
N46    N     0.08105   0.38048   0.88954   0.00000  Uiso   1.00
C47    C     0.28817   0.22838   0.38101   0.00000  Uiso   1.00
C48    C     0.34285   0.35908   0.31762   0.00000  Uiso   1.00
C49    C     0.41361   0.36232   0.21301   0.00000  Uiso   1.00
C50    C     0.45501   0.49234   0.16926   0.00000  Uiso   1.00
C51    C     0.54426   0.67666   0.06189   0.00000  Uiso   1.00
C52    C     0.29800   0.21602   0.45830   0.00000  Uiso   1.00
C53    C     0.33104   0.09896   0.47198   0.00000  Uiso   1.00
C54    C     0.33468   0.10855   0.54667   0.00000  Uiso   1.00
C55    C     0.35424   0.07072   0.65776   0.00000  Uiso   1.00
C56    C     0.18781   0.26434   0.44135   0.00000  Uiso   1.00
C57    C     0.12820   0.18790   0.44080   0.00000  Uiso   1.00
C58    C     0.03905   0.23815   0.50124   0.00000  Uiso   1.00
C59    C     0.88754   0.27536   0.58600   0.00000  Uiso   1.00
C60    C     0.23585   0.45353   0.48934   0.00000  Uiso   1.00
C61    C     0.31443   0.48137   0.37647   0.00000  Uiso   1.00
C62    C     0.35573   0.61142   0.33287   0.00000  Uiso   1.00
C63    C     0.42654   0.61485   0.22821   0.00000  Uiso   1.00
C64    C     0.26958   0.33830   0.51714   0.00000  Uiso   1.00
C65    C     0.27316   0.34806   0.59184   0.00000  Uiso   1.00
C66    C     0.30621   0.23105   0.60562   0.00000  Uiso   1.00
C67    C     0.15939   0.38663   0.50019   0.00000  Uiso   1.00
C68    C     0.07032   0.43701   0.56065   0.00000  Uiso   1.00
C69    C     0.01058   0.36066   0.56019   0.00000  Uiso   1.00
H70    H     0.31030   0.13317   0.33520   0.00000  Uiso   1.00
H71    H     0.43559   0.26765   0.16750   0.00000  Uiso   1.00
H72    H     0.35302   0.00434   0.42644   0.00000  Uiso   1.00
H73    H     0.15022   0.09327   0.39525   0.00000  Uiso   1.00
H74    H     0.56199   0.47068   0.00752   0.00000  Uiso   1.00
H75    H     0.38787   0.91543   0.55353   0.00000  Uiso   1.00
H76    H     0.96021   0.10296   0.48778   0.00000  Uiso   1.00
H77    H     0.21372   0.54874   0.53516   0.00000  Uiso   1.00
H78    H     0.33372   0.70604   0.37842   0.00000  Uiso   1.00
H79    H     0.25116   0.44271   0.63736   0.00000  Uiso   1.00
H80    H     0.04835   0.53164   0.60618   0.00000  Uiso   1.00
H81    H     0.47932   0.82648   0.17872   0.00000  Uiso   1.00
H82    H     0.30519   0.27123   0.72473   0.00000  Uiso   1.00
H83    H     0.87753   0.45876   0.65897   0.00000  Uiso   1.00
O84    O     0.60135   0.74454   0.98641   0.00000  Uiso   1.00
O85    O     0.37289   0.01607   0.70277   0.00000  Uiso   1.00
O86    O     0.81182   0.26211   0.61649   0.00000  Uiso   1.00
N87    N     0.52605   0.53283   0.06932   0.00000  Uiso   1.00
N88    N     0.36327   0.01372   0.57980   0.00000  Uiso   1.00
N89    N     0.96344   0.18902   0.51834   0.00000  Uiso   1.00
N90    N     0.48157   0.72429   0.16144   0.00000  Uiso   1.00
N91    N     0.31879   0.20517   0.67192   0.00000  Uiso   1.00
N92    N     0.91895   0.38048   0.61046   0.00000  Uiso   1.00
C93    C     0.28817   0.77162   0.88101   0.00000  Uiso   1.00
C94    C     0.34285   0.64092   0.81762   0.00000  Uiso   1.00
C95    C     0.41361   0.63768   0.71301   0.00000  Uiso   1.00
C96    C     0.45501   0.50766   0.66926   0.00000  Uiso   1.00
C97    C     0.54426   0.32334   0.56189   0.00000  Uiso   1.00
C98    C     0.29800   0.78398   0.95830   0.00000  Uiso   1.00
C99    C     0.33104   0.90104   0.97198   0.00000  Uiso   1.00
C100   C     0.33468   0.89145   0.04667   0.00000  Uiso   1.00
C101   C     0.35424   0.92928   0.15776   0.00000  Uiso   1.00
C102   C     0.18781   0.73566   0.94135   0.00000  Uiso   1.00
C103   C     0.12820   0.81210   0.94080   0.00000  Uiso   1.00
C104   C     0.03905   0.76185   0.00124   0.00000  Uiso   1.00
C105   C     0.88754   0.72464   0.08600   0.00000  Uiso   1.00
C106   C     0.23585   0.54647   0.98934   0.00000  Uiso   1.00
C107   C     0.31443   0.51863   0.87647   0.00000  Uiso   1.00
C108   C     0.35573   0.38858   0.83287   0.00000  Uiso   1.00
C109   C     0.42654   0.38515   0.72821   0.00000  Uiso   1.00
C110   C     0.26958   0.66170   0.01714   0.00000  Uiso   1.00
C111   C     0.27316   0.65194   0.09184   0.00000  Uiso   1.00
C112   C     0.30621   0.76895   0.10562   0.00000  Uiso   1.00
C113   C     0.15939   0.61337   0.00019   0.00000  Uiso   1.00
C114   C     0.07032   0.56299   0.06065   0.00000  Uiso   1.00
C115   C     0.01058   0.63934   0.06019   0.00000  Uiso   1.00
H116   H     0.31030   0.86683   0.83520   0.00000  Uiso   1.00
H117   H     0.43559   0.73235   0.66750   0.00000  Uiso   1.00
H118   H     0.35302   0.99566   0.92644   0.00000  Uiso   1.00
H119   H     0.15022   0.90673   0.89525   0.00000  Uiso   1.00
H120   H     0.56199   0.52932   0.50752   0.00000  Uiso   1.00
H121   H     0.38787   0.08457   0.05353   0.00000  Uiso   1.00
H122   H     0.96021   0.89704   0.98778   0.00000  Uiso   1.00
H123   H     0.21372   0.45126   0.03516   0.00000  Uiso   1.00
H124   H     0.33372   0.29396   0.87842   0.00000  Uiso   1.00
H125   H     0.25116   0.55729   0.13736   0.00000  Uiso   1.00
H126   H     0.04835   0.46836   0.10618   0.00000  Uiso   1.00
H127   H     0.47932   0.17352   0.67872   0.00000  Uiso   1.00
H128   H     0.30519   0.72877   0.22473   0.00000  Uiso   1.00
H129   H     0.87753   0.54124   0.15897   0.00000  Uiso   1.00
O130   O     0.60135   0.25546   0.48641   0.00000  Uiso   1.00
O131   O     0.37289   0.98393   0.20277   0.00000  Uiso   1.00
O132   O     0.81182   0.73789   0.11649   0.00000  Uiso   1.00
N133   N     0.52605   0.46717   0.56932   0.00000  Uiso   1.00
N134   N     0.36327   0.98628   0.07980   0.00000  Uiso   1.00
N135   N     0.96344   0.81098   0.01834   0.00000  Uiso   1.00
N136   N     0.48157   0.27571   0.66144   0.00000  Uiso   1.00
N137   N     0.31879   0.79483   0.17192   0.00000  Uiso   1.00
N138   N     0.91895   0.61952   0.11046   0.00000  Uiso   1.00
C139   C     0.71183   0.77162   0.61899   0.00000  Uiso   1.00
C140   C     0.65715   0.64092   0.68238   0.00000  Uiso   1.00
C141   C     0.58639   0.63768   0.78699   0.00000  Uiso   1.00
C142   C     0.54499   0.50766   0.83074   0.00000  Uiso   1.00
C143   C     0.45574   0.32334   0.93811   0.00000  Uiso   1.00
C144   C     0.70200   0.78398   0.54170   0.00000  Uiso   1.00
C145   C     0.66896   0.90104   0.52802   0.00000  Uiso   1.00
C146   C     0.66532   0.89145   0.45333   0.00000  Uiso   1.00
C147   C     0.64576   0.92928   0.34224   0.00000  Uiso   1.00
C148   C     0.81219   0.73566   0.55865   0.00000  Uiso   1.00
C149   C     0.87180   0.81210   0.55920   0.00000  Uiso   1.00
C150   C     0.96095   0.76185   0.49876   0.00000  Uiso   1.00
C151   C     0.11246   0.72464   0.41400   0.00000  Uiso   1.00
C152   C     0.76415   0.54647   0.51066   0.00000  Uiso   1.00
C153   C     0.68557   0.51863   0.62353   0.00000  Uiso   1.00
C154   C     0.64427   0.38858   0.66713   0.00000  Uiso   1.00
C155   C     0.57346   0.38515   0.77179   0.00000  Uiso   1.00
C156   C     0.73042   0.66170   0.48286   0.00000  Uiso   1.00
C157   C     0.72684   0.65194   0.40816   0.00000  Uiso   1.00
C158   C     0.69379   0.76895   0.39438   0.00000  Uiso   1.00
C159   C     0.84061   0.61337   0.49981   0.00000  Uiso   1.00
C160   C     0.92968   0.56299   0.43935   0.00000  Uiso   1.00
C161   C     0.98942   0.63934   0.43981   0.00000  Uiso   1.00
H162   H     0.68970   0.86683   0.66480   0.00000  Uiso   1.00
H163   H     0.56441   0.73235   0.83250   0.00000  Uiso   1.00
H164   H     0.64698   0.99566   0.57356   0.00000  Uiso   1.00
H165   H     0.84978   0.90673   0.60475   0.00000  Uiso   1.00
H166   H     0.43801   0.52932   0.99248   0.00000  Uiso   1.00
H167   H     0.61213   0.08457   0.44647   0.00000  Uiso   1.00
H168   H     0.03979   0.89704   0.51222   0.00000  Uiso   1.00
H169   H     0.78628   0.45126   0.46484   0.00000  Uiso   1.00
H170   H     0.66628   0.29396   0.62158   0.00000  Uiso   1.00
H171   H     0.74884   0.55729   0.36264   0.00000  Uiso   1.00
H172   H     0.95165   0.46836   0.39382   0.00000  Uiso   1.00
H173   H     0.52068   0.17352   0.82128   0.00000  Uiso   1.00
H174   H     0.69481   0.72877   0.27527   0.00000  Uiso   1.00
H175   H     0.12247   0.54124   0.34103   0.00000  Uiso   1.00
O176   O     0.39865   0.25546   0.01359   0.00000  Uiso   1.00
O177   O     0.62711   0.98393   0.29723   0.00000  Uiso   1.00
O178   O     0.18818   0.73789   0.38351   0.00000  Uiso   1.00
N179   N     0.47395   0.46717   0.93068   0.00000  Uiso   1.00
N180   N     0.63673   0.98628   0.42020   0.00000  Uiso   1.00
N181   N     0.03656   0.81098   0.48166   0.00000  Uiso   1.00
N182   N     0.51843   0.27571   0.83856   0.00000  Uiso   1.00
N183   N     0.68121   0.79483   0.32808   0.00000  Uiso   1.00
N184   N     0.08105   0.61952   0.38954   0.00000  Uiso   1.00
