data_job_02151
_audit_creation_date              2018-12-19
_audit_creation_method            'Materials Studio'
_symmetry_space_group_name_H-M    'P1'
_symmetry_Int_Tables_number       1
_symmetry_cell_setting            triclinic
loop_
_symmetry_equiv_pos_as_xyz
  x,y,z
_cell_length_a                    19.2669
_cell_length_b                    14.9361
_cell_length_c                    11.7395
_cell_angle_alpha                 90.0000
_cell_angle_beta                  102.0188
_cell_angle_gamma                 90.0000
loop_
_atom_site_label
_atom_site_type_symbol
_atom_site_fract_x
_atom_site_fract_y
_atom_site_fract_z
_atom_site_U_iso_or_equiv
_atom_site_adp_type
_atom_site_occupancy
C1     C     0.21109   0.78763   0.18657   0.00000  Uiso   1.00
C2     C     0.27235   0.73053   0.25139   0.00000  Uiso   1.00
C3     C     0.34282   0.75700   0.28212   0.00000  Uiso   1.00
C4     C     0.39084   0.69496   0.34112   0.00000  Uiso   1.00
C5     C     0.48927   0.61927   0.43758   0.00000  Uiso   1.00
C6     C     0.17693   0.73410   0.07884   0.00000  Uiso   1.00
C7     C     0.16716   0.76358   0.96449   0.00000  Uiso   1.00
C8     C     0.13484   0.70454   0.87825   0.00000  Uiso   1.00
C9     C     0.08507   0.63442   0.70682   0.00000  Uiso   1.00
C10    C     0.15657   0.79050   0.26384   0.00000  Uiso   1.00
C11    C     0.12966   0.86740   0.30502   0.00000  Uiso   1.00
C12    C     0.08019   0.85585   0.37451   0.00000  Uiso   1.00
C13    C     0.99882   0.87330   0.49033   0.00000  Uiso   1.00
C14    C     0.17106   0.63038   0.23673   0.00000  Uiso   1.00
C15    C     0.25060   0.64511   0.27863   0.00000  Uiso   1.00
C16    C     0.29853   0.58302   0.33762   0.00000  Uiso   1.00
C17    C     0.36905   0.60939   0.36843   0.00000  Uiso   1.00
C18    C     0.15518   0.64869   0.10608   0.00000  Uiso   1.00
C19    C     0.12286   0.58959   0.01999   0.00000  Uiso   1.00
C20    C     0.11305   0.61897   0.90554   0.00000  Uiso   1.00
C21    C     0.13482   0.70508   0.29109   0.00000  Uiso   1.00
C22    C     0.08537   0.69341   0.36052   0.00000  Uiso   1.00
C23    C     0.05840   0.77028   0.40181   0.00000  Uiso   1.00
H24    H     0.22802   0.85413   0.16535   0.00000  Uiso   1.00
H25    H     0.35963   0.82310   0.26100   0.00000  Uiso   1.00
H26    H     0.18398   0.82968   0.94343   0.00000  Uiso   1.00
H27    H     0.14650   0.93348   0.28392   0.00000  Uiso   1.00
H28    H     0.49596   0.75103   0.37904   0.00000  Uiso   1.00
H29    H     0.12558   0.76491   0.70942   0.00000  Uiso   1.00
H30    H     0.04654   0.98380   0.42739   0.00000  Uiso   1.00
H31    H     0.15413   0.56388   0.25794   0.00000  Uiso   1.00
H32    H     0.28168   0.51692   0.35869   0.00000  Uiso   1.00
H33    H     0.10604   0.52350   0.04111   0.00000  Uiso   1.00
H34    H     0.06856   0.62731   0.38159   0.00000  Uiso   1.00
H35    H     0.43269   0.50252   0.45831   0.00000  Uiso   1.00
H36    H     0.06231   0.51641   0.78869   0.00000  Uiso   1.00
H37    H     0.98327   0.73529   0.50667   0.00000  Uiso   1.00
O38    O     0.54957   0.60111   0.48324   0.00000  Uiso   1.00
O39    O     0.06364   0.61934   0.60473   0.00000  Uiso   1.00
O40    O     0.95995   0.90651   0.54670   0.00000  Uiso   1.00
N41    N     0.46356   0.69899   0.38389   0.00000  Uiso   1.00
N42    N     0.11729   0.71197   0.75784   0.00000  Uiso   1.00
N43    N     0.04338   0.91661   0.42905   0.00000  Uiso   1.00
N44    N     0.42952   0.56527   0.42655   0.00000  Uiso   1.00
N45    N     0.08325   0.57825   0.80049   0.00000  Uiso   1.00
N46    N     0.00934   0.78289   0.47171   0.00000  Uiso   1.00
C47    C     0.78891   0.78763   0.31343   0.00000  Uiso   1.00
C48    C     0.72765   0.73053   0.24861   0.00000  Uiso   1.00
C49    C     0.65718   0.75700   0.21788   0.00000  Uiso   1.00
C50    C     0.60916   0.69496   0.15888   0.00000  Uiso   1.00
C51    C     0.51073   0.61927   0.06242   0.00000  Uiso   1.00
C52    C     0.82307   0.73410   0.42116   0.00000  Uiso   1.00
C53    C     0.83284   0.76358   0.53551   0.00000  Uiso   1.00
C54    C     0.86516   0.70454   0.62175   0.00000  Uiso   1.00
C55    C     0.91493   0.63442   0.79318   0.00000  Uiso   1.00
C56    C     0.84343   0.79050   0.23616   0.00000  Uiso   1.00
C57    C     0.87034   0.86740   0.19498   0.00000  Uiso   1.00
C58    C     0.91981   0.85585   0.12549   0.00000  Uiso   1.00
C59    C     0.00118   0.87330   0.00967   0.00000  Uiso   1.00
C60    C     0.82894   0.63038   0.26327   0.00000  Uiso   1.00
C61    C     0.74940   0.64511   0.22137   0.00000  Uiso   1.00
C62    C     0.70147   0.58302   0.16238   0.00000  Uiso   1.00
C63    C     0.63095   0.60939   0.13157   0.00000  Uiso   1.00
C64    C     0.84482   0.64869   0.39392   0.00000  Uiso   1.00
C65    C     0.87714   0.58959   0.48001   0.00000  Uiso   1.00
C66    C     0.88695   0.61897   0.59446   0.00000  Uiso   1.00
C67    C     0.86518   0.70508   0.20891   0.00000  Uiso   1.00
C68    C     0.91463   0.69341   0.13948   0.00000  Uiso   1.00
C69    C     0.94160   0.77028   0.09819   0.00000  Uiso   1.00
H70    H     0.77198   0.85413   0.33465   0.00000  Uiso   1.00
H71    H     0.64037   0.82310   0.23900   0.00000  Uiso   1.00
H72    H     0.81602   0.82968   0.55657   0.00000  Uiso   1.00
H73    H     0.85350   0.93348   0.21608   0.00000  Uiso   1.00
H74    H     0.50404   0.75103   0.12096   0.00000  Uiso   1.00
H75    H     0.87442   0.76491   0.79058   0.00000  Uiso   1.00
H76    H     0.95346   0.98380   0.07261   0.00000  Uiso   1.00
H77    H     0.84587   0.56388   0.24206   0.00000  Uiso   1.00
H78    H     0.71832   0.51692   0.14131   0.00000  Uiso   1.00
H79    H     0.89396   0.52350   0.45889   0.00000  Uiso   1.00
H80    H     0.93144   0.62731   0.11841   0.00000  Uiso   1.00
H81    H     0.56731   0.50252   0.04169   0.00000  Uiso   1.00
H82    H     0.93769   0.51641   0.71131   0.00000  Uiso   1.00
H83    H     0.01673   0.73529   0.99333   0.00000  Uiso   1.00
O84    O     0.45043   0.60111   0.01676   0.00000  Uiso   1.00
O85    O     0.93636   0.61934   0.89527   0.00000  Uiso   1.00
O86    O     0.04005   0.90651   0.95330   0.00000  Uiso   1.00
N87    N     0.53644   0.69899   0.11611   0.00000  Uiso   1.00
N88    N     0.88271   0.71197   0.74216   0.00000  Uiso   1.00
N89    N     0.95662   0.91661   0.07095   0.00000  Uiso   1.00
N90    N     0.57048   0.56527   0.07345   0.00000  Uiso   1.00
N91    N     0.91675   0.57825   0.69951   0.00000  Uiso   1.00
N92    N     0.99066   0.78289   0.02829   0.00000  Uiso   1.00
C93    C     0.78891   0.21237   0.81343   0.00000  Uiso   1.00
C94    C     0.72765   0.26947   0.74861   0.00000  Uiso   1.00
C95    C     0.65718   0.24300   0.71788   0.00000  Uiso   1.00
C96    C     0.60916   0.30504   0.65888   0.00000  Uiso   1.00
C97    C     0.51073   0.38073   0.56242   0.00000  Uiso   1.00
C98    C     0.82307   0.26590   0.92116   0.00000  Uiso   1.00
C99    C     0.83284   0.23642   0.03551   0.00000  Uiso   1.00
C100   C     0.86516   0.29546   0.12175   0.00000  Uiso   1.00
C101   C     0.91493   0.36558   0.29318   0.00000  Uiso   1.00
C102   C     0.84343   0.20950   0.73616   0.00000  Uiso   1.00
C103   C     0.87034   0.13260   0.69498   0.00000  Uiso   1.00
C104   C     0.91981   0.14415   0.62549   0.00000  Uiso   1.00
C105   C     0.00118   0.12670   0.50967   0.00000  Uiso   1.00
C106   C     0.82894   0.36962   0.76327   0.00000  Uiso   1.00
C107   C     0.74940   0.35489   0.72137   0.00000  Uiso   1.00
C108   C     0.70147   0.41698   0.66238   0.00000  Uiso   1.00
C109   C     0.63095   0.39061   0.63157   0.00000  Uiso   1.00
C110   C     0.84482   0.35131   0.89392   0.00000  Uiso   1.00
C111   C     0.87714   0.41041   0.98001   0.00000  Uiso   1.00
C112   C     0.88695   0.38103   0.09446   0.00000  Uiso   1.00
C113   C     0.86518   0.29492   0.70891   0.00000  Uiso   1.00
C114   C     0.91463   0.30659   0.63948   0.00000  Uiso   1.00
C115   C     0.94160   0.22972   0.59819   0.00000  Uiso   1.00
H116   H     0.77198   0.14587   0.83465   0.00000  Uiso   1.00
H117   H     0.64037   0.17690   0.73900   0.00000  Uiso   1.00
H118   H     0.81602   0.17032   0.05657   0.00000  Uiso   1.00
H119   H     0.85350   0.06652   0.71608   0.00000  Uiso   1.00
H120   H     0.50404   0.24897   0.62096   0.00000  Uiso   1.00
H121   H     0.87442   0.23509   0.29058   0.00000  Uiso   1.00
H122   H     0.95346   0.01620   0.57261   0.00000  Uiso   1.00
H123   H     0.84587   0.43612   0.74206   0.00000  Uiso   1.00
H124   H     0.71832   0.48308   0.64131   0.00000  Uiso   1.00
H125   H     0.89396   0.47650   0.95889   0.00000  Uiso   1.00
H126   H     0.93144   0.37269   0.61841   0.00000  Uiso   1.00
H127   H     0.56731   0.49748   0.54169   0.00000  Uiso   1.00
H128   H     0.93769   0.48359   0.21131   0.00000  Uiso   1.00
H129   H     0.01673   0.26471   0.49333   0.00000  Uiso   1.00
O130   O     0.45043   0.39889   0.51676   0.00000  Uiso   1.00
O131   O     0.93636   0.38066   0.39527   0.00000  Uiso   1.00
O132   O     0.04005   0.09349   0.45330   0.00000  Uiso   1.00
N133   N     0.53644   0.30101   0.61611   0.00000  Uiso   1.00
N134   N     0.88271   0.28803   0.24216   0.00000  Uiso   1.00
N135   N     0.95662   0.08339   0.57095   0.00000  Uiso   1.00
N136   N     0.57048   0.43473   0.57345   0.00000  Uiso   1.00
N137   N     0.91675   0.42175   0.19951   0.00000  Uiso   1.00
N138   N     0.99066   0.21711   0.52829   0.00000  Uiso   1.00
C139   C     0.21109   0.21237   0.68657   0.00000  Uiso   1.00
C140   C     0.27235   0.26947   0.75139   0.00000  Uiso   1.00
C141   C     0.34282   0.24300   0.78212   0.00000  Uiso   1.00
C142   C     0.39084   0.30504   0.84112   0.00000  Uiso   1.00
C143   C     0.48927   0.38073   0.93758   0.00000  Uiso   1.00
C144   C     0.17693   0.26590   0.57884   0.00000  Uiso   1.00
C145   C     0.16716   0.23642   0.46449   0.00000  Uiso   1.00
C146   C     0.13484   0.29546   0.37825   0.00000  Uiso   1.00
C147   C     0.08507   0.36558   0.20682   0.00000  Uiso   1.00
C148   C     0.15657   0.20950   0.76384   0.00000  Uiso   1.00
C149   C     0.12966   0.13260   0.80502   0.00000  Uiso   1.00
C150   C     0.08019   0.14415   0.87451   0.00000  Uiso   1.00
C151   C     0.99882   0.12670   0.99033   0.00000  Uiso   1.00
C152   C     0.17106   0.36962   0.73673   0.00000  Uiso   1.00
C153   C     0.25060   0.35489   0.77863   0.00000  Uiso   1.00
C154   C     0.29853   0.41698   0.83762   0.00000  Uiso   1.00
C155   C     0.36905   0.39061   0.86843   0.00000  Uiso   1.00
C156   C     0.15518   0.35131   0.60608   0.00000  Uiso   1.00
C157   C     0.12286   0.41041   0.51999   0.00000  Uiso   1.00
C158   C     0.11305   0.38103   0.40554   0.00000  Uiso   1.00
C159   C     0.13482   0.29492   0.79109   0.00000  Uiso   1.00
C160   C     0.08537   0.30659   0.86052   0.00000  Uiso   1.00
C161   C     0.05840   0.22972   0.90181   0.00000  Uiso   1.00
H162   H     0.22802   0.14587   0.66535   0.00000  Uiso   1.00
H163   H     0.35963   0.17690   0.76100   0.00000  Uiso   1.00
H164   H     0.18398   0.17032   0.44343   0.00000  Uiso   1.00
H165   H     0.14650   0.06652   0.78392   0.00000  Uiso   1.00
H166   H     0.49596   0.24897   0.87904   0.00000  Uiso   1.00
H167   H     0.12558   0.23509   0.20942   0.00000  Uiso   1.00
H168   H     0.04654   0.01620   0.92739   0.00000  Uiso   1.00
H169   H     0.15413   0.43612   0.75794   0.00000  Uiso   1.00
H170   H     0.28168   0.48308   0.85869   0.00000  Uiso   1.00
H171   H     0.10604   0.47650   0.54111   0.00000  Uiso   1.00
H172   H     0.06856   0.37269   0.88159   0.00000  Uiso   1.00
H173   H     0.43269   0.49748   0.95831   0.00000  Uiso   1.00
H174   H     0.06231   0.48359   0.28869   0.00000  Uiso   1.00
H175   H     0.98327   0.26471   0.00667   0.00000  Uiso   1.00
O176   O     0.54957   0.39889   0.98324   0.00000  Uiso   1.00
O177   O     0.06364   0.38066   0.10473   0.00000  Uiso   1.00
O178   O     0.95995   0.09349   0.04670   0.00000  Uiso   1.00
N179   N     0.46356   0.30101   0.88389   0.00000  Uiso   1.00
N180   N     0.11729   0.28803   0.25784   0.00000  Uiso   1.00
N181   N     0.04338   0.08339   0.92905   0.00000  Uiso   1.00
N182   N     0.42952   0.43473   0.92655   0.00000  Uiso   1.00
N183   N     0.08325   0.42175   0.30049   0.00000  Uiso   1.00
N184   N     0.00934   0.21711   0.97171   0.00000  Uiso   1.00
