data_job_01105
_audit_creation_date              2018-12-19
_audit_creation_method            'Materials Studio'
_symmetry_space_group_name_H-M    'P1'
_symmetry_Int_Tables_number       1
_symmetry_cell_setting            triclinic
loop_
_symmetry_equiv_pos_as_xyz
  x,y,z
_cell_length_a                    23.3467
_cell_length_b                    11.0335
_cell_length_c                    24.3209
_cell_angle_alpha                 90.0000
_cell_angle_beta                  90.0000
_cell_angle_gamma                 90.0000
loop_
_atom_site_label
_atom_site_type_symbol
_atom_site_fract_x
_atom_site_fract_y
_atom_site_fract_z
_atom_site_U_iso_or_equiv
_atom_site_adp_type
_atom_site_occupancy
C1     C     0.07577   0.52404   0.40544   0.00000  Uiso   1.00
C2     C     0.02702   0.61496   0.39908   0.00000  Uiso   1.00
C3     C     0.98134   0.62918   0.43502   0.00000  Uiso   1.00
C4     C     0.94118   0.71737   0.42192   0.00000  Uiso   1.00
C5     C     0.86465   0.84764   0.41923   0.00000  Uiso   1.00
C6     C     0.07616   0.44904   0.35278   0.00000  Uiso   1.00
C7     C     0.07180   0.32377   0.34979   0.00000  Uiso   1.00
C8     C     0.07301   0.27229   0.29771   0.00000  Uiso   1.00
C9     C     0.07282   0.14498   0.22313   0.00000  Uiso   1.00
C10    C     0.13091   0.59811   0.40473   0.00000  Uiso   1.00
C11    C     0.17259   0.59815   0.44541   0.00000  Uiso   1.00
C12    C     0.21990   0.67215   0.43706   0.00000  Uiso   1.00
C13    C     0.30471   0.77628   0.44315   0.00000  Uiso   1.00
C14    C     0.08567   0.65536   0.31827   0.00000  Uiso   1.00
C15    C     0.03240   0.68628   0.35173   0.00000  Uiso   1.00
C16    C     0.99229   0.77448   0.33857   0.00000  Uiso   1.00
C17    C     0.94656   0.78883   0.37449   0.00000  Uiso   1.00
C18    C     0.08154   0.52037   0.30543   0.00000  Uiso   1.00
C19    C     0.08276   0.46906   0.25334   0.00000  Uiso   1.00
C20    C     0.07840   0.34375   0.25027   0.00000  Uiso   1.00
C21    C     0.13628   0.66944   0.35738   0.00000  Uiso   1.00
C22    C     0.18354   0.74345   0.34897   0.00000  Uiso   1.00
C23    C     0.22529   0.74361   0.38963   0.00000  Uiso   1.00
H24    H     0.07158   0.46850   0.44230   0.00000  Uiso   1.00
H25    H     0.97719   0.57395   0.47165   0.00000  Uiso   1.00
H26    H     0.06765   0.26859   0.38644   0.00000  Uiso   1.00
H27    H     0.16841   0.54294   0.48205   0.00000  Uiso   1.00
H28    H     0.87490   0.72229   0.48330   0.00000  Uiso   1.00
H29    H     0.06565   0.07842   0.30362   0.00000  Uiso   1.00
H30    H     0.27814   0.65692   0.50523   0.00000  Uiso   1.00
H31    H     0.08986   0.71090   0.28141   0.00000  Uiso   1.00
H32    H     0.99647   0.82966   0.30193   0.00000  Uiso   1.00
H33    H     0.08692   0.52429   0.21671   0.00000  Uiso   1.00
H34    H     0.18769   0.79863   0.31232   0.00000  Uiso   1.00
H35    H     0.89055   0.92983   0.34555   0.00000  Uiso   1.00
H36    H     0.08130   0.28595   0.16586   0.00000  Uiso   1.00
H37    H     0.29379   0.86446   0.36748   0.00000  Uiso   1.00
O38    O     0.82095   0.89979   0.43082   0.00000  Uiso   1.00
O39    O     0.07122   0.05504   0.19508   0.00000  Uiso   1.00
O40    O     0.35000   0.81403   0.45959   0.00000  Uiso   1.00
N41    N     0.89141   0.75486   0.44807   0.00000  Uiso   1.00
N42    N     0.06974   0.15287   0.28008   0.00000  Uiso   1.00
N43    N     0.26840   0.69370   0.46856   0.00000  Uiso   1.00
N44    N     0.89983   0.86653   0.37395   0.00000  Uiso   1.00
N45    N     0.07815   0.26455   0.20595   0.00000  Uiso   1.00
N46    N     0.27682   0.80537   0.39444   0.00000  Uiso   1.00
C47    C     0.42423   0.97596   0.90544   0.00000  Uiso   1.00
C48    C     0.47298   0.88504   0.89908   0.00000  Uiso   1.00
C49    C     0.51866   0.87082   0.93502   0.00000  Uiso   1.00
C50    C     0.55882   0.78263   0.92192   0.00000  Uiso   1.00
C51    C     0.63535   0.65236   0.91923   0.00000  Uiso   1.00
C52    C     0.42384   0.05096   0.85278   0.00000  Uiso   1.00
C53    C     0.42820   0.17623   0.84979   0.00000  Uiso   1.00
C54    C     0.42699   0.22771   0.79771   0.00000  Uiso   1.00
C55    C     0.42718   0.35502   0.72313   0.00000  Uiso   1.00
C56    C     0.36909   0.90189   0.90473   0.00000  Uiso   1.00
C57    C     0.32741   0.90185   0.94541   0.00000  Uiso   1.00
C58    C     0.28010   0.82785   0.93706   0.00000  Uiso   1.00
C59    C     0.19529   0.72372   0.94315   0.00000  Uiso   1.00
C60    C     0.41433   0.84464   0.81827   0.00000  Uiso   1.00
C61    C     0.46760   0.81372   0.85173   0.00000  Uiso   1.00
C62    C     0.50771   0.72552   0.83857   0.00000  Uiso   1.00
C63    C     0.55344   0.71117   0.87449   0.00000  Uiso   1.00
C64    C     0.41846   0.97963   0.80543   0.00000  Uiso   1.00
C65    C     0.41724   0.03094   0.75334   0.00000  Uiso   1.00
C66    C     0.42160   0.15625   0.75027   0.00000  Uiso   1.00
C67    C     0.36372   0.83056   0.85738   0.00000  Uiso   1.00
C68    C     0.31646   0.75655   0.84897   0.00000  Uiso   1.00
C69    C     0.27471   0.75639   0.88963   0.00000  Uiso   1.00
H70    H     0.42842   0.03150   0.94230   0.00000  Uiso   1.00
H71    H     0.52281   0.92605   0.97165   0.00000  Uiso   1.00
H72    H     0.43235   0.23141   0.88644   0.00000  Uiso   1.00
H73    H     0.33159   0.95706   0.98205   0.00000  Uiso   1.00
H74    H     0.62510   0.77771   0.98330   0.00000  Uiso   1.00
H75    H     0.43435   0.42158   0.80362   0.00000  Uiso   1.00
H76    H     0.22186   0.84308   0.00523   0.00000  Uiso   1.00
H77    H     0.41014   0.78910   0.78141   0.00000  Uiso   1.00
H78    H     0.50353   0.67034   0.80193   0.00000  Uiso   1.00
H79    H     0.41308   0.97571   0.71671   0.00000  Uiso   1.00
H80    H     0.31231   0.70137   0.81232   0.00000  Uiso   1.00
H81    H     0.60945   0.57017   0.84555   0.00000  Uiso   1.00
H82    H     0.41870   0.21405   0.66586   0.00000  Uiso   1.00
H83    H     0.20621   0.63554   0.86748   0.00000  Uiso   1.00
O84    O     0.67905   0.60021   0.93082   0.00000  Uiso   1.00
O85    O     0.42878   0.44496   0.69508   0.00000  Uiso   1.00
O86    O     0.15000   0.68597   0.95959   0.00000  Uiso   1.00
N87    N     0.60859   0.74514   0.94807   0.00000  Uiso   1.00
N88    N     0.43026   0.34713   0.78008   0.00000  Uiso   1.00
N89    N     0.23160   0.80630   0.96856   0.00000  Uiso   1.00
N90    N     0.60017   0.63347   0.87395   0.00000  Uiso   1.00
N91    N     0.42185   0.23545   0.70595   0.00000  Uiso   1.00
N92    N     0.22318   0.69463   0.89444   0.00000  Uiso   1.00
C93    C     0.92423   0.52404   0.09456   0.00000  Uiso   1.00
C94    C     0.97298   0.61496   0.10092   0.00000  Uiso   1.00
C95    C     0.01866   0.62918   0.06498   0.00000  Uiso   1.00
C96    C     0.05882   0.71737   0.07808   0.00000  Uiso   1.00
C97    C     0.13535   0.84764   0.08077   0.00000  Uiso   1.00
C98    C     0.92384   0.44904   0.14722   0.00000  Uiso   1.00
C99    C     0.92820   0.32377   0.15021   0.00000  Uiso   1.00
C100   C     0.92699   0.27229   0.20229   0.00000  Uiso   1.00
C101   C     0.92718   0.14498   0.27687   0.00000  Uiso   1.00
C102   C     0.86909   0.59811   0.09527   0.00000  Uiso   1.00
C103   C     0.82741   0.59815   0.05459   0.00000  Uiso   1.00
C104   C     0.78010   0.67215   0.06294   0.00000  Uiso   1.00
C105   C     0.69529   0.77628   0.05685   0.00000  Uiso   1.00
C106   C     0.91433   0.65536   0.18173   0.00000  Uiso   1.00
C107   C     0.96760   0.68628   0.14827   0.00000  Uiso   1.00
C108   C     0.00771   0.77448   0.16143   0.00000  Uiso   1.00
C109   C     0.05344   0.78883   0.12551   0.00000  Uiso   1.00
C110   C     0.91846   0.52037   0.19457   0.00000  Uiso   1.00
C111   C     0.91724   0.46906   0.24666   0.00000  Uiso   1.00
C112   C     0.92160   0.34375   0.24973   0.00000  Uiso   1.00
C113   C     0.86372   0.66944   0.14262   0.00000  Uiso   1.00
C114   C     0.81646   0.74345   0.15103   0.00000  Uiso   1.00
C115   C     0.77471   0.74361   0.11037   0.00000  Uiso   1.00
H116   H     0.92842   0.46850   0.05770   0.00000  Uiso   1.00
H117   H     0.02281   0.57395   0.02835   0.00000  Uiso   1.00
H118   H     0.93235   0.26859   0.11356   0.00000  Uiso   1.00
H119   H     0.83159   0.54294   0.01795   0.00000  Uiso   1.00
H120   H     0.12510   0.72229   0.01670   0.00000  Uiso   1.00
H121   H     0.93435   0.07842   0.19638   0.00000  Uiso   1.00
H122   H     0.72186   0.65692   0.99477   0.00000  Uiso   1.00
H123   H     0.91014   0.71090   0.21859   0.00000  Uiso   1.00
H124   H     0.00353   0.82966   0.19807   0.00000  Uiso   1.00
H125   H     0.91308   0.52429   0.28329   0.00000  Uiso   1.00
H126   H     0.81231   0.79863   0.18768   0.00000  Uiso   1.00
H127   H     0.10945   0.92983   0.15445   0.00000  Uiso   1.00
H128   H     0.91870   0.28595   0.33414   0.00000  Uiso   1.00
H129   H     0.70621   0.86446   0.13252   0.00000  Uiso   1.00
O130   O     0.17905   0.89979   0.06918   0.00000  Uiso   1.00
O131   O     0.92878   0.05504   0.30492   0.00000  Uiso   1.00
O132   O     0.65000   0.81403   0.04041   0.00000  Uiso   1.00
N133   N     0.10859   0.75486   0.05193   0.00000  Uiso   1.00
N134   N     0.93026   0.15287   0.21992   0.00000  Uiso   1.00
N135   N     0.73160   0.69370   0.03144   0.00000  Uiso   1.00
N136   N     0.10017   0.86653   0.12605   0.00000  Uiso   1.00
N137   N     0.92185   0.26455   0.29405   0.00000  Uiso   1.00
N138   N     0.72318   0.80537   0.10556   0.00000  Uiso   1.00
C139   C     0.57577   0.97596   0.59456   0.00000  Uiso   1.00
C140   C     0.52702   0.88504   0.60092   0.00000  Uiso   1.00
C141   C     0.48134   0.87082   0.56498   0.00000  Uiso   1.00
C142   C     0.44118   0.78263   0.57808   0.00000  Uiso   1.00
C143   C     0.36465   0.65236   0.58077   0.00000  Uiso   1.00
C144   C     0.57616   0.05096   0.64722   0.00000  Uiso   1.00
C145   C     0.57180   0.17623   0.65021   0.00000  Uiso   1.00
C146   C     0.57301   0.22771   0.70229   0.00000  Uiso   1.00
C147   C     0.57282   0.35502   0.77687   0.00000  Uiso   1.00
C148   C     0.63091   0.90189   0.59527   0.00000  Uiso   1.00
C149   C     0.67259   0.90185   0.55459   0.00000  Uiso   1.00
C150   C     0.71990   0.82785   0.56294   0.00000  Uiso   1.00
C151   C     0.80471   0.72372   0.55685   0.00000  Uiso   1.00
C152   C     0.58567   0.84464   0.68173   0.00000  Uiso   1.00
C153   C     0.53240   0.81372   0.64827   0.00000  Uiso   1.00
C154   C     0.49229   0.72552   0.66143   0.00000  Uiso   1.00
C155   C     0.44656   0.71117   0.62551   0.00000  Uiso   1.00
C156   C     0.58154   0.97963   0.69457   0.00000  Uiso   1.00
C157   C     0.58276   0.03094   0.74666   0.00000  Uiso   1.00
C158   C     0.57840   0.15625   0.74973   0.00000  Uiso   1.00
C159   C     0.63628   0.83056   0.64262   0.00000  Uiso   1.00
C160   C     0.68354   0.75655   0.65103   0.00000  Uiso   1.00
C161   C     0.72529   0.75639   0.61037   0.00000  Uiso   1.00
H162   H     0.57158   0.03150   0.55770   0.00000  Uiso   1.00
H163   H     0.47719   0.92605   0.52835   0.00000  Uiso   1.00
H164   H     0.56765   0.23141   0.61356   0.00000  Uiso   1.00
H165   H     0.66841   0.95706   0.51795   0.00000  Uiso   1.00
H166   H     0.37490   0.77771   0.51670   0.00000  Uiso   1.00
H167   H     0.56565   0.42158   0.69638   0.00000  Uiso   1.00
H168   H     0.77814   0.84308   0.49477   0.00000  Uiso   1.00
H169   H     0.58986   0.78910   0.71859   0.00000  Uiso   1.00
H170   H     0.49647   0.67034   0.69807   0.00000  Uiso   1.00
H171   H     0.58692   0.97571   0.78329   0.00000  Uiso   1.00
H172   H     0.68769   0.70137   0.68768   0.00000  Uiso   1.00
H173   H     0.39055   0.57017   0.65445   0.00000  Uiso   1.00
H174   H     0.58130   0.21405   0.83414   0.00000  Uiso   1.00
H175   H     0.79379   0.63554   0.63252   0.00000  Uiso   1.00
O176   O     0.32095   0.60021   0.56918   0.00000  Uiso   1.00
O177   O     0.57122   0.44496   0.80492   0.00000  Uiso   1.00
O178   O     0.85000   0.68597   0.54041   0.00000  Uiso   1.00
N179   N     0.39141   0.74514   0.55193   0.00000  Uiso   1.00
N180   N     0.56974   0.34713   0.71992   0.00000  Uiso   1.00
N181   N     0.76840   0.80630   0.53144   0.00000  Uiso   1.00
N182   N     0.39983   0.63347   0.62605   0.00000  Uiso   1.00
N183   N     0.57815   0.23545   0.79405   0.00000  Uiso   1.00
N184   N     0.77682   0.69463   0.60556   0.00000  Uiso   1.00
C185   C     0.92423   0.47596   0.59456   0.00000  Uiso   1.00
C186   C     0.97298   0.38504   0.60092   0.00000  Uiso   1.00
C187   C     0.01866   0.37082   0.56498   0.00000  Uiso   1.00
C188   C     0.05882   0.28263   0.57808   0.00000  Uiso   1.00
C189   C     0.13535   0.15236   0.58077   0.00000  Uiso   1.00
C190   C     0.92384   0.55096   0.64722   0.00000  Uiso   1.00
C191   C     0.92820   0.67623   0.65021   0.00000  Uiso   1.00
C192   C     0.92699   0.72771   0.70229   0.00000  Uiso   1.00
C193   C     0.92718   0.85502   0.77687   0.00000  Uiso   1.00
C194   C     0.86909   0.40189   0.59527   0.00000  Uiso   1.00
C195   C     0.82741   0.40185   0.55459   0.00000  Uiso   1.00
C196   C     0.78010   0.32785   0.56294   0.00000  Uiso   1.00
C197   C     0.69529   0.22372   0.55685   0.00000  Uiso   1.00
C198   C     0.91433   0.34464   0.68173   0.00000  Uiso   1.00
C199   C     0.96760   0.31372   0.64827   0.00000  Uiso   1.00
C200   C     0.00771   0.22552   0.66143   0.00000  Uiso   1.00
C201   C     0.05344   0.21117   0.62551   0.00000  Uiso   1.00
C202   C     0.91846   0.47963   0.69457   0.00000  Uiso   1.00
C203   C     0.91724   0.53094   0.74666   0.00000  Uiso   1.00
C204   C     0.92160   0.65625   0.74973   0.00000  Uiso   1.00
C205   C     0.86372   0.33056   0.64262   0.00000  Uiso   1.00
C206   C     0.81646   0.25655   0.65103   0.00000  Uiso   1.00
C207   C     0.77471   0.25639   0.61037   0.00000  Uiso   1.00
H208   H     0.92842   0.53150   0.55770   0.00000  Uiso   1.00
H209   H     0.02281   0.42605   0.52835   0.00000  Uiso   1.00
H210   H     0.93235   0.73141   0.61356   0.00000  Uiso   1.00
H211   H     0.83159   0.45706   0.51795   0.00000  Uiso   1.00
H212   H     0.12510   0.27771   0.51670   0.00000  Uiso   1.00
H213   H     0.93435   0.92158   0.69638   0.00000  Uiso   1.00
H214   H     0.72186   0.34308   0.49477   0.00000  Uiso   1.00
H215   H     0.91014   0.28910   0.71859   0.00000  Uiso   1.00
H216   H     0.00353   0.17034   0.69807   0.00000  Uiso   1.00
H217   H     0.91308   0.47571   0.78329   0.00000  Uiso   1.00
H218   H     0.81231   0.20137   0.68768   0.00000  Uiso   1.00
H219   H     0.10945   0.07017   0.65445   0.00000  Uiso   1.00
H220   H     0.91870   0.71405   0.83414   0.00000  Uiso   1.00
H221   H     0.70621   0.13554   0.63252   0.00000  Uiso   1.00
O222   O     0.17905   0.10021   0.56918   0.00000  Uiso   1.00
O223   O     0.92878   0.94496   0.80492   0.00000  Uiso   1.00
O224   O     0.65000   0.18597   0.54041   0.00000  Uiso   1.00
N225   N     0.10859   0.24514   0.55193   0.00000  Uiso   1.00
N226   N     0.93026   0.84713   0.71992   0.00000  Uiso   1.00
N227   N     0.73160   0.30630   0.53144   0.00000  Uiso   1.00
N228   N     0.10017   0.13347   0.62605   0.00000  Uiso   1.00
N229   N     0.92185   0.73545   0.79405   0.00000  Uiso   1.00
N230   N     0.72318   0.19463   0.60556   0.00000  Uiso   1.00
C231   C     0.57577   0.02404   0.09456   0.00000  Uiso   1.00
C232   C     0.52702   0.11496   0.10092   0.00000  Uiso   1.00
C233   C     0.48134   0.12918   0.06498   0.00000  Uiso   1.00
C234   C     0.44118   0.21737   0.07808   0.00000  Uiso   1.00
C235   C     0.36465   0.34764   0.08077   0.00000  Uiso   1.00
C236   C     0.57616   0.94904   0.14722   0.00000  Uiso   1.00
C237   C     0.57180   0.82377   0.15021   0.00000  Uiso   1.00
C238   C     0.57301   0.77229   0.20229   0.00000  Uiso   1.00
C239   C     0.57282   0.64498   0.27687   0.00000  Uiso   1.00
C240   C     0.63091   0.09811   0.09527   0.00000  Uiso   1.00
C241   C     0.67259   0.09815   0.05459   0.00000  Uiso   1.00
C242   C     0.71990   0.17215   0.06294   0.00000  Uiso   1.00
C243   C     0.80471   0.27628   0.05685   0.00000  Uiso   1.00
C244   C     0.58567   0.15536   0.18173   0.00000  Uiso   1.00
C245   C     0.53240   0.18628   0.14827   0.00000  Uiso   1.00
C246   C     0.49229   0.27448   0.16143   0.00000  Uiso   1.00
C247   C     0.44656   0.28883   0.12551   0.00000  Uiso   1.00
C248   C     0.58154   0.02037   0.19457   0.00000  Uiso   1.00
C249   C     0.58276   0.96906   0.24666   0.00000  Uiso   1.00
C250   C     0.57840   0.84375   0.24973   0.00000  Uiso   1.00
C251   C     0.63628   0.16944   0.14262   0.00000  Uiso   1.00
C252   C     0.68354   0.24345   0.15103   0.00000  Uiso   1.00
C253   C     0.72529   0.24361   0.11037   0.00000  Uiso   1.00
H254   H     0.57158   0.96850   0.05770   0.00000  Uiso   1.00
H255   H     0.47719   0.07395   0.02835   0.00000  Uiso   1.00
H256   H     0.56765   0.76859   0.11356   0.00000  Uiso   1.00
H257   H     0.66841   0.04294   0.01795   0.00000  Uiso   1.00
H258   H     0.37490   0.22229   0.01670   0.00000  Uiso   1.00
H259   H     0.56565   0.57842   0.19638   0.00000  Uiso   1.00
H260   H     0.77814   0.15692   0.99477   0.00000  Uiso   1.00
H261   H     0.58986   0.21090   0.21859   0.00000  Uiso   1.00
H262   H     0.49647   0.32966   0.19807   0.00000  Uiso   1.00
H263   H     0.58692   0.02429   0.28329   0.00000  Uiso   1.00
H264   H     0.68769   0.29863   0.18768   0.00000  Uiso   1.00
H265   H     0.39055   0.42983   0.15445   0.00000  Uiso   1.00
H266   H     0.58130   0.78595   0.33414   0.00000  Uiso   1.00
H267   H     0.79379   0.36446   0.13252   0.00000  Uiso   1.00
O268   O     0.32095   0.39979   0.06918   0.00000  Uiso   1.00
O269   O     0.57122   0.55504   0.30492   0.00000  Uiso   1.00
O270   O     0.85000   0.31403   0.04041   0.00000  Uiso   1.00
N271   N     0.39141   0.25486   0.05193   0.00000  Uiso   1.00
N272   N     0.56974   0.65287   0.21992   0.00000  Uiso   1.00
N273   N     0.76840   0.19370   0.03144   0.00000  Uiso   1.00
N274   N     0.39983   0.36653   0.12605   0.00000  Uiso   1.00
N275   N     0.57815   0.76455   0.29405   0.00000  Uiso   1.00
N276   N     0.77682   0.30537   0.10556   0.00000  Uiso   1.00
C277   C     0.07577   0.47596   0.90544   0.00000  Uiso   1.00
C278   C     0.02702   0.38504   0.89908   0.00000  Uiso   1.00
C279   C     0.98134   0.37082   0.93502   0.00000  Uiso   1.00
C280   C     0.94118   0.28263   0.92192   0.00000  Uiso   1.00
C281   C     0.86465   0.15236   0.91923   0.00000  Uiso   1.00
C282   C     0.07616   0.55096   0.85278   0.00000  Uiso   1.00
C283   C     0.07180   0.67623   0.84979   0.00000  Uiso   1.00
C284   C     0.07301   0.72771   0.79771   0.00000  Uiso   1.00
C285   C     0.07282   0.85502   0.72313   0.00000  Uiso   1.00
C286   C     0.13091   0.40189   0.90473   0.00000  Uiso   1.00
C287   C     0.17259   0.40185   0.94541   0.00000  Uiso   1.00
C288   C     0.21990   0.32785   0.93706   0.00000  Uiso   1.00
C289   C     0.30471   0.22372   0.94315   0.00000  Uiso   1.00
C290   C     0.08567   0.34464   0.81827   0.00000  Uiso   1.00
C291   C     0.03240   0.31372   0.85173   0.00000  Uiso   1.00
C292   C     0.99229   0.22552   0.83857   0.00000  Uiso   1.00
C293   C     0.94656   0.21117   0.87449   0.00000  Uiso   1.00
C294   C     0.08154   0.47963   0.80543   0.00000  Uiso   1.00
C295   C     0.08276   0.53094   0.75334   0.00000  Uiso   1.00
C296   C     0.07840   0.65625   0.75027   0.00000  Uiso   1.00
C297   C     0.13628   0.33056   0.85738   0.00000  Uiso   1.00
C298   C     0.18354   0.25655   0.84897   0.00000  Uiso   1.00
C299   C     0.22529   0.25639   0.88963   0.00000  Uiso   1.00
H300   H     0.07158   0.53150   0.94230   0.00000  Uiso   1.00
H301   H     0.97719   0.42605   0.97165   0.00000  Uiso   1.00
H302   H     0.06765   0.73141   0.88644   0.00000  Uiso   1.00
H303   H     0.16841   0.45706   0.98205   0.00000  Uiso   1.00
H304   H     0.87490   0.27771   0.98330   0.00000  Uiso   1.00
H305   H     0.06565   0.92158   0.80362   0.00000  Uiso   1.00
H306   H     0.27814   0.34308   0.00523   0.00000  Uiso   1.00
H307   H     0.08986   0.28910   0.78141   0.00000  Uiso   1.00
H308   H     0.99647   0.17034   0.80193   0.00000  Uiso   1.00
H309   H     0.08692   0.47571   0.71671   0.00000  Uiso   1.00
H310   H     0.18769   0.20137   0.81232   0.00000  Uiso   1.00
H311   H     0.89055   0.07017   0.84555   0.00000  Uiso   1.00
H312   H     0.08130   0.71405   0.66586   0.00000  Uiso   1.00
H313   H     0.29379   0.13554   0.86748   0.00000  Uiso   1.00
O314   O     0.82095   0.10021   0.93082   0.00000  Uiso   1.00
O315   O     0.07122   0.94496   0.69508   0.00000  Uiso   1.00
O316   O     0.35000   0.18597   0.95959   0.00000  Uiso   1.00
N317   N     0.89141   0.24514   0.94807   0.00000  Uiso   1.00
N318   N     0.06974   0.84713   0.78008   0.00000  Uiso   1.00
N319   N     0.26840   0.30630   0.96856   0.00000  Uiso   1.00
N320   N     0.89983   0.13347   0.87395   0.00000  Uiso   1.00
N321   N     0.07815   0.73545   0.70595   0.00000  Uiso   1.00
N322   N     0.27682   0.19463   0.89444   0.00000  Uiso   1.00
C323   C     0.42423   0.02404   0.40544   0.00000  Uiso   1.00
C324   C     0.47298   0.11496   0.39908   0.00000  Uiso   1.00
C325   C     0.51866   0.12918   0.43502   0.00000  Uiso   1.00
C326   C     0.55882   0.21737   0.42192   0.00000  Uiso   1.00
C327   C     0.63535   0.34764   0.41923   0.00000  Uiso   1.00
C328   C     0.42384   0.94904   0.35278   0.00000  Uiso   1.00
C329   C     0.42820   0.82377   0.34979   0.00000  Uiso   1.00
C330   C     0.42699   0.77229   0.29771   0.00000  Uiso   1.00
C331   C     0.42718   0.64498   0.22313   0.00000  Uiso   1.00
C332   C     0.36909   0.09811   0.40473   0.00000  Uiso   1.00
C333   C     0.32741   0.09815   0.44541   0.00000  Uiso   1.00
C334   C     0.28010   0.17215   0.43706   0.00000  Uiso   1.00
C335   C     0.19529   0.27628   0.44315   0.00000  Uiso   1.00
C336   C     0.41433   0.15536   0.31827   0.00000  Uiso   1.00
C337   C     0.46760   0.18628   0.35173   0.00000  Uiso   1.00
C338   C     0.50771   0.27448   0.33857   0.00000  Uiso   1.00
C339   C     0.55344   0.28883   0.37449   0.00000  Uiso   1.00
C340   C     0.41846   0.02037   0.30543   0.00000  Uiso   1.00
C341   C     0.41724   0.96906   0.25334   0.00000  Uiso   1.00
C342   C     0.42160   0.84375   0.25027   0.00000  Uiso   1.00
C343   C     0.36372   0.16944   0.35738   0.00000  Uiso   1.00
C344   C     0.31646   0.24345   0.34897   0.00000  Uiso   1.00
C345   C     0.27471   0.24361   0.38963   0.00000  Uiso   1.00
H346   H     0.42842   0.96850   0.44230   0.00000  Uiso   1.00
H347   H     0.52281   0.07395   0.47165   0.00000  Uiso   1.00
H348   H     0.43235   0.76859   0.38644   0.00000  Uiso   1.00
H349   H     0.33159   0.04294   0.48205   0.00000  Uiso   1.00
H350   H     0.62510   0.22229   0.48330   0.00000  Uiso   1.00
H351   H     0.43435   0.57842   0.30362   0.00000  Uiso   1.00
H352   H     0.22186   0.15692   0.50523   0.00000  Uiso   1.00
H353   H     0.41014   0.21090   0.28141   0.00000  Uiso   1.00
H354   H     0.50353   0.32966   0.30193   0.00000  Uiso   1.00
H355   H     0.41308   0.02429   0.21671   0.00000  Uiso   1.00
H356   H     0.31231   0.29863   0.31232   0.00000  Uiso   1.00
H357   H     0.60945   0.42983   0.34555   0.00000  Uiso   1.00
H358   H     0.41870   0.78595   0.16586   0.00000  Uiso   1.00
H359   H     0.20621   0.36446   0.36748   0.00000  Uiso   1.00
O360   O     0.67905   0.39979   0.43082   0.00000  Uiso   1.00
O361   O     0.42878   0.55504   0.19508   0.00000  Uiso   1.00
O362   O     0.15000   0.31403   0.45959   0.00000  Uiso   1.00
N363   N     0.60859   0.25486   0.44807   0.00000  Uiso   1.00
N364   N     0.43026   0.65287   0.28008   0.00000  Uiso   1.00
N365   N     0.23160   0.19370   0.46856   0.00000  Uiso   1.00
N366   N     0.60017   0.36653   0.37395   0.00000  Uiso   1.00
N367   N     0.42185   0.76455   0.20595   0.00000  Uiso   1.00
N368   N     0.22318   0.30537   0.39444   0.00000  Uiso   1.00
