data_job_06146
_audit_creation_date              2018-12-19
_audit_creation_method            'Materials Studio'
_symmetry_space_group_name_H-M    'P1'
_symmetry_Int_Tables_number       1
_symmetry_cell_setting            triclinic
loop_
_symmetry_equiv_pos_as_xyz
  x,y,z
_cell_length_a                    16.3605
_cell_length_b                    16.1181
_cell_length_c                    15.4360
_cell_angle_alpha                 88.4931
_cell_angle_beta                  88.5264
_cell_angle_gamma                 87.4096
loop_
_atom_site_label
_atom_site_type_symbol
_atom_site_fract_x
_atom_site_fract_y
_atom_site_fract_z
_atom_site_U_iso_or_equiv
_atom_site_adp_type
_atom_site_occupancy
C1     C     0.59791   0.28097   0.99077   0.00000  Uiso   1.00
C2     C     0.51218   0.26806   0.95858   0.00000  Uiso   1.00
C3     C     0.48316   0.29254   0.87774   0.00000  Uiso   1.00
C4     C     0.40290   0.27506   0.86073   0.00000  Uiso   1.00
C5     C     0.27727   0.26120   0.80139   0.00000  Uiso   1.00
C6     C     0.58622   0.32875   0.07448   0.00000  Uiso   1.00
C7     C     0.61947   0.40425   0.09108   0.00000  Uiso   1.00
C8     C     0.60155   0.43785   0.17164   0.00000  Uiso   1.00
C9     C     0.59093   0.51818   0.29225   0.00000  Uiso   1.00
C10    C     0.63302   0.19500   0.01706   0.00000  Uiso   1.00
C11    C     0.70564   0.15806   0.98541   0.00000  Uiso   1.00
C12    C     0.72713   0.07906   0.01764   0.00000  Uiso   1.00
C13    C     0.78918   0.95175   0.04910   0.00000  Uiso   1.00
C14    C     0.50698   0.20638   0.10431   0.00000  Uiso   1.00
C15    C     0.46279   0.22754   0.02026   0.00000  Uiso   1.00
C16    C     0.38255   0.21001   0.00337   0.00000  Uiso   1.00
C17    C     0.35342   0.23446   0.92252   0.00000  Uiso   1.00
C18    C     0.53683   0.28823   0.13615   0.00000  Uiso   1.00
C19    C     0.51887   0.32172   0.21671   0.00000  Uiso   1.00
C20    C     0.55207   0.39726   0.23343   0.00000  Uiso   1.00
C21    C     0.58364   0.15448   0.07873   0.00000  Uiso   1.00
C22    C     0.60503   0.07553   0.11103   0.00000  Uiso   1.00
C23    C     0.67765   0.03847   0.07943   0.00000  Uiso   1.00
H24    H     0.63637   0.31252   0.94276   0.00000  Uiso   1.00
H25    H     0.52140   0.32391   0.83003   0.00000  Uiso   1.00
H26    H     0.65770   0.43559   0.04334   0.00000  Uiso   1.00
H27    H     0.74384   0.18944   0.93768   0.00000  Uiso   1.00
H28    H     0.37214   0.31868   0.73227   0.00000  Uiso   1.00
H29    H     0.65956   0.55416   0.18206   0.00000  Uiso   1.00
H30    H     0.84122   0.03511   0.95925   0.00000  Uiso   1.00
H31    H     0.46853   0.17483   0.15233   0.00000  Uiso   1.00
H32    H     0.34435   0.17865   0.05111   0.00000  Uiso   1.00
H33    H     0.48065   0.29034   0.26442   0.00000  Uiso   1.00
H34    H     0.56679   0.04419   0.15876   0.00000  Uiso   1.00
H35    H     0.22844   0.20079   0.91170   0.00000  Uiso   1.00
H36    H     0.51586   0.43628   0.36149   0.00000  Uiso   1.00
H37    H     0.69752   0.91722   0.13868   0.00000  Uiso   1.00
O38    O     0.22162   0.26476   0.75163   0.00000  Uiso   1.00
O39    O     0.59871   0.57370   0.34173   0.00000  Uiso   1.00
O40    O     0.83704   0.89271   0.04941   0.00000  Uiso   1.00
N41    N     0.35537   0.29040   0.78839   0.00000  Uiso   1.00
N42    N     0.62408   0.51057   0.20890   0.00000  Uiso   1.00
N43    N     0.79392   0.02530   0.00061   0.00000  Uiso   1.00
N44    N     0.27804   0.22696   0.88494   0.00000  Uiso   1.00
N45    N     0.54675   0.44713   0.30545   0.00000  Uiso   1.00
N46    N     0.71660   0.96186   0.09717   0.00000  Uiso   1.00
C47    C     0.98166   0.60079   0.28592   0.00000  Uiso   1.00
C48    C     0.95290   0.51376   0.27092   0.00000  Uiso   1.00
C49    C     0.87690   0.48470   0.29525   0.00000  Uiso   1.00
C50    C     0.86240   0.40315   0.27572   0.00000  Uiso   1.00
C51    C     0.80871   0.27569   0.25892   0.00000  Uiso   1.00
C52    C     0.06036   0.58900   0.33651   0.00000  Uiso   1.00
C53    C     0.07471   0.62321   0.41598   0.00000  Uiso   1.00
C54    C     0.15067   0.60500   0.45165   0.00000  Uiso   1.00
C55    C     0.26384   0.59440   0.53665   0.00000  Uiso   1.00
C56    C     0.00671   0.63578   0.19690   0.00000  Uiso   1.00
C57    C     0.97598   0.70935   0.15899   0.00000  Uiso   1.00
C58    C     0.00679   0.73054   0.07712   0.00000  Uiso   1.00
C59    C     0.03666   0.79259   0.94535   0.00000  Uiso   1.00
C60    C     0.09107   0.50764   0.20796   0.00000  Uiso   1.00
C61    C     0.01232   0.46316   0.22858   0.00000  Uiso   1.00
C62    C     0.99794   0.38163   0.20900   0.00000  Uiso   1.00
C63    C     0.92193   0.35246   0.23330   0.00000  Uiso   1.00
C64    C     0.11978   0.53840   0.29417   0.00000  Uiso   1.00
C65    C     0.19575   0.52014   0.32973   0.00000  Uiso   1.00
C66    C     0.21020   0.55431   0.40924   0.00000  Uiso   1.00
C67    C     0.06613   0.58518   0.15455   0.00000  Uiso   1.00
C68    C     0.09701   0.60628   0.07274   0.00000  Uiso   1.00
C69    C     0.06632   0.67986   0.03471   0.00000  Uiso   1.00
H70    H     0.93541   0.64019   0.31889   0.00000  Uiso   1.00
H71    H     0.83093   0.52387   0.32803   0.00000  Uiso   1.00
H72    H     0.02871   0.66237   0.44873   0.00000  Uiso   1.00
H73    H     0.92999   0.74849   0.19178   0.00000  Uiso   1.00
H74    H     0.74131   0.37260   0.31952   0.00000  Uiso   1.00
H75    H     0.15836   0.66465   0.57401   0.00000  Uiso   1.00
H76    H     0.95019   0.84625   0.03218   0.00000  Uiso   1.00
H77    H     0.13733   0.46824   0.17499   0.00000  Uiso   1.00
H78    H     0.04393   0.34249   0.17623   0.00000  Uiso   1.00
H79    H     0.24172   0.48099   0.29694   0.00000  Uiso   1.00
H80    H     0.14300   0.56710   0.03999   0.00000  Uiso   1.00
H81    H     0.91420   0.22538   0.19632   0.00000  Uiso   1.00
H82    H     0.33125   0.51743   0.45082   0.00000  Uiso   1.00
H83    H     0.12308   0.69903   0.90898   0.00000  Uiso   1.00
O84    O     0.76268   0.21936   0.26136   0.00000  Uiso   1.00
O85    O     0.30983   0.60253   0.59524   0.00000  Uiso   1.00
O86    O     0.03672   0.84078   0.88436   0.00000  Uiso   1.00
N87    N     0.79481   0.35521   0.29034   0.00000  Uiso   1.00
N88    N     0.18472   0.62825   0.52828   0.00000  Uiso   1.00
N89    N     0.99012   0.79804   0.02172   0.00000  Uiso   1.00
N90    N     0.88784   0.27599   0.22405   0.00000  Uiso   1.00
N91    N     0.27775   0.54903   0.46199   0.00000  Uiso   1.00
N92    N     0.08314   0.71883   0.95543   0.00000  Uiso   1.00
C93    C     0.28024   0.98290   0.60524   0.00000  Uiso   1.00
C94    C     0.26745   0.95315   0.51381   0.00000  Uiso   1.00
C95    C     0.29199   0.87572   0.48268   0.00000  Uiso   1.00
C96    C     0.27462   0.86051   0.39713   0.00000  Uiso   1.00
C97    C     0.26094   0.80520   0.26312   0.00000  Uiso   1.00
C98    C     0.32674   0.06256   0.59453   0.00000  Uiso   1.00
C99    C     0.40112   0.07712   0.63127   0.00000  Uiso   1.00
C100   C     0.43365   0.15402   0.61367   0.00000  Uiso   1.00
C101   C     0.51200   0.26859   0.60503   0.00000  Uiso   1.00
C102   C     0.19550   0.00883   0.64120   0.00000  Uiso   1.00
C103   C     0.15954   0.97823   0.71720   0.00000  Uiso   1.00
C104   C     0.08158   0.00990   0.73891   0.00000  Uiso   1.00
C105   C     0.95615   0.04104   0.80273   0.00000  Uiso   1.00
C106   C     0.20575   0.09357   0.50865   0.00000  Uiso   1.00
C107   C     0.22699   0.01327   0.46135   0.00000  Uiso   1.00
C108   C     0.20957   0.99817   0.37582   0.00000  Uiso   1.00
C109   C     0.23408   0.92073   0.34457   0.00000  Uiso   1.00
C110   C     0.28628   0.12268   0.54206   0.00000  Uiso   1.00
C111   C     0.31870   0.19957   0.52441   0.00000  Uiso   1.00
C112   C     0.39312   0.21425   0.56111   0.00000  Uiso   1.00
C113   C     0.15503   0.06894   0.58873   0.00000  Uiso   1.00
C114   C     0.07712   0.10068   0.61033   0.00000  Uiso   1.00
C115   C     0.04104   0.07013   0.68635   0.00000  Uiso   1.00
H116   H     0.31175   0.93610   0.64609   0.00000  Uiso   1.00
H117   H     0.32331   0.82922   0.52330   0.00000  Uiso   1.00
H118   H     0.43241   0.03059   0.67188   0.00000  Uiso   1.00
H119   H     0.19087   0.93171   0.75778   0.00000  Uiso   1.00
H120   H     0.31831   0.73725   0.36403   0.00000  Uiso   1.00
H121   H     0.54835   0.16186   0.67733   0.00000  Uiso   1.00
H122   H     0.03900   0.95335   0.85848   0.00000  Uiso   1.00
H123   H     0.17425   0.14038   0.46781   0.00000  Uiso   1.00
H124   H     0.17826   0.04471   0.33523   0.00000  Uiso   1.00
H125   H     0.28737   0.24608   0.48381   0.00000  Uiso   1.00
H126   H     0.04582   0.14720   0.56972   0.00000  Uiso   1.00
H127   H     0.20058   0.91214   0.21138   0.00000  Uiso   1.00
H128   H     0.43063   0.33676   0.52469   0.00000  Uiso   1.00
H129   H     0.92128   0.12825   0.70584   0.00000  Uiso   1.00
O130   O     0.26459   0.75808   0.20370   0.00000  Uiso   1.00
O131   O     0.56639   0.31517   0.61476   0.00000  Uiso   1.00
O132   O     0.89814   0.04160   0.85242   0.00000  Uiso   1.00
N133   N     0.29003   0.79153   0.34630   0.00000  Uiso   1.00
N134   N     0.50512   0.18852   0.63921   0.00000  Uiso   1.00
N135   N     0.02893   0.99359   0.80858   0.00000  Uiso   1.00
N136   N     0.22669   0.88564   0.26416   0.00000  Uiso   1.00
N137   N     0.44178   0.28263   0.55707   0.00000  Uiso   1.00
N138   N     0.96559   0.08770   0.72645   0.00000  Uiso   1.00
C139   C     0.40209   0.71903   0.00923   0.00000  Uiso   1.00
C140   C     0.48782   0.73194   0.04142   0.00000  Uiso   1.00
C141   C     0.51684   0.70746   0.12226   0.00000  Uiso   1.00
C142   C     0.59710   0.72494   0.13927   0.00000  Uiso   1.00
C143   C     0.72273   0.73880   0.19861   0.00000  Uiso   1.00
C144   C     0.41378   0.67125   0.92552   0.00000  Uiso   1.00
C145   C     0.38053   0.59575   0.90892   0.00000  Uiso   1.00
C146   C     0.39845   0.56215   0.82836   0.00000  Uiso   1.00
C147   C     0.40907   0.48182   0.70775   0.00000  Uiso   1.00
C148   C     0.36698   0.80499   0.98294   0.00000  Uiso   1.00
C149   C     0.29436   0.84194   0.01459   0.00000  Uiso   1.00
C150   C     0.27287   0.92094   0.98236   0.00000  Uiso   1.00
C151   C     0.21082   0.04825   0.95090   0.00000  Uiso   1.00
C152   C     0.49302   0.79362   0.89568   0.00000  Uiso   1.00
C153   C     0.53721   0.77246   0.97974   0.00000  Uiso   1.00
C154   C     0.61745   0.78999   0.99663   0.00000  Uiso   1.00
C155   C     0.64658   0.76554   0.07748   0.00000  Uiso   1.00
C156   C     0.46317   0.71177   0.86385   0.00000  Uiso   1.00
C157   C     0.48113   0.67828   0.78329   0.00000  Uiso   1.00
C158   C     0.44793   0.60274   0.76657   0.00000  Uiso   1.00
C159   C     0.41637   0.84552   0.92127   0.00000  Uiso   1.00
C160   C     0.39497   0.92447   0.88897   0.00000  Uiso   1.00
C161   C     0.32235   0.96153   0.92057   0.00000  Uiso   1.00
H162   H     0.36363   0.68748   0.05724   0.00000  Uiso   1.00
H163   H     0.47860   0.67609   0.16997   0.00000  Uiso   1.00
H164   H     0.34230   0.56441   0.95666   0.00000  Uiso   1.00
H165   H     0.25616   0.81056   0.06232   0.00000  Uiso   1.00
H166   H     0.62786   0.68132   0.26773   0.00000  Uiso   1.00
H167   H     0.34044   0.44584   0.81794   0.00000  Uiso   1.00
H168   H     0.15878   0.96489   0.04075   0.00000  Uiso   1.00
H169   H     0.53147   0.82517   0.84767   0.00000  Uiso   1.00
H170   H     0.65565   0.82135   0.94889   0.00000  Uiso   1.00
H171   H     0.51935   0.70966   0.73558   0.00000  Uiso   1.00
H172   H     0.43321   0.95581   0.84124   0.00000  Uiso   1.00
H173   H     0.77156   0.79921   0.08830   0.00000  Uiso   1.00
H174   H     0.48414   0.56372   0.63851   0.00000  Uiso   1.00
H175   H     0.30248   0.08278   0.86132   0.00000  Uiso   1.00
O176   O     0.77838   0.73524   0.24837   0.00000  Uiso   1.00
O177   O     0.40129   0.42630   0.65827   0.00000  Uiso   1.00
O178   O     0.16296   0.10729   0.95059   0.00000  Uiso   1.00
N179   N     0.64463   0.70960   0.21161   0.00000  Uiso   1.00
N180   N     0.37592   0.48943   0.79110   0.00000  Uiso   1.00
N181   N     0.20608   0.97470   0.99939   0.00000  Uiso   1.00
N182   N     0.72196   0.77304   0.11506   0.00000  Uiso   1.00
N183   N     0.45325   0.55287   0.69455   0.00000  Uiso   1.00
N184   N     0.28340   0.03814   0.90283   0.00000  Uiso   1.00
C185   C     0.01834   0.39921   0.71408   0.00000  Uiso   1.00
C186   C     0.04710   0.48624   0.72908   0.00000  Uiso   1.00
C187   C     0.12310   0.51530   0.70475   0.00000  Uiso   1.00
C188   C     0.13760   0.59685   0.72428   0.00000  Uiso   1.00
C189   C     0.19129   0.72431   0.74108   0.00000  Uiso   1.00
C190   C     0.93964   0.41100   0.66349   0.00000  Uiso   1.00
C191   C     0.92529   0.37679   0.58402   0.00000  Uiso   1.00
C192   C     0.84933   0.39500   0.54835   0.00000  Uiso   1.00
C193   C     0.73616   0.40560   0.46335   0.00000  Uiso   1.00
C194   C     0.99329   0.36422   0.80310   0.00000  Uiso   1.00
C195   C     0.02402   0.29065   0.84101   0.00000  Uiso   1.00
C196   C     0.99321   0.26946   0.92288   0.00000  Uiso   1.00
C197   C     0.96334   0.20741   0.05465   0.00000  Uiso   1.00
C198   C     0.90893   0.49236   0.79204   0.00000  Uiso   1.00
C199   C     0.98768   0.53684   0.77142   0.00000  Uiso   1.00
C200   C     0.00206   0.61837   0.79100   0.00000  Uiso   1.00
C201   C     0.07808   0.64754   0.76670   0.00000  Uiso   1.00
C202   C     0.88022   0.46160   0.70583   0.00000  Uiso   1.00
C203   C     0.80425   0.47986   0.67027   0.00000  Uiso   1.00
C204   C     0.78980   0.44569   0.59076   0.00000  Uiso   1.00
C205   C     0.93387   0.41482   0.84545   0.00000  Uiso   1.00
C206   C     0.90299   0.39372   0.92726   0.00000  Uiso   1.00
C207   C     0.93368   0.32014   0.96529   0.00000  Uiso   1.00
H208   H     0.06459   0.35981   0.68111   0.00000  Uiso   1.00
H209   H     0.16907   0.47613   0.67197   0.00000  Uiso   1.00
H210   H     0.97129   0.33763   0.55127   0.00000  Uiso   1.00
H211   H     0.07001   0.25151   0.80822   0.00000  Uiso   1.00
H212   H     0.25869   0.62740   0.68048   0.00000  Uiso   1.00
H213   H     0.84164   0.33535   0.42599   0.00000  Uiso   1.00
H214   H     0.04981   0.15375   0.96782   0.00000  Uiso   1.00
H215   H     0.86267   0.53176   0.82501   0.00000  Uiso   1.00
H216   H     0.95607   0.65751   0.82377   0.00000  Uiso   1.00
H217   H     0.75828   0.51901   0.70306   0.00000  Uiso   1.00
H218   H     0.85700   0.43289   0.96001   0.00000  Uiso   1.00
H219   H     0.08580   0.77462   0.80368   0.00000  Uiso   1.00
H220   H     0.66875   0.48257   0.54918   0.00000  Uiso   1.00
H221   H     0.87692   0.30097   0.09102   0.00000  Uiso   1.00
O222   O     0.23732   0.78064   0.73864   0.00000  Uiso   1.00
O223   O     0.69017   0.39747   0.40476   0.00000  Uiso   1.00
O224   O     0.96328   0.15922   0.11564   0.00000  Uiso   1.00
N225   N     0.20519   0.64479   0.70966   0.00000  Uiso   1.00
N226   N     0.81528   0.37175   0.47172   0.00000  Uiso   1.00
N227   N     0.00988   0.20196   0.97828   0.00000  Uiso   1.00
N228   N     0.11216   0.72401   0.77595   0.00000  Uiso   1.00
N229   N     0.72225   0.45097   0.53801   0.00000  Uiso   1.00
N230   N     0.91686   0.28117   0.04457   0.00000  Uiso   1.00
C231   C     0.71976   0.01710   0.39476   0.00000  Uiso   1.00
C232   C     0.73255   0.04685   0.48619   0.00000  Uiso   1.00
C233   C     0.70801   0.12428   0.51732   0.00000  Uiso   1.00
C234   C     0.72538   0.13949   0.60287   0.00000  Uiso   1.00
C235   C     0.73906   0.19480   0.73688   0.00000  Uiso   1.00
C236   C     0.67326   0.93744   0.40547   0.00000  Uiso   1.00
C237   C     0.59888   0.92288   0.36873   0.00000  Uiso   1.00
C238   C     0.56635   0.84598   0.38633   0.00000  Uiso   1.00
C239   C     0.48800   0.73141   0.39497   0.00000  Uiso   1.00
C240   C     0.80450   0.99117   0.35880   0.00000  Uiso   1.00
C241   C     0.84046   0.02177   0.28280   0.00000  Uiso   1.00
C242   C     0.91842   0.99010   0.26109   0.00000  Uiso   1.00
C243   C     0.04385   0.95896   0.19727   0.00000  Uiso   1.00
C244   C     0.79425   0.90643   0.49135   0.00000  Uiso   1.00
C245   C     0.77301   0.98673   0.53865   0.00000  Uiso   1.00
C246   C     0.79043   0.00183   0.62418   0.00000  Uiso   1.00
C247   C     0.76592   0.07927   0.65543   0.00000  Uiso   1.00
C248   C     0.71372   0.87732   0.45794   0.00000  Uiso   1.00
C249   C     0.68130   0.80043   0.47559   0.00000  Uiso   1.00
C250   C     0.60688   0.78575   0.43888   0.00000  Uiso   1.00
C251   C     0.84497   0.93106   0.41127   0.00000  Uiso   1.00
C252   C     0.92288   0.89932   0.38967   0.00000  Uiso   1.00
C253   C     0.95896   0.92987   0.31365   0.00000  Uiso   1.00
H254   H     0.68825   0.06390   0.35391   0.00000  Uiso   1.00
H255   H     0.67669   0.17078   0.47670   0.00000  Uiso   1.00
H256   H     0.56759   0.96941   0.32812   0.00000  Uiso   1.00
H257   H     0.80913   0.06829   0.24222   0.00000  Uiso   1.00
H258   H     0.68169   0.26275   0.63597   0.00000  Uiso   1.00
H259   H     0.45165   0.83814   0.32267   0.00000  Uiso   1.00
H260   H     0.96100   0.04665   0.14152   0.00000  Uiso   1.00
H261   H     0.82575   0.85962   0.53219   0.00000  Uiso   1.00
H262   H     0.82174   0.95529   0.66477   0.00000  Uiso   1.00
H263   H     0.71263   0.75392   0.51619   0.00000  Uiso   1.00
H264   H     0.95418   0.85280   0.43028   0.00000  Uiso   1.00
H265   H     0.79942   0.08786   0.78862   0.00000  Uiso   1.00
H266   H     0.56937   0.66324   0.47531   0.00000  Uiso   1.00
H267   H     0.07872   0.87175   0.29416   0.00000  Uiso   1.00
O268   O     0.73541   0.24192   0.79630   0.00000  Uiso   1.00
O269   O     0.43361   0.68483   0.38524   0.00000  Uiso   1.00
O270   O     0.10186   0.95840   0.14758   0.00000  Uiso   1.00
N271   N     0.70997   0.20847   0.65370   0.00000  Uiso   1.00
N272   N     0.49488   0.81148   0.36079   0.00000  Uiso   1.00
N273   N     0.97107   0.00641   0.19142   0.00000  Uiso   1.00
N274   N     0.77331   0.11436   0.73584   0.00000  Uiso   1.00
N275   N     0.55822   0.71737   0.44293   0.00000  Uiso   1.00
N276   N     0.03441   0.91230   0.27355   0.00000  Uiso   1.00
