data_job_03440
_audit_creation_date              2018-12-19
_audit_creation_method            'Materials Studio'
_symmetry_space_group_name_H-M    'P1'
_symmetry_Int_Tables_number       1
_symmetry_cell_setting            triclinic
loop_
_symmetry_equiv_pos_as_xyz
  x,y,z
_cell_length_a                    22.4395
_cell_length_b                    10.6231
_cell_length_c                    26.1065
_cell_angle_alpha                 90.0000
_cell_angle_beta                  150.6590
_cell_angle_gamma                 90.0000
loop_
_atom_site_label
_atom_site_type_symbol
_atom_site_fract_x
_atom_site_fract_y
_atom_site_fract_z
_atom_site_U_iso_or_equiv
_atom_site_adp_type
_atom_site_occupancy
C1     C     0.61831   0.64353   0.96684   0.00000  Uiso   1.00
C2     C     0.68050   0.65236   0.96135   0.00000  Uiso   1.00
C3     C     0.63303   0.71030   0.88254   0.00000  Uiso   1.00
C4     C     0.70409   0.70825   0.89182   0.00000  Uiso   1.00
C5     C     0.78323   0.73072   0.87034   0.00000  Uiso   1.00
C6     C     0.61221   0.50366   0.97514   0.00000  Uiso   1.00
C7     C     0.50732   0.43658   0.90793   0.00000  Uiso   1.00
C8     C     0.52090   0.30934   0.92884   0.00000  Uiso   1.00
C9     C     0.49403   0.10097   0.92881   0.00000  Uiso   1.00
C10    C     0.70653   0.70145   0.07135   0.00000  Uiso   1.00
C11    C     0.68093   0.80066   0.08504   0.00000  Uiso   1.00
C12    C     0.77391   0.83994   0.18695   0.00000  Uiso   1.00
C13    C     0.89348   0.93868   0.33629   0.00000  Uiso   1.00
C14    C     0.82891   0.53685   0.12348   0.00000  Uiso   1.00
C15    C     0.79489   0.59441   0.04643   0.00000  Uiso   1.00
C16    C     0.86604   0.59227   0.05584   0.00000  Uiso   1.00
C17    C     0.81869   0.65020   0.97706   0.00000  Uiso   1.00
C18    C     0.72660   0.44571   0.06022   0.00000  Uiso   1.00
C19    C     0.74033   0.31855   0.08124   0.00000  Uiso   1.00
C20    C     0.63549   0.25129   0.01407   0.00000  Uiso   1.00
C21    C     0.82092   0.64351   0.15643   0.00000  Uiso   1.00
C22    C     0.91395   0.68263   0.25834   0.00000  Uiso   1.00
C23    C     0.88850   0.78189   0.27218   0.00000  Uiso   1.00
H24    H     0.52925   0.68864   0.90060   0.00000  Uiso   1.00
H25    H     0.54450   0.75513   0.81670   0.00000  Uiso   1.00
H26    H     0.41881   0.48145   0.84211   0.00000  Uiso   1.00
H27    H     0.59240   0.84548   0.01918   0.00000  Uiso   1.00
H28    H     0.61183   0.80325   0.76119   0.00000  Uiso   1.00
H29    H     0.34683   0.22619   0.81477   0.00000  Uiso   1.00
H30    H     0.71287   0.99382   0.18817   0.00000  Uiso   1.00
H31    H     0.91797   0.49173   0.18972   0.00000  Uiso   1.00
H32    H     0.95456   0.54742   0.12169   0.00000  Uiso   1.00
H33    H     0.82887   0.27374   0.14709   0.00000  Uiso   1.00
H34    H     0.00246   0.63777   0.32416   0.00000  Uiso   1.00
H35    H     0.94465   0.63466   0.00873   0.00000  Uiso   1.00
H36    H     0.67964   0.05760   0.06231   0.00000  Uiso   1.00
H37    H     0.04569   0.82524   0.43571   0.00000  Uiso   1.00
O38    O     0.79528   0.75910   0.83498   0.00000  Uiso   1.00
O39    O     0.44760   0.00204   0.90528   0.00000  Uiso   1.00
O40    O     0.92784   0.00916   0.39517   0.00000  Uiso   1.00
N41    N     0.68515   0.75595   0.82880   0.00000  Uiso   1.00
N42    N     0.43738   0.21643   0.87888   0.00000  Uiso   1.00
N43    N     0.77959   0.93408   0.22798   0.00000  Uiso   1.00
N44    N     0.86424   0.66524   0.96200   0.00000  Uiso   1.00
N45    N     0.61647   0.12572   0.01208   0.00000  Uiso   1.00
N46    N     0.95868   0.84337   0.36118   0.00000  Uiso   1.00
C47    C     0.38169   0.14353   0.53316   0.00000  Uiso   1.00
C48    C     0.31950   0.15236   0.53865   0.00000  Uiso   1.00
C49    C     0.36697   0.21030   0.61746   0.00000  Uiso   1.00
C50    C     0.29591   0.20825   0.60818   0.00000  Uiso   1.00
C51    C     0.21677   0.23072   0.62966   0.00000  Uiso   1.00
C52    C     0.38779   0.00366   0.52486   0.00000  Uiso   1.00
C53    C     0.49268   0.93658   0.59207   0.00000  Uiso   1.00
C54    C     0.47910   0.80934   0.57116   0.00000  Uiso   1.00
C55    C     0.50597   0.60097   0.57119   0.00000  Uiso   1.00
C56    C     0.29347   0.20145   0.42865   0.00000  Uiso   1.00
C57    C     0.31907   0.30066   0.41496   0.00000  Uiso   1.00
C58    C     0.22609   0.33994   0.31305   0.00000  Uiso   1.00
C59    C     0.10652   0.43868   0.16371   0.00000  Uiso   1.00
C60    C     0.17109   0.03685   0.37652   0.00000  Uiso   1.00
C61    C     0.20511   0.09441   0.45357   0.00000  Uiso   1.00
C62    C     0.13396   0.09227   0.44416   0.00000  Uiso   1.00
C63    C     0.18131   0.15020   0.52294   0.00000  Uiso   1.00
C64    C     0.27340   0.94571   0.43978   0.00000  Uiso   1.00
C65    C     0.25967   0.81855   0.41876   0.00000  Uiso   1.00
C66    C     0.36451   0.75129   0.48593   0.00000  Uiso   1.00
C67    C     0.17908   0.14351   0.34357   0.00000  Uiso   1.00
C68    C     0.08605   0.18263   0.24166   0.00000  Uiso   1.00
C69    C     0.11150   0.28189   0.22782   0.00000  Uiso   1.00
H70    H     0.47075   0.18864   0.59940   0.00000  Uiso   1.00
H71    H     0.45550   0.25513   0.68330   0.00000  Uiso   1.00
H72    H     0.58119   0.98145   0.65789   0.00000  Uiso   1.00
H73    H     0.40760   0.34548   0.48082   0.00000  Uiso   1.00
H74    H     0.38817   0.30325   0.73881   0.00000  Uiso   1.00
H75    H     0.65317   0.72619   0.68523   0.00000  Uiso   1.00
H76    H     0.28713   0.49382   0.31183   0.00000  Uiso   1.00
H77    H     0.08203   0.99173   0.31028   0.00000  Uiso   1.00
H78    H     0.04544   0.04742   0.37831   0.00000  Uiso   1.00
H79    H     0.17113   0.77374   0.35291   0.00000  Uiso   1.00
H80    H     0.99754   0.13777   0.17584   0.00000  Uiso   1.00
H81    H     0.05535   0.13466   0.49127   0.00000  Uiso   1.00
H82    H     0.32036   0.55760   0.43769   0.00000  Uiso   1.00
H83    H     0.95431   0.32524   0.06429   0.00000  Uiso   1.00
O84    O     0.20472   0.25910   0.66502   0.00000  Uiso   1.00
O85    O     0.55240   0.50204   0.59472   0.00000  Uiso   1.00
O86    O     0.07216   0.50916   0.10483   0.00000  Uiso   1.00
N87    N     0.31485   0.25595   0.67120   0.00000  Uiso   1.00
N88    N     0.56262   0.71643   0.62112   0.00000  Uiso   1.00
N89    N     0.22041   0.43408   0.27202   0.00000  Uiso   1.00
N90    N     0.13576   0.16524   0.53800   0.00000  Uiso   1.00
N91    N     0.38353   0.62572   0.48792   0.00000  Uiso   1.00
N92    N     0.04132   0.34337   0.13882   0.00000  Uiso   1.00
C93    C     0.38169   0.35647   0.03316   0.00000  Uiso   1.00
C94    C     0.31950   0.34764   0.03865   0.00000  Uiso   1.00
C95    C     0.36697   0.28970   0.11746   0.00000  Uiso   1.00
C96    C     0.29591   0.29175   0.10818   0.00000  Uiso   1.00
C97    C     0.21677   0.26928   0.12966   0.00000  Uiso   1.00
C98    C     0.38779   0.49634   0.02486   0.00000  Uiso   1.00
C99    C     0.49268   0.56342   0.09207   0.00000  Uiso   1.00
C100   C     0.47910   0.69066   0.07116   0.00000  Uiso   1.00
C101   C     0.50597   0.89903   0.07119   0.00000  Uiso   1.00
C102   C     0.29347   0.29855   0.92865   0.00000  Uiso   1.00
C103   C     0.31907   0.19934   0.91496   0.00000  Uiso   1.00
C104   C     0.22609   0.16006   0.81305   0.00000  Uiso   1.00
C105   C     0.10652   0.06132   0.66371   0.00000  Uiso   1.00
C106   C     0.17109   0.46315   0.87652   0.00000  Uiso   1.00
C107   C     0.20511   0.40559   0.95357   0.00000  Uiso   1.00
C108   C     0.13396   0.40773   0.94416   0.00000  Uiso   1.00
C109   C     0.18131   0.34980   0.02294   0.00000  Uiso   1.00
C110   C     0.27340   0.55429   0.93978   0.00000  Uiso   1.00
C111   C     0.25967   0.68145   0.91876   0.00000  Uiso   1.00
C112   C     0.36451   0.74871   0.98593   0.00000  Uiso   1.00
C113   C     0.17908   0.35649   0.84357   0.00000  Uiso   1.00
C114   C     0.08605   0.31737   0.74166   0.00000  Uiso   1.00
C115   C     0.11150   0.21811   0.72782   0.00000  Uiso   1.00
H116   H     0.47075   0.31136   0.09940   0.00000  Uiso   1.00
H117   H     0.45550   0.24487   0.18330   0.00000  Uiso   1.00
H118   H     0.58119   0.51855   0.15789   0.00000  Uiso   1.00
H119   H     0.40760   0.15452   0.98082   0.00000  Uiso   1.00
H120   H     0.38817   0.19675   0.23881   0.00000  Uiso   1.00
H121   H     0.65317   0.77381   0.18523   0.00000  Uiso   1.00
H122   H     0.28713   0.00618   0.81183   0.00000  Uiso   1.00
H123   H     0.08203   0.50827   0.81028   0.00000  Uiso   1.00
H124   H     0.04544   0.45258   0.87831   0.00000  Uiso   1.00
H125   H     0.17113   0.72626   0.85291   0.00000  Uiso   1.00
H126   H     0.99754   0.36223   0.67584   0.00000  Uiso   1.00
H127   H     0.05535   0.36534   0.99127   0.00000  Uiso   1.00
H128   H     0.32036   0.94240   0.93769   0.00000  Uiso   1.00
H129   H     0.95431   0.17476   0.56429   0.00000  Uiso   1.00
O130   O     0.20472   0.24090   0.16502   0.00000  Uiso   1.00
O131   O     0.55240   0.99796   0.09472   0.00000  Uiso   1.00
O132   O     0.07216   0.99084   0.60483   0.00000  Uiso   1.00
N133   N     0.31485   0.24405   0.17120   0.00000  Uiso   1.00
N134   N     0.56262   0.78357   0.12112   0.00000  Uiso   1.00
N135   N     0.22041   0.06592   0.77202   0.00000  Uiso   1.00
N136   N     0.13576   0.33476   0.03800   0.00000  Uiso   1.00
N137   N     0.38353   0.87428   0.98792   0.00000  Uiso   1.00
N138   N     0.04132   0.15663   0.63882   0.00000  Uiso   1.00
C139   C     0.61831   0.85647   0.46684   0.00000  Uiso   1.00
C140   C     0.68050   0.84764   0.46135   0.00000  Uiso   1.00
C141   C     0.63303   0.78970   0.38254   0.00000  Uiso   1.00
C142   C     0.70409   0.79175   0.39182   0.00000  Uiso   1.00
C143   C     0.78323   0.76928   0.37034   0.00000  Uiso   1.00
C144   C     0.61221   0.99634   0.47514   0.00000  Uiso   1.00
C145   C     0.50732   0.06342   0.40793   0.00000  Uiso   1.00
C146   C     0.52090   0.19066   0.42884   0.00000  Uiso   1.00
C147   C     0.49403   0.39903   0.42881   0.00000  Uiso   1.00
C148   C     0.70653   0.79855   0.57135   0.00000  Uiso   1.00
C149   C     0.68093   0.69934   0.58504   0.00000  Uiso   1.00
C150   C     0.77391   0.66006   0.68695   0.00000  Uiso   1.00
C151   C     0.89348   0.56132   0.83629   0.00000  Uiso   1.00
C152   C     0.82891   0.96315   0.62348   0.00000  Uiso   1.00
C153   C     0.79489   0.90559   0.54643   0.00000  Uiso   1.00
C154   C     0.86604   0.90773   0.55584   0.00000  Uiso   1.00
C155   C     0.81869   0.84980   0.47706   0.00000  Uiso   1.00
C156   C     0.72660   0.05429   0.56022   0.00000  Uiso   1.00
C157   C     0.74033   0.18145   0.58124   0.00000  Uiso   1.00
C158   C     0.63549   0.24871   0.51407   0.00000  Uiso   1.00
C159   C     0.82092   0.85649   0.65643   0.00000  Uiso   1.00
C160   C     0.91395   0.81737   0.75834   0.00000  Uiso   1.00
C161   C     0.88850   0.71811   0.77218   0.00000  Uiso   1.00
H162   H     0.52925   0.81136   0.40060   0.00000  Uiso   1.00
H163   H     0.54450   0.74487   0.31670   0.00000  Uiso   1.00
H164   H     0.41881   0.01855   0.34211   0.00000  Uiso   1.00
H165   H     0.59240   0.65452   0.51918   0.00000  Uiso   1.00
H166   H     0.61183   0.69675   0.26119   0.00000  Uiso   1.00
H167   H     0.34683   0.27381   0.31477   0.00000  Uiso   1.00
H168   H     0.71287   0.50618   0.68817   0.00000  Uiso   1.00
H169   H     0.91797   0.00827   0.68972   0.00000  Uiso   1.00
H170   H     0.95456   0.95258   0.62169   0.00000  Uiso   1.00
H171   H     0.82887   0.22626   0.64709   0.00000  Uiso   1.00
H172   H     0.00246   0.86223   0.82416   0.00000  Uiso   1.00
H173   H     0.94465   0.86534   0.50873   0.00000  Uiso   1.00
H174   H     0.67964   0.44240   0.56231   0.00000  Uiso   1.00
H175   H     0.04569   0.67476   0.93571   0.00000  Uiso   1.00
O176   O     0.79528   0.74090   0.33498   0.00000  Uiso   1.00
O177   O     0.44760   0.49796   0.40528   0.00000  Uiso   1.00
O178   O     0.92784   0.49084   0.89517   0.00000  Uiso   1.00
N179   N     0.68515   0.74405   0.32880   0.00000  Uiso   1.00
N180   N     0.43738   0.28357   0.37888   0.00000  Uiso   1.00
N181   N     0.77959   0.56592   0.72798   0.00000  Uiso   1.00
N182   N     0.86424   0.83476   0.46200   0.00000  Uiso   1.00
N183   N     0.61647   0.37428   0.51208   0.00000  Uiso   1.00
N184   N     0.95868   0.65663   0.86118   0.00000  Uiso   1.00
