data_job_04164
_audit_creation_date              2018-12-19
_audit_creation_method            'Materials Studio'
_symmetry_space_group_name_H-M    'P1'
_symmetry_Int_Tables_number       1
_symmetry_cell_setting            triclinic
loop_
_symmetry_equiv_pos_as_xyz
  x,y,z
_cell_length_a                    39.6975
_cell_length_b                    19.2244
_cell_length_c                    14.6443
_cell_angle_alpha                 90.0000
_cell_angle_beta                  90.0000
_cell_angle_gamma                 90.0000
loop_
_atom_site_label
_atom_site_type_symbol
_atom_site_fract_x
_atom_site_fract_y
_atom_site_fract_z
_atom_site_U_iso_or_equiv
_atom_site_adp_type
_atom_site_occupancy
C1     C     0.16443   0.44020   0.39904   0.00000  Uiso   1.00
C2     C     0.18586   0.39974   0.46721   0.00000  Uiso   1.00
C3     C     0.19357   0.32944   0.46204   0.00000  Uiso   1.00
C4     C     0.21353   0.30218   0.53116   0.00000  Uiso   1.00
C5     C     0.24500   0.23301   0.62614   0.00000  Uiso   1.00
C6     C     0.13601   0.47302   0.45431   0.00000  Uiso   1.00
C7     C     0.10182   0.46434   0.43827   0.00000  Uiso   1.00
C8     C     0.07983   0.49877   0.49652   0.00000  Uiso   1.00
C9     C     0.03391   0.54342   0.57142   0.00000  Uiso   1.00
C10    C     0.18632   0.50033   0.36602   0.00000  Uiso   1.00
C11    C     0.19441   0.51463   0.27576   0.00000  Uiso   1.00
C12    C     0.21477   0.57207   0.25967   0.00000  Uiso   1.00
C13    C     0.24696   0.65912   0.19750   0.00000  Uiso   1.00
C14    C     0.18619   0.51680   0.53098   0.00000  Uiso   1.00
C15    C     0.19767   0.44135   0.53888   0.00000  Uiso   1.00
C16    C     0.21764   0.41418   0.60802   0.00000  Uiso   1.00
C17    C     0.22538   0.34385   0.60295   0.00000  Uiso   1.00
C18    C     0.14783   0.51462   0.52597   0.00000  Uiso   1.00
C19    C     0.12589   0.54908   0.58425   0.00000  Uiso   1.00
C20    C     0.09166   0.54045   0.56832   0.00000  Uiso   1.00
C21    C     0.19814   0.54194   0.43769   0.00000  Uiso   1.00
C22    C     0.21848   0.59937   0.42174   0.00000  Uiso   1.00
C23    C     0.22661   0.61374   0.33147   0.00000  Uiso   1.00
H24    H     0.15523   0.40781   0.34324   0.00000  Uiso   1.00
H25    H     0.18441   0.29726   0.40657   0.00000  Uiso   1.00
H26    H     0.09268   0.43214   0.38280   0.00000  Uiso   1.00
H27    H     0.18526   0.48242   0.22032   0.00000  Uiso   1.00
H28    H     0.22197   0.19303   0.50841   0.00000  Uiso   1.00
H29    H     0.02855   0.47746   0.45827   0.00000  Uiso   1.00
H30    H     0.22377   0.58348   0.11563   0.00000  Uiso   1.00
H31    H     0.19539   0.54919   0.58678   0.00000  Uiso   1.00
H32    H     0.22678   0.44639   0.66347   0.00000  Uiso   1.00
H33    H     0.13504   0.58127   0.63970   0.00000  Uiso   1.00
H34    H     0.22763   0.63155   0.47721   0.00000  Uiso   1.00
H35    H     0.25636   0.31407   0.71692   0.00000  Uiso   1.00
H36    H     0.06293   0.59850   0.66677   0.00000  Uiso   1.00
H37    H     0.25816   0.70452   0.32414   0.00000  Uiso   1.00
O38    O     0.25908   0.18337   0.65874   0.00000  Uiso   1.00
O39    O     0.00531   0.55654   0.59294   0.00000  Uiso   1.00
O40    O     0.26145   0.69563   0.14341   0.00000  Uiso   1.00
N41    N     0.22576   0.23563   0.54695   0.00000  Uiso   1.00
N42    N     0.04492   0.50154   0.50008   0.00000  Uiso   1.00
N43    N     0.22743   0.60068   0.17973   0.00000  Uiso   1.00
N44    N     0.24427   0.30076   0.65914   0.00000  Uiso   1.00
N45    N     0.06342   0.56667   0.61227   0.00000  Uiso   1.00
N46    N     0.24594   0.66581   0.29193   0.00000  Uiso   1.00
C47    C     0.33557   0.55980   0.39904   0.00000  Uiso   1.00
C48    C     0.31414   0.60026   0.46721   0.00000  Uiso   1.00
C49    C     0.30643   0.67056   0.46204   0.00000  Uiso   1.00
C50    C     0.28647   0.69782   0.53116   0.00000  Uiso   1.00
C51    C     0.25500   0.76699   0.62614   0.00000  Uiso   1.00
C52    C     0.36399   0.52698   0.45431   0.00000  Uiso   1.00
C53    C     0.39818   0.53566   0.43827   0.00000  Uiso   1.00
C54    C     0.42017   0.50123   0.49652   0.00000  Uiso   1.00
C55    C     0.46609   0.45658   0.57142   0.00000  Uiso   1.00
C56    C     0.31368   0.49967   0.36602   0.00000  Uiso   1.00
C57    C     0.30559   0.48537   0.27576   0.00000  Uiso   1.00
C58    C     0.28523   0.42793   0.25967   0.00000  Uiso   1.00
C59    C     0.25304   0.34088   0.19750   0.00000  Uiso   1.00
C60    C     0.31381   0.48320   0.53098   0.00000  Uiso   1.00
C61    C     0.30233   0.55865   0.53888   0.00000  Uiso   1.00
C62    C     0.28236   0.58582   0.60802   0.00000  Uiso   1.00
C63    C     0.27462   0.65615   0.60295   0.00000  Uiso   1.00
C64    C     0.35217   0.48538   0.52597   0.00000  Uiso   1.00
C65    C     0.37411   0.45092   0.58425   0.00000  Uiso   1.00
C66    C     0.40834   0.45955   0.56832   0.00000  Uiso   1.00
C67    C     0.30186   0.45806   0.43769   0.00000  Uiso   1.00
C68    C     0.28152   0.40063   0.42174   0.00000  Uiso   1.00
C69    C     0.27339   0.38626   0.33147   0.00000  Uiso   1.00
H70    H     0.34477   0.59219   0.34324   0.00000  Uiso   1.00
H71    H     0.31559   0.70274   0.40657   0.00000  Uiso   1.00
H72    H     0.40732   0.56786   0.38280   0.00000  Uiso   1.00
H73    H     0.31474   0.51758   0.22032   0.00000  Uiso   1.00
H74    H     0.27803   0.80697   0.50841   0.00000  Uiso   1.00
H75    H     0.47145   0.52254   0.45827   0.00000  Uiso   1.00
H76    H     0.27623   0.41652   0.11563   0.00000  Uiso   1.00
H77    H     0.30461   0.45081   0.58678   0.00000  Uiso   1.00
H78    H     0.27322   0.55361   0.66347   0.00000  Uiso   1.00
H79    H     0.36496   0.41873   0.63970   0.00000  Uiso   1.00
H80    H     0.27237   0.36845   0.47721   0.00000  Uiso   1.00
H81    H     0.24364   0.68593   0.71692   0.00000  Uiso   1.00
H82    H     0.43707   0.40150   0.66677   0.00000  Uiso   1.00
H83    H     0.24184   0.29548   0.32414   0.00000  Uiso   1.00
O84    O     0.24092   0.81663   0.65874   0.00000  Uiso   1.00
O85    O     0.49469   0.44346   0.59294   0.00000  Uiso   1.00
O86    O     0.23855   0.30437   0.14341   0.00000  Uiso   1.00
N87    N     0.27424   0.76437   0.54695   0.00000  Uiso   1.00
N88    N     0.45508   0.49846   0.50008   0.00000  Uiso   1.00
N89    N     0.27257   0.39932   0.17973   0.00000  Uiso   1.00
N90    N     0.25573   0.69924   0.65914   0.00000  Uiso   1.00
N91    N     0.43658   0.43333   0.61227   0.00000  Uiso   1.00
N92    N     0.25406   0.33419   0.29193   0.00000  Uiso   1.00
C93    C     0.33557   0.94020   0.10096   0.00000  Uiso   1.00
C94    C     0.31414   0.89974   0.03279   0.00000  Uiso   1.00
C95    C     0.30643   0.82944   0.03796   0.00000  Uiso   1.00
C96    C     0.28647   0.80218   0.96884   0.00000  Uiso   1.00
C97    C     0.25500   0.73301   0.87386   0.00000  Uiso   1.00
C98    C     0.36399   0.97302   0.04569   0.00000  Uiso   1.00
C99    C     0.39818   0.96434   0.06173   0.00000  Uiso   1.00
C100   C     0.42017   0.99877   0.00348   0.00000  Uiso   1.00
C101   C     0.46609   0.04342   0.92858   0.00000  Uiso   1.00
C102   C     0.31368   0.00033   0.13398   0.00000  Uiso   1.00
C103   C     0.30559   0.01463   0.22424   0.00000  Uiso   1.00
C104   C     0.28523   0.07207   0.24033   0.00000  Uiso   1.00
C105   C     0.25304   0.15912   0.30250   0.00000  Uiso   1.00
C106   C     0.31381   0.01680   0.96902   0.00000  Uiso   1.00
C107   C     0.30233   0.94135   0.96112   0.00000  Uiso   1.00
C108   C     0.28236   0.91418   0.89198   0.00000  Uiso   1.00
C109   C     0.27462   0.84385   0.89705   0.00000  Uiso   1.00
C110   C     0.35217   0.01462   0.97403   0.00000  Uiso   1.00
C111   C     0.37411   0.04908   0.91575   0.00000  Uiso   1.00
C112   C     0.40834   0.04045   0.93168   0.00000  Uiso   1.00
C113   C     0.30186   0.04194   0.06231   0.00000  Uiso   1.00
C114   C     0.28152   0.09937   0.07826   0.00000  Uiso   1.00
C115   C     0.27339   0.11374   0.16853   0.00000  Uiso   1.00
H116   H     0.34477   0.90781   0.15676   0.00000  Uiso   1.00
H117   H     0.31559   0.79726   0.09343   0.00000  Uiso   1.00
H118   H     0.40732   0.93214   0.11720   0.00000  Uiso   1.00
H119   H     0.31474   0.98242   0.27968   0.00000  Uiso   1.00
H120   H     0.27803   0.69303   0.99159   0.00000  Uiso   1.00
H121   H     0.47145   0.97746   0.04173   0.00000  Uiso   1.00
H122   H     0.27623   0.08348   0.38437   0.00000  Uiso   1.00
H123   H     0.30461   0.04919   0.91322   0.00000  Uiso   1.00
H124   H     0.27322   0.94639   0.83653   0.00000  Uiso   1.00
H125   H     0.36496   0.08127   0.86030   0.00000  Uiso   1.00
H126   H     0.27237   0.13155   0.02279   0.00000  Uiso   1.00
H127   H     0.24364   0.81407   0.78308   0.00000  Uiso   1.00
H128   H     0.43707   0.09850   0.83323   0.00000  Uiso   1.00
H129   H     0.24184   0.20452   0.17586   0.00000  Uiso   1.00
O130   O     0.24092   0.68337   0.84126   0.00000  Uiso   1.00
O131   O     0.49469   0.05654   0.90706   0.00000  Uiso   1.00
O132   O     0.23855   0.19563   0.35659   0.00000  Uiso   1.00
N133   N     0.27424   0.73563   0.95305   0.00000  Uiso   1.00
N134   N     0.45508   0.00154   0.99992   0.00000  Uiso   1.00
N135   N     0.27257   0.10068   0.32027   0.00000  Uiso   1.00
N136   N     0.25573   0.80076   0.84086   0.00000  Uiso   1.00
N137   N     0.43658   0.06667   0.88773   0.00000  Uiso   1.00
N138   N     0.25406   0.16581   0.20807   0.00000  Uiso   1.00
C139   C     0.16443   0.05980   0.10096   0.00000  Uiso   1.00
C140   C     0.18586   0.10026   0.03279   0.00000  Uiso   1.00
C141   C     0.19357   0.17056   0.03796   0.00000  Uiso   1.00
C142   C     0.21353   0.19782   0.96884   0.00000  Uiso   1.00
C143   C     0.24500   0.26699   0.87386   0.00000  Uiso   1.00
C144   C     0.13601   0.02698   0.04569   0.00000  Uiso   1.00
C145   C     0.10182   0.03566   0.06173   0.00000  Uiso   1.00
C146   C     0.07983   0.00123   0.00348   0.00000  Uiso   1.00
C147   C     0.03391   0.95658   0.92858   0.00000  Uiso   1.00
C148   C     0.18632   0.99967   0.13398   0.00000  Uiso   1.00
C149   C     0.19441   0.98537   0.22424   0.00000  Uiso   1.00
C150   C     0.21477   0.92793   0.24033   0.00000  Uiso   1.00
C151   C     0.24696   0.84088   0.30250   0.00000  Uiso   1.00
C152   C     0.18619   0.98320   0.96902   0.00000  Uiso   1.00
C153   C     0.19767   0.05865   0.96112   0.00000  Uiso   1.00
C154   C     0.21764   0.08582   0.89198   0.00000  Uiso   1.00
C155   C     0.22538   0.15615   0.89705   0.00000  Uiso   1.00
C156   C     0.14783   0.98538   0.97403   0.00000  Uiso   1.00
C157   C     0.12589   0.95092   0.91575   0.00000  Uiso   1.00
C158   C     0.09166   0.95955   0.93168   0.00000  Uiso   1.00
C159   C     0.19814   0.95806   0.06231   0.00000  Uiso   1.00
C160   C     0.21848   0.90063   0.07826   0.00000  Uiso   1.00
C161   C     0.22661   0.88626   0.16853   0.00000  Uiso   1.00
H162   H     0.15523   0.09219   0.15676   0.00000  Uiso   1.00
H163   H     0.18441   0.20274   0.09343   0.00000  Uiso   1.00
H164   H     0.09268   0.06786   0.11720   0.00000  Uiso   1.00
H165   H     0.18526   0.01758   0.27968   0.00000  Uiso   1.00
H166   H     0.22197   0.30697   0.99159   0.00000  Uiso   1.00
H167   H     0.02855   0.02254   0.04173   0.00000  Uiso   1.00
H168   H     0.22377   0.91652   0.38437   0.00000  Uiso   1.00
H169   H     0.19539   0.95081   0.91322   0.00000  Uiso   1.00
H170   H     0.22678   0.05361   0.83653   0.00000  Uiso   1.00
H171   H     0.13504   0.91873   0.86030   0.00000  Uiso   1.00
H172   H     0.22763   0.86845   0.02279   0.00000  Uiso   1.00
H173   H     0.25636   0.18593   0.78308   0.00000  Uiso   1.00
H174   H     0.06293   0.90150   0.83323   0.00000  Uiso   1.00
H175   H     0.25816   0.79548   0.17586   0.00000  Uiso   1.00
O176   O     0.25908   0.31663   0.84126   0.00000  Uiso   1.00
O177   O     0.00531   0.94346   0.90706   0.00000  Uiso   1.00
O178   O     0.26145   0.80437   0.35659   0.00000  Uiso   1.00
N179   N     0.22576   0.26437   0.95305   0.00000  Uiso   1.00
N180   N     0.04492   0.99846   0.99992   0.00000  Uiso   1.00
N181   N     0.22743   0.89932   0.32027   0.00000  Uiso   1.00
N182   N     0.24427   0.19924   0.84086   0.00000  Uiso   1.00
N183   N     0.06342   0.93333   0.88773   0.00000  Uiso   1.00
N184   N     0.24594   0.83419   0.20807   0.00000  Uiso   1.00
C185   C     0.83557   0.55980   0.60096   0.00000  Uiso   1.00
C186   C     0.81414   0.60026   0.53279   0.00000  Uiso   1.00
C187   C     0.80643   0.67056   0.53796   0.00000  Uiso   1.00
C188   C     0.78647   0.69782   0.46884   0.00000  Uiso   1.00
C189   C     0.75500   0.76699   0.37386   0.00000  Uiso   1.00
C190   C     0.86399   0.52698   0.54569   0.00000  Uiso   1.00
C191   C     0.89818   0.53566   0.56173   0.00000  Uiso   1.00
C192   C     0.92017   0.50123   0.50348   0.00000  Uiso   1.00
C193   C     0.96609   0.45658   0.42858   0.00000  Uiso   1.00
C194   C     0.81368   0.49967   0.63398   0.00000  Uiso   1.00
C195   C     0.80559   0.48537   0.72424   0.00000  Uiso   1.00
C196   C     0.78523   0.42793   0.74033   0.00000  Uiso   1.00
C197   C     0.75304   0.34088   0.80250   0.00000  Uiso   1.00
C198   C     0.81381   0.48320   0.46902   0.00000  Uiso   1.00
C199   C     0.80233   0.55865   0.46112   0.00000  Uiso   1.00
C200   C     0.78236   0.58582   0.39198   0.00000  Uiso   1.00
C201   C     0.77462   0.65615   0.39705   0.00000  Uiso   1.00
C202   C     0.85217   0.48538   0.47403   0.00000  Uiso   1.00
C203   C     0.87411   0.45092   0.41575   0.00000  Uiso   1.00
C204   C     0.90834   0.45955   0.43168   0.00000  Uiso   1.00
C205   C     0.80186   0.45806   0.56231   0.00000  Uiso   1.00
C206   C     0.78152   0.40063   0.57826   0.00000  Uiso   1.00
C207   C     0.77339   0.38626   0.66853   0.00000  Uiso   1.00
H208   H     0.84477   0.59219   0.65676   0.00000  Uiso   1.00
H209   H     0.81559   0.70274   0.59343   0.00000  Uiso   1.00
H210   H     0.90732   0.56786   0.61720   0.00000  Uiso   1.00
H211   H     0.81474   0.51758   0.77968   0.00000  Uiso   1.00
H212   H     0.77803   0.80697   0.49159   0.00000  Uiso   1.00
H213   H     0.97145   0.52254   0.54173   0.00000  Uiso   1.00
H214   H     0.77623   0.41652   0.88437   0.00000  Uiso   1.00
H215   H     0.80461   0.45081   0.41322   0.00000  Uiso   1.00
H216   H     0.77322   0.55361   0.33653   0.00000  Uiso   1.00
H217   H     0.86496   0.41873   0.36030   0.00000  Uiso   1.00
H218   H     0.77237   0.36845   0.52279   0.00000  Uiso   1.00
H219   H     0.74364   0.68593   0.28308   0.00000  Uiso   1.00
H220   H     0.93707   0.40150   0.33323   0.00000  Uiso   1.00
H221   H     0.74184   0.29548   0.67586   0.00000  Uiso   1.00
O222   O     0.74092   0.81663   0.34126   0.00000  Uiso   1.00
O223   O     0.99469   0.44346   0.40706   0.00000  Uiso   1.00
O224   O     0.73855   0.30437   0.85659   0.00000  Uiso   1.00
N225   N     0.77424   0.76437   0.45305   0.00000  Uiso   1.00
N226   N     0.95508   0.49846   0.49992   0.00000  Uiso   1.00
N227   N     0.77257   0.39932   0.82027   0.00000  Uiso   1.00
N228   N     0.75573   0.69924   0.34086   0.00000  Uiso   1.00
N229   N     0.93658   0.43333   0.38773   0.00000  Uiso   1.00
N230   N     0.75406   0.33419   0.70807   0.00000  Uiso   1.00
C231   C     0.66443   0.44020   0.60096   0.00000  Uiso   1.00
C232   C     0.68586   0.39974   0.53279   0.00000  Uiso   1.00
C233   C     0.69357   0.32944   0.53796   0.00000  Uiso   1.00
C234   C     0.71353   0.30218   0.46884   0.00000  Uiso   1.00
C235   C     0.74500   0.23301   0.37386   0.00000  Uiso   1.00
C236   C     0.63601   0.47302   0.54569   0.00000  Uiso   1.00
C237   C     0.60182   0.46434   0.56173   0.00000  Uiso   1.00
C238   C     0.57983   0.49877   0.50348   0.00000  Uiso   1.00
C239   C     0.53391   0.54342   0.42858   0.00000  Uiso   1.00
C240   C     0.68632   0.50033   0.63398   0.00000  Uiso   1.00
C241   C     0.69441   0.51463   0.72424   0.00000  Uiso   1.00
C242   C     0.71477   0.57207   0.74033   0.00000  Uiso   1.00
C243   C     0.74696   0.65912   0.80250   0.00000  Uiso   1.00
C244   C     0.68619   0.51680   0.46902   0.00000  Uiso   1.00
C245   C     0.69767   0.44135   0.46112   0.00000  Uiso   1.00
C246   C     0.71764   0.41418   0.39198   0.00000  Uiso   1.00
C247   C     0.72538   0.34385   0.39705   0.00000  Uiso   1.00
C248   C     0.64783   0.51462   0.47403   0.00000  Uiso   1.00
C249   C     0.62589   0.54908   0.41575   0.00000  Uiso   1.00
C250   C     0.59166   0.54045   0.43168   0.00000  Uiso   1.00
C251   C     0.69814   0.54194   0.56231   0.00000  Uiso   1.00
C252   C     0.71848   0.59937   0.57826   0.00000  Uiso   1.00
C253   C     0.72661   0.61374   0.66853   0.00000  Uiso   1.00
H254   H     0.65523   0.40781   0.65676   0.00000  Uiso   1.00
H255   H     0.68441   0.29726   0.59343   0.00000  Uiso   1.00
H256   H     0.59268   0.43214   0.61720   0.00000  Uiso   1.00
H257   H     0.68526   0.48242   0.77968   0.00000  Uiso   1.00
H258   H     0.72197   0.19303   0.49159   0.00000  Uiso   1.00
H259   H     0.52855   0.47746   0.54173   0.00000  Uiso   1.00
H260   H     0.72377   0.58348   0.88437   0.00000  Uiso   1.00
H261   H     0.69539   0.54919   0.41322   0.00000  Uiso   1.00
H262   H     0.72678   0.44639   0.33653   0.00000  Uiso   1.00
H263   H     0.63504   0.58127   0.36030   0.00000  Uiso   1.00
H264   H     0.72763   0.63155   0.52279   0.00000  Uiso   1.00
H265   H     0.75636   0.31407   0.28308   0.00000  Uiso   1.00
H266   H     0.56293   0.59850   0.33323   0.00000  Uiso   1.00
H267   H     0.75816   0.70452   0.67586   0.00000  Uiso   1.00
O268   O     0.75908   0.18337   0.34126   0.00000  Uiso   1.00
O269   O     0.50531   0.55654   0.40706   0.00000  Uiso   1.00
O270   O     0.76145   0.69563   0.85659   0.00000  Uiso   1.00
N271   N     0.72576   0.23563   0.45305   0.00000  Uiso   1.00
N272   N     0.54492   0.50154   0.49992   0.00000  Uiso   1.00
N273   N     0.72743   0.60068   0.82027   0.00000  Uiso   1.00
N274   N     0.74427   0.30076   0.34086   0.00000  Uiso   1.00
N275   N     0.56342   0.56667   0.38773   0.00000  Uiso   1.00
N276   N     0.74594   0.66581   0.70807   0.00000  Uiso   1.00
C277   C     0.66443   0.05980   0.89904   0.00000  Uiso   1.00
C278   C     0.68586   0.10026   0.96721   0.00000  Uiso   1.00
C279   C     0.69357   0.17056   0.96204   0.00000  Uiso   1.00
C280   C     0.71353   0.19782   0.03116   0.00000  Uiso   1.00
C281   C     0.74500   0.26699   0.12614   0.00000  Uiso   1.00
C282   C     0.63601   0.02698   0.95431   0.00000  Uiso   1.00
C283   C     0.60182   0.03566   0.93827   0.00000  Uiso   1.00
C284   C     0.57983   0.00123   0.99652   0.00000  Uiso   1.00
C285   C     0.53391   0.95658   0.07142   0.00000  Uiso   1.00
C286   C     0.68632   0.99967   0.86602   0.00000  Uiso   1.00
C287   C     0.69441   0.98537   0.77576   0.00000  Uiso   1.00
C288   C     0.71477   0.92793   0.75967   0.00000  Uiso   1.00
C289   C     0.74696   0.84088   0.69750   0.00000  Uiso   1.00
C290   C     0.68619   0.98320   0.03098   0.00000  Uiso   1.00
C291   C     0.69767   0.05865   0.03888   0.00000  Uiso   1.00
C292   C     0.71764   0.08582   0.10802   0.00000  Uiso   1.00
C293   C     0.72538   0.15615   0.10295   0.00000  Uiso   1.00
C294   C     0.64783   0.98538   0.02597   0.00000  Uiso   1.00
C295   C     0.62589   0.95092   0.08425   0.00000  Uiso   1.00
C296   C     0.59166   0.95955   0.06832   0.00000  Uiso   1.00
C297   C     0.69814   0.95806   0.93769   0.00000  Uiso   1.00
C298   C     0.71848   0.90063   0.92174   0.00000  Uiso   1.00
C299   C     0.72661   0.88626   0.83147   0.00000  Uiso   1.00
H300   H     0.65523   0.09219   0.84324   0.00000  Uiso   1.00
H301   H     0.68441   0.20274   0.90657   0.00000  Uiso   1.00
H302   H     0.59268   0.06786   0.88280   0.00000  Uiso   1.00
H303   H     0.68526   0.01758   0.72032   0.00000  Uiso   1.00
H304   H     0.72197   0.30697   0.00841   0.00000  Uiso   1.00
H305   H     0.52855   0.02254   0.95827   0.00000  Uiso   1.00
H306   H     0.72377   0.91652   0.61563   0.00000  Uiso   1.00
H307   H     0.69539   0.95081   0.08678   0.00000  Uiso   1.00
H308   H     0.72678   0.05361   0.16347   0.00000  Uiso   1.00
H309   H     0.63504   0.91873   0.13970   0.00000  Uiso   1.00
H310   H     0.72763   0.86845   0.97721   0.00000  Uiso   1.00
H311   H     0.75636   0.18593   0.21692   0.00000  Uiso   1.00
H312   H     0.56293   0.90150   0.16677   0.00000  Uiso   1.00
H313   H     0.75816   0.79548   0.82414   0.00000  Uiso   1.00
O314   O     0.75908   0.31663   0.15874   0.00000  Uiso   1.00
O315   O     0.50531   0.94346   0.09294   0.00000  Uiso   1.00
O316   O     0.76145   0.80437   0.64341   0.00000  Uiso   1.00
N317   N     0.72576   0.26437   0.04695   0.00000  Uiso   1.00
N318   N     0.54492   0.99846   0.00008   0.00000  Uiso   1.00
N319   N     0.72743   0.89932   0.67973   0.00000  Uiso   1.00
N320   N     0.74427   0.19924   0.15914   0.00000  Uiso   1.00
N321   N     0.56342   0.93333   0.11227   0.00000  Uiso   1.00
N322   N     0.74594   0.83419   0.79193   0.00000  Uiso   1.00
C323   C     0.83557   0.94020   0.89904   0.00000  Uiso   1.00
C324   C     0.81414   0.89974   0.96721   0.00000  Uiso   1.00
C325   C     0.80643   0.82944   0.96204   0.00000  Uiso   1.00
C326   C     0.78647   0.80218   0.03116   0.00000  Uiso   1.00
C327   C     0.75500   0.73301   0.12614   0.00000  Uiso   1.00
C328   C     0.86399   0.97302   0.95431   0.00000  Uiso   1.00
C329   C     0.89818   0.96434   0.93827   0.00000  Uiso   1.00
C330   C     0.92017   0.99877   0.99652   0.00000  Uiso   1.00
C331   C     0.96609   0.04342   0.07142   0.00000  Uiso   1.00
C332   C     0.81368   0.00033   0.86602   0.00000  Uiso   1.00
C333   C     0.80559   0.01463   0.77576   0.00000  Uiso   1.00
C334   C     0.78523   0.07207   0.75967   0.00000  Uiso   1.00
C335   C     0.75304   0.15912   0.69750   0.00000  Uiso   1.00
C336   C     0.81381   0.01680   0.03098   0.00000  Uiso   1.00
C337   C     0.80233   0.94135   0.03888   0.00000  Uiso   1.00
C338   C     0.78236   0.91418   0.10802   0.00000  Uiso   1.00
C339   C     0.77462   0.84385   0.10295   0.00000  Uiso   1.00
C340   C     0.85217   0.01462   0.02597   0.00000  Uiso   1.00
C341   C     0.87411   0.04908   0.08425   0.00000  Uiso   1.00
C342   C     0.90834   0.04045   0.06832   0.00000  Uiso   1.00
C343   C     0.80186   0.04194   0.93769   0.00000  Uiso   1.00
C344   C     0.78152   0.09937   0.92174   0.00000  Uiso   1.00
C345   C     0.77339   0.11374   0.83147   0.00000  Uiso   1.00
H346   H     0.84477   0.90781   0.84324   0.00000  Uiso   1.00
H347   H     0.81559   0.79726   0.90657   0.00000  Uiso   1.00
H348   H     0.90732   0.93214   0.88280   0.00000  Uiso   1.00
H349   H     0.81474   0.98242   0.72032   0.00000  Uiso   1.00
H350   H     0.77803   0.69303   0.00841   0.00000  Uiso   1.00
H351   H     0.97145   0.97746   0.95827   0.00000  Uiso   1.00
H352   H     0.77623   0.08348   0.61563   0.00000  Uiso   1.00
H353   H     0.80461   0.04919   0.08678   0.00000  Uiso   1.00
H354   H     0.77322   0.94639   0.16347   0.00000  Uiso   1.00
H355   H     0.86496   0.08127   0.13970   0.00000  Uiso   1.00
H356   H     0.77237   0.13155   0.97721   0.00000  Uiso   1.00
H357   H     0.74364   0.81407   0.21692   0.00000  Uiso   1.00
H358   H     0.93707   0.09850   0.16677   0.00000  Uiso   1.00
H359   H     0.74184   0.20452   0.82414   0.00000  Uiso   1.00
O360   O     0.74092   0.68337   0.15874   0.00000  Uiso   1.00
O361   O     0.99469   0.05654   0.09294   0.00000  Uiso   1.00
O362   O     0.73855   0.19563   0.64341   0.00000  Uiso   1.00
N363   N     0.77424   0.73563   0.04695   0.00000  Uiso   1.00
N364   N     0.95508   0.00154   0.00008   0.00000  Uiso   1.00
N365   N     0.77257   0.10068   0.67973   0.00000  Uiso   1.00
N366   N     0.75573   0.80076   0.15914   0.00000  Uiso   1.00
N367   N     0.93658   0.06667   0.11227   0.00000  Uiso   1.00
N368   N     0.75406   0.16581   0.79193   0.00000  Uiso   1.00
