data_job_03433
_audit_creation_date              2018-12-19
_audit_creation_method            'Materials Studio'
_symmetry_space_group_name_H-M    'P1'
_symmetry_Int_Tables_number       1
_symmetry_cell_setting            triclinic
loop_
_symmetry_equiv_pos_as_xyz
  x,y,z
_cell_length_a                    21.5490
_cell_length_b                    14.5051
_cell_length_c                    21.4533
_cell_angle_alpha                 90.0000
_cell_angle_beta                  90.0000
_cell_angle_gamma                 90.0000
loop_
_atom_site_label
_atom_site_type_symbol
_atom_site_fract_x
_atom_site_fract_y
_atom_site_fract_z
_atom_site_U_iso_or_equiv
_atom_site_adp_type
_atom_site_occupancy
C1     C     0.83850   0.63133   0.13808   0.00000  Uiso   1.00
C2     C     0.84883   0.53686   0.10868   0.00000  Uiso   1.00
C3     C     0.80931   0.49367   0.06678   0.00000  Uiso   1.00
C4     C     0.82704   0.40734   0.04525   0.00000  Uiso   1.00
C5     C     0.83465   0.26695   0.99661   0.00000  Uiso   1.00
C6     C     0.84067   0.61629   0.20840   0.00000  Uiso   1.00
C7     C     0.79428   0.63990   0.25035   0.00000  Uiso   1.00
C8     C     0.80515   0.62043   0.31277   0.00000  Uiso   1.00
C9     C     0.80011   0.60342   0.41896   0.00000  Uiso   1.00
C10    C     0.89574   0.68840   0.12204   0.00000  Uiso   1.00
C11    C     0.89566   0.77266   0.09139   0.00000  Uiso   1.00
C12    C     0.95290   0.81392   0.08111   0.00000  Uiso   1.00
C13    C     0.03337   0.90887   0.05322   0.00000  Uiso   1.00
C14    C     0.94027   0.55480   0.17436   0.00000  Uiso   1.00
C15    C     0.90411   0.49529   0.12838   0.00000  Uiso   1.00
C16    C     0.92191   0.40900   0.10691   0.00000  Uiso   1.00
C17    C     0.88242   0.36569   0.06498   0.00000  Uiso   1.00
C18    C     0.89595   0.57472   0.22810   0.00000  Uiso   1.00
C19    C     0.90688   0.55523   0.29048   0.00000  Uiso   1.00
C20    C     0.86053   0.57879   0.33251   0.00000  Uiso   1.00
C21    C     0.95102   0.64683   0.14174   0.00000  Uiso   1.00
C22    C     0.00827   0.68798   0.13152   0.00000  Uiso   1.00
C23    C     0.00828   0.77228   0.10085   0.00000  Uiso   1.00
H24    H     0.79546   0.66369   0.12275   0.00000  Uiso   1.00
H25    H     0.76653   0.52586   0.05154   0.00000  Uiso   1.00
H26    H     0.75151   0.67207   0.23509   0.00000  Uiso   1.00
H27    H     0.85288   0.80480   0.07615   0.00000  Uiso   1.00
H28    H     0.75882   0.35470   0.98131   0.00000  Uiso   1.00
H29    H     0.72716   0.66302   0.36831   0.00000  Uiso   1.00
H30    H     0.94091   0.94291   0.03317   0.00000  Uiso   1.00
H31    H     0.98331   0.52244   0.18970   0.00000  Uiso   1.00
H32    H     0.96469   0.37685   0.12216   0.00000  Uiso   1.00
H33    H     0.94967   0.52306   0.30571   0.00000  Uiso   1.00
H34    H     0.05103   0.65579   0.14677   0.00000  Uiso   1.00
H35    H     0.91965   0.23376   0.03863   0.00000  Uiso   1.00
H36    H     0.88799   0.54208   0.42564   0.00000  Uiso   1.00
H37    H     0.10174   0.82197   0.09049   0.00000  Uiso   1.00
O38    O     0.82358   0.20099   0.96435   0.00000  Uiso   1.00
O39    O     0.78205   0.60551   0.47209   0.00000  Uiso   1.00
O40    O     0.06249   0.97272   0.03238   0.00000  Uiso   1.00
N41    N     0.79923   0.34622   0.00405   0.00000  Uiso   1.00
N42    N     0.76963   0.63447   0.36588   0.00000  Uiso   1.00
N43    N     0.96947   0.89616   0.05256   0.00000  Uiso   1.00
N44    N     0.88577   0.28115   0.03490   0.00000  Uiso   1.00
N45    N     0.85617   0.56939   0.39673   0.00000  Uiso   1.00
N46    N     0.05601   0.83108   0.08341   0.00000  Uiso   1.00
C47    C     0.66150   0.86867   0.13808   0.00000  Uiso   1.00
C48    C     0.65117   0.96314   0.10868   0.00000  Uiso   1.00
C49    C     0.69069   0.00633   0.06678   0.00000  Uiso   1.00
C50    C     0.67296   0.09266   0.04525   0.00000  Uiso   1.00
C51    C     0.66535   0.23305   0.99661   0.00000  Uiso   1.00
C52    C     0.65933   0.88371   0.20840   0.00000  Uiso   1.00
C53    C     0.70572   0.86010   0.25035   0.00000  Uiso   1.00
C54    C     0.69485   0.87957   0.31277   0.00000  Uiso   1.00
C55    C     0.69989   0.89658   0.41896   0.00000  Uiso   1.00
C56    C     0.60426   0.81160   0.12204   0.00000  Uiso   1.00
C57    C     0.60434   0.72734   0.09139   0.00000  Uiso   1.00
C58    C     0.54710   0.68608   0.08111   0.00000  Uiso   1.00
C59    C     0.46663   0.59113   0.05322   0.00000  Uiso   1.00
C60    C     0.55973   0.94520   0.17436   0.00000  Uiso   1.00
C61    C     0.59589   0.00471   0.12838   0.00000  Uiso   1.00
C62    C     0.57809   0.09100   0.10691   0.00000  Uiso   1.00
C63    C     0.61758   0.13431   0.06498   0.00000  Uiso   1.00
C64    C     0.60405   0.92528   0.22810   0.00000  Uiso   1.00
C65    C     0.59312   0.94477   0.29048   0.00000  Uiso   1.00
C66    C     0.63947   0.92121   0.33251   0.00000  Uiso   1.00
C67    C     0.54898   0.85317   0.14174   0.00000  Uiso   1.00
C68    C     0.49173   0.81202   0.13152   0.00000  Uiso   1.00
C69    C     0.49172   0.72772   0.10085   0.00000  Uiso   1.00
H70    H     0.70454   0.83631   0.12275   0.00000  Uiso   1.00
H71    H     0.73347   0.97414   0.05154   0.00000  Uiso   1.00
H72    H     0.74849   0.82793   0.23509   0.00000  Uiso   1.00
H73    H     0.64712   0.69520   0.07615   0.00000  Uiso   1.00
H74    H     0.74118   0.14530   0.98131   0.00000  Uiso   1.00
H75    H     0.77284   0.83698   0.36831   0.00000  Uiso   1.00
H76    H     0.55909   0.55709   0.03317   0.00000  Uiso   1.00
H77    H     0.51669   0.97756   0.18970   0.00000  Uiso   1.00
H78    H     0.53531   0.12315   0.12216   0.00000  Uiso   1.00
H79    H     0.55033   0.97694   0.30571   0.00000  Uiso   1.00
H80    H     0.44897   0.84421   0.14677   0.00000  Uiso   1.00
H81    H     0.58035   0.26624   0.03863   0.00000  Uiso   1.00
H82    H     0.61201   0.95792   0.42564   0.00000  Uiso   1.00
H83    H     0.39826   0.67803   0.09049   0.00000  Uiso   1.00
O84    O     0.67642   0.29901   0.96435   0.00000  Uiso   1.00
O85    O     0.71795   0.89449   0.47209   0.00000  Uiso   1.00
O86    O     0.43751   0.52728   0.03238   0.00000  Uiso   1.00
N87    N     0.70077   0.15378   0.00405   0.00000  Uiso   1.00
N88    N     0.73037   0.86553   0.36588   0.00000  Uiso   1.00
N89    N     0.53053   0.60384   0.05256   0.00000  Uiso   1.00
N90    N     0.61423   0.21885   0.03490   0.00000  Uiso   1.00
N91    N     0.64383   0.93061   0.39673   0.00000  Uiso   1.00
N92    N     0.44399   0.66892   0.08341   0.00000  Uiso   1.00
C93    C     0.16150   0.13133   0.36192   0.00000  Uiso   1.00
C94    C     0.15117   0.03686   0.39132   0.00000  Uiso   1.00
C95    C     0.19069   0.99367   0.43322   0.00000  Uiso   1.00
C96    C     0.17296   0.90734   0.45475   0.00000  Uiso   1.00
C97    C     0.16535   0.76695   0.50339   0.00000  Uiso   1.00
C98    C     0.15933   0.11629   0.29160   0.00000  Uiso   1.00
C99    C     0.20572   0.13990   0.24965   0.00000  Uiso   1.00
C100   C     0.19485   0.12043   0.18723   0.00000  Uiso   1.00
C101   C     0.19989   0.10342   0.08104   0.00000  Uiso   1.00
C102   C     0.10426   0.18840   0.37796   0.00000  Uiso   1.00
C103   C     0.10434   0.27266   0.40861   0.00000  Uiso   1.00
C104   C     0.04710   0.31392   0.41889   0.00000  Uiso   1.00
C105   C     0.96663   0.40887   0.44678   0.00000  Uiso   1.00
C106   C     0.05973   0.05480   0.32564   0.00000  Uiso   1.00
C107   C     0.09589   0.99529   0.37162   0.00000  Uiso   1.00
C108   C     0.07809   0.90900   0.39309   0.00000  Uiso   1.00
C109   C     0.11758   0.86569   0.43502   0.00000  Uiso   1.00
C110   C     0.10405   0.07472   0.27190   0.00000  Uiso   1.00
C111   C     0.09312   0.05523   0.20952   0.00000  Uiso   1.00
C112   C     0.13947   0.07879   0.16749   0.00000  Uiso   1.00
C113   C     0.04898   0.14683   0.35826   0.00000  Uiso   1.00
C114   C     0.99173   0.18798   0.36848   0.00000  Uiso   1.00
C115   C     0.99172   0.27228   0.39915   0.00000  Uiso   1.00
H116   H     0.20454   0.16369   0.37725   0.00000  Uiso   1.00
H117   H     0.23347   0.02586   0.44846   0.00000  Uiso   1.00
H118   H     0.24849   0.17207   0.26491   0.00000  Uiso   1.00
H119   H     0.14712   0.30480   0.42385   0.00000  Uiso   1.00
H120   H     0.24118   0.85470   0.51869   0.00000  Uiso   1.00
H121   H     0.27284   0.16302   0.13169   0.00000  Uiso   1.00
H122   H     0.05909   0.44291   0.46683   0.00000  Uiso   1.00
H123   H     0.01669   0.02244   0.31030   0.00000  Uiso   1.00
H124   H     0.03531   0.87685   0.37784   0.00000  Uiso   1.00
H125   H     0.05033   0.02306   0.19429   0.00000  Uiso   1.00
H126   H     0.94897   0.15579   0.35323   0.00000  Uiso   1.00
H127   H     0.08035   0.73376   0.46137   0.00000  Uiso   1.00
H128   H     0.11201   0.04208   0.07436   0.00000  Uiso   1.00
H129   H     0.89826   0.32197   0.40951   0.00000  Uiso   1.00
O130   O     0.17642   0.70099   0.53565   0.00000  Uiso   1.00
O131   O     0.21795   0.10551   0.02791   0.00000  Uiso   1.00
O132   O     0.93751   0.47272   0.46762   0.00000  Uiso   1.00
N133   N     0.20077   0.84622   0.49595   0.00000  Uiso   1.00
N134   N     0.23037   0.13447   0.13412   0.00000  Uiso   1.00
N135   N     0.03053   0.39616   0.44744   0.00000  Uiso   1.00
N136   N     0.11423   0.78115   0.46510   0.00000  Uiso   1.00
N137   N     0.14383   0.06939   0.10327   0.00000  Uiso   1.00
N138   N     0.94399   0.33108   0.41659   0.00000  Uiso   1.00
C139   C     0.33850   0.36867   0.36192   0.00000  Uiso   1.00
C140   C     0.34883   0.46314   0.39132   0.00000  Uiso   1.00
C141   C     0.30931   0.50633   0.43322   0.00000  Uiso   1.00
C142   C     0.32704   0.59266   0.45475   0.00000  Uiso   1.00
C143   C     0.33465   0.73305   0.50339   0.00000  Uiso   1.00
C144   C     0.34067   0.38371   0.29160   0.00000  Uiso   1.00
C145   C     0.29428   0.36010   0.24965   0.00000  Uiso   1.00
C146   C     0.30515   0.37957   0.18723   0.00000  Uiso   1.00
C147   C     0.30011   0.39658   0.08104   0.00000  Uiso   1.00
C148   C     0.39574   0.31160   0.37796   0.00000  Uiso   1.00
C149   C     0.39566   0.22734   0.40861   0.00000  Uiso   1.00
C150   C     0.45290   0.18608   0.41889   0.00000  Uiso   1.00
C151   C     0.53337   0.09113   0.44678   0.00000  Uiso   1.00
C152   C     0.44027   0.44520   0.32564   0.00000  Uiso   1.00
C153   C     0.40411   0.50471   0.37162   0.00000  Uiso   1.00
C154   C     0.42191   0.59100   0.39309   0.00000  Uiso   1.00
C155   C     0.38242   0.63431   0.43502   0.00000  Uiso   1.00
C156   C     0.39595   0.42528   0.27190   0.00000  Uiso   1.00
C157   C     0.40688   0.44477   0.20952   0.00000  Uiso   1.00
C158   C     0.36053   0.42121   0.16749   0.00000  Uiso   1.00
C159   C     0.45102   0.35317   0.35826   0.00000  Uiso   1.00
C160   C     0.50827   0.31202   0.36848   0.00000  Uiso   1.00
C161   C     0.50828   0.22772   0.39915   0.00000  Uiso   1.00
H162   H     0.29546   0.33631   0.37725   0.00000  Uiso   1.00
H163   H     0.26653   0.47414   0.44846   0.00000  Uiso   1.00
H164   H     0.25151   0.32793   0.26491   0.00000  Uiso   1.00
H165   H     0.35288   0.19520   0.42385   0.00000  Uiso   1.00
H166   H     0.25882   0.64530   0.51869   0.00000  Uiso   1.00
H167   H     0.22716   0.33698   0.13169   0.00000  Uiso   1.00
H168   H     0.44091   0.05709   0.46683   0.00000  Uiso   1.00
H169   H     0.48331   0.47756   0.31030   0.00000  Uiso   1.00
H170   H     0.46469   0.62315   0.37784   0.00000  Uiso   1.00
H171   H     0.44967   0.47694   0.19429   0.00000  Uiso   1.00
H172   H     0.55103   0.34421   0.35323   0.00000  Uiso   1.00
H173   H     0.41965   0.76624   0.46137   0.00000  Uiso   1.00
H174   H     0.38799   0.45792   0.07436   0.00000  Uiso   1.00
H175   H     0.60174   0.17803   0.40951   0.00000  Uiso   1.00
O176   O     0.32358   0.79901   0.53565   0.00000  Uiso   1.00
O177   O     0.28205   0.39449   0.02791   0.00000  Uiso   1.00
O178   O     0.56249   0.02728   0.46762   0.00000  Uiso   1.00
N179   N     0.29923   0.65378   0.49595   0.00000  Uiso   1.00
N180   N     0.26963   0.36553   0.13412   0.00000  Uiso   1.00
N181   N     0.46947   0.10384   0.44744   0.00000  Uiso   1.00
N182   N     0.38577   0.71885   0.46510   0.00000  Uiso   1.00
N183   N     0.35617   0.43061   0.10327   0.00000  Uiso   1.00
N184   N     0.55601   0.16892   0.41659   0.00000  Uiso   1.00
C185   C     0.16150   0.36867   0.86192   0.00000  Uiso   1.00
C186   C     0.15117   0.46314   0.89132   0.00000  Uiso   1.00
C187   C     0.19069   0.50633   0.93322   0.00000  Uiso   1.00
C188   C     0.17296   0.59266   0.95475   0.00000  Uiso   1.00
C189   C     0.16535   0.73305   0.00339   0.00000  Uiso   1.00
C190   C     0.15933   0.38371   0.79160   0.00000  Uiso   1.00
C191   C     0.20572   0.36010   0.74965   0.00000  Uiso   1.00
C192   C     0.19485   0.37957   0.68723   0.00000  Uiso   1.00
C193   C     0.19989   0.39658   0.58104   0.00000  Uiso   1.00
C194   C     0.10426   0.31160   0.87796   0.00000  Uiso   1.00
C195   C     0.10434   0.22734   0.90861   0.00000  Uiso   1.00
C196   C     0.04710   0.18608   0.91889   0.00000  Uiso   1.00
C197   C     0.96663   0.09113   0.94678   0.00000  Uiso   1.00
C198   C     0.05973   0.44520   0.82564   0.00000  Uiso   1.00
C199   C     0.09589   0.50471   0.87162   0.00000  Uiso   1.00
C200   C     0.07809   0.59100   0.89309   0.00000  Uiso   1.00
C201   C     0.11758   0.63431   0.93502   0.00000  Uiso   1.00
C202   C     0.10405   0.42528   0.77190   0.00000  Uiso   1.00
C203   C     0.09312   0.44477   0.70952   0.00000  Uiso   1.00
C204   C     0.13947   0.42121   0.66749   0.00000  Uiso   1.00
C205   C     0.04898   0.35317   0.85826   0.00000  Uiso   1.00
C206   C     0.99173   0.31202   0.86848   0.00000  Uiso   1.00
C207   C     0.99172   0.22772   0.89915   0.00000  Uiso   1.00
H208   H     0.20454   0.33631   0.87725   0.00000  Uiso   1.00
H209   H     0.23347   0.47414   0.94846   0.00000  Uiso   1.00
H210   H     0.24849   0.32793   0.76491   0.00000  Uiso   1.00
H211   H     0.14712   0.19520   0.92385   0.00000  Uiso   1.00
H212   H     0.24118   0.64530   0.01869   0.00000  Uiso   1.00
H213   H     0.27284   0.33698   0.63169   0.00000  Uiso   1.00
H214   H     0.05909   0.05709   0.96683   0.00000  Uiso   1.00
H215   H     0.01669   0.47756   0.81030   0.00000  Uiso   1.00
H216   H     0.03531   0.62315   0.87784   0.00000  Uiso   1.00
H217   H     0.05033   0.47694   0.69429   0.00000  Uiso   1.00
H218   H     0.94897   0.34421   0.85323   0.00000  Uiso   1.00
H219   H     0.08035   0.76624   0.96137   0.00000  Uiso   1.00
H220   H     0.11201   0.45792   0.57436   0.00000  Uiso   1.00
H221   H     0.89826   0.17803   0.90951   0.00000  Uiso   1.00
O222   O     0.17642   0.79901   0.03565   0.00000  Uiso   1.00
O223   O     0.21795   0.39449   0.52791   0.00000  Uiso   1.00
O224   O     0.93751   0.02728   0.96762   0.00000  Uiso   1.00
N225   N     0.20077   0.65378   0.99595   0.00000  Uiso   1.00
N226   N     0.23037   0.36553   0.63412   0.00000  Uiso   1.00
N227   N     0.03053   0.10384   0.94744   0.00000  Uiso   1.00
N228   N     0.11423   0.71885   0.96510   0.00000  Uiso   1.00
N229   N     0.14383   0.43061   0.60327   0.00000  Uiso   1.00
N230   N     0.94399   0.16892   0.91659   0.00000  Uiso   1.00
C231   C     0.33850   0.13133   0.86192   0.00000  Uiso   1.00
C232   C     0.34883   0.03686   0.89132   0.00000  Uiso   1.00
C233   C     0.30931   0.99367   0.93322   0.00000  Uiso   1.00
C234   C     0.32704   0.90734   0.95475   0.00000  Uiso   1.00
C235   C     0.33465   0.76695   0.00339   0.00000  Uiso   1.00
C236   C     0.34067   0.11629   0.79160   0.00000  Uiso   1.00
C237   C     0.29428   0.13990   0.74965   0.00000  Uiso   1.00
C238   C     0.30515   0.12043   0.68723   0.00000  Uiso   1.00
C239   C     0.30011   0.10342   0.58104   0.00000  Uiso   1.00
C240   C     0.39574   0.18840   0.87796   0.00000  Uiso   1.00
C241   C     0.39566   0.27266   0.90861   0.00000  Uiso   1.00
C242   C     0.45290   0.31392   0.91889   0.00000  Uiso   1.00
C243   C     0.53337   0.40887   0.94678   0.00000  Uiso   1.00
C244   C     0.44027   0.05480   0.82564   0.00000  Uiso   1.00
C245   C     0.40411   0.99529   0.87162   0.00000  Uiso   1.00
C246   C     0.42191   0.90900   0.89309   0.00000  Uiso   1.00
C247   C     0.38242   0.86569   0.93502   0.00000  Uiso   1.00
C248   C     0.39595   0.07472   0.77190   0.00000  Uiso   1.00
C249   C     0.40688   0.05523   0.70952   0.00000  Uiso   1.00
C250   C     0.36053   0.07879   0.66749   0.00000  Uiso   1.00
C251   C     0.45102   0.14683   0.85826   0.00000  Uiso   1.00
C252   C     0.50827   0.18798   0.86848   0.00000  Uiso   1.00
C253   C     0.50828   0.27228   0.89915   0.00000  Uiso   1.00
H254   H     0.29546   0.16369   0.87725   0.00000  Uiso   1.00
H255   H     0.26653   0.02586   0.94846   0.00000  Uiso   1.00
H256   H     0.25151   0.17207   0.76491   0.00000  Uiso   1.00
H257   H     0.35288   0.30480   0.92385   0.00000  Uiso   1.00
H258   H     0.25882   0.85470   0.01869   0.00000  Uiso   1.00
H259   H     0.22716   0.16302   0.63169   0.00000  Uiso   1.00
H260   H     0.44091   0.44291   0.96683   0.00000  Uiso   1.00
H261   H     0.48331   0.02244   0.81030   0.00000  Uiso   1.00
H262   H     0.46469   0.87685   0.87784   0.00000  Uiso   1.00
H263   H     0.44967   0.02306   0.69429   0.00000  Uiso   1.00
H264   H     0.55103   0.15579   0.85323   0.00000  Uiso   1.00
H265   H     0.41965   0.73376   0.96137   0.00000  Uiso   1.00
H266   H     0.38799   0.04208   0.57436   0.00000  Uiso   1.00
H267   H     0.60174   0.32197   0.90951   0.00000  Uiso   1.00
O268   O     0.32358   0.70099   0.03565   0.00000  Uiso   1.00
O269   O     0.28205   0.10551   0.52791   0.00000  Uiso   1.00
O270   O     0.56249   0.47272   0.96762   0.00000  Uiso   1.00
N271   N     0.29923   0.84622   0.99595   0.00000  Uiso   1.00
N272   N     0.26963   0.13447   0.63412   0.00000  Uiso   1.00
N273   N     0.46947   0.39616   0.94744   0.00000  Uiso   1.00
N274   N     0.38577   0.78115   0.96510   0.00000  Uiso   1.00
N275   N     0.35617   0.06939   0.60327   0.00000  Uiso   1.00
N276   N     0.55601   0.33108   0.91659   0.00000  Uiso   1.00
C277   C     0.83850   0.86867   0.63808   0.00000  Uiso   1.00
C278   C     0.84883   0.96314   0.60868   0.00000  Uiso   1.00
C279   C     0.80931   0.00633   0.56678   0.00000  Uiso   1.00
C280   C     0.82704   0.09266   0.54525   0.00000  Uiso   1.00
C281   C     0.83465   0.23305   0.49661   0.00000  Uiso   1.00
C282   C     0.84067   0.88371   0.70840   0.00000  Uiso   1.00
C283   C     0.79428   0.86010   0.75035   0.00000  Uiso   1.00
C284   C     0.80515   0.87957   0.81277   0.00000  Uiso   1.00
C285   C     0.80011   0.89658   0.91896   0.00000  Uiso   1.00
C286   C     0.89574   0.81160   0.62204   0.00000  Uiso   1.00
C287   C     0.89566   0.72734   0.59139   0.00000  Uiso   1.00
C288   C     0.95290   0.68608   0.58111   0.00000  Uiso   1.00
C289   C     0.03337   0.59113   0.55322   0.00000  Uiso   1.00
C290   C     0.94027   0.94520   0.67436   0.00000  Uiso   1.00
C291   C     0.90411   0.00471   0.62838   0.00000  Uiso   1.00
C292   C     0.92191   0.09100   0.60691   0.00000  Uiso   1.00
C293   C     0.88242   0.13431   0.56498   0.00000  Uiso   1.00
C294   C     0.89595   0.92528   0.72810   0.00000  Uiso   1.00
C295   C     0.90688   0.94477   0.79048   0.00000  Uiso   1.00
C296   C     0.86053   0.92121   0.83251   0.00000  Uiso   1.00
C297   C     0.95102   0.85317   0.64174   0.00000  Uiso   1.00
C298   C     0.00827   0.81202   0.63152   0.00000  Uiso   1.00
C299   C     0.00828   0.72772   0.60085   0.00000  Uiso   1.00
H300   H     0.79546   0.83631   0.62275   0.00000  Uiso   1.00
H301   H     0.76653   0.97414   0.55154   0.00000  Uiso   1.00
H302   H     0.75151   0.82793   0.73509   0.00000  Uiso   1.00
H303   H     0.85288   0.69520   0.57615   0.00000  Uiso   1.00
H304   H     0.75882   0.14530   0.48131   0.00000  Uiso   1.00
H305   H     0.72716   0.83698   0.86831   0.00000  Uiso   1.00
H306   H     0.94091   0.55709   0.53317   0.00000  Uiso   1.00
H307   H     0.98331   0.97756   0.68970   0.00000  Uiso   1.00
H308   H     0.96469   0.12315   0.62216   0.00000  Uiso   1.00
H309   H     0.94967   0.97694   0.80571   0.00000  Uiso   1.00
H310   H     0.05103   0.84421   0.64677   0.00000  Uiso   1.00
H311   H     0.91965   0.26624   0.53863   0.00000  Uiso   1.00
H312   H     0.88799   0.95792   0.92564   0.00000  Uiso   1.00
H313   H     0.10174   0.67803   0.59049   0.00000  Uiso   1.00
O314   O     0.82358   0.29901   0.46435   0.00000  Uiso   1.00
O315   O     0.78205   0.89449   0.97209   0.00000  Uiso   1.00
O316   O     0.06249   0.52728   0.53238   0.00000  Uiso   1.00
N317   N     0.79923   0.15378   0.50405   0.00000  Uiso   1.00
N318   N     0.76963   0.86553   0.86588   0.00000  Uiso   1.00
N319   N     0.96947   0.60384   0.55256   0.00000  Uiso   1.00
N320   N     0.88577   0.21885   0.53490   0.00000  Uiso   1.00
N321   N     0.85617   0.93061   0.89673   0.00000  Uiso   1.00
N322   N     0.05601   0.66892   0.58341   0.00000  Uiso   1.00
C323   C     0.66150   0.63133   0.63808   0.00000  Uiso   1.00
C324   C     0.65117   0.53686   0.60868   0.00000  Uiso   1.00
C325   C     0.69069   0.49367   0.56678   0.00000  Uiso   1.00
C326   C     0.67296   0.40734   0.54525   0.00000  Uiso   1.00
C327   C     0.66535   0.26695   0.49661   0.00000  Uiso   1.00
C328   C     0.65933   0.61629   0.70840   0.00000  Uiso   1.00
C329   C     0.70572   0.63990   0.75035   0.00000  Uiso   1.00
C330   C     0.69485   0.62043   0.81277   0.00000  Uiso   1.00
C331   C     0.69989   0.60342   0.91896   0.00000  Uiso   1.00
C332   C     0.60426   0.68840   0.62204   0.00000  Uiso   1.00
C333   C     0.60434   0.77266   0.59139   0.00000  Uiso   1.00
C334   C     0.54710   0.81392   0.58111   0.00000  Uiso   1.00
C335   C     0.46663   0.90887   0.55322   0.00000  Uiso   1.00
C336   C     0.55973   0.55480   0.67436   0.00000  Uiso   1.00
C337   C     0.59589   0.49529   0.62838   0.00000  Uiso   1.00
C338   C     0.57809   0.40900   0.60691   0.00000  Uiso   1.00
C339   C     0.61758   0.36569   0.56498   0.00000  Uiso   1.00
C340   C     0.60405   0.57472   0.72810   0.00000  Uiso   1.00
C341   C     0.59312   0.55523   0.79048   0.00000  Uiso   1.00
C342   C     0.63947   0.57879   0.83251   0.00000  Uiso   1.00
C343   C     0.54898   0.64683   0.64174   0.00000  Uiso   1.00
C344   C     0.49173   0.68798   0.63152   0.00000  Uiso   1.00
C345   C     0.49172   0.77228   0.60085   0.00000  Uiso   1.00
H346   H     0.70454   0.66369   0.62275   0.00000  Uiso   1.00
H347   H     0.73347   0.52586   0.55154   0.00000  Uiso   1.00
H348   H     0.74849   0.67207   0.73509   0.00000  Uiso   1.00
H349   H     0.64712   0.80480   0.57615   0.00000  Uiso   1.00
H350   H     0.74118   0.35470   0.48131   0.00000  Uiso   1.00
H351   H     0.77284   0.66302   0.86831   0.00000  Uiso   1.00
H352   H     0.55909   0.94291   0.53317   0.00000  Uiso   1.00
H353   H     0.51669   0.52244   0.68970   0.00000  Uiso   1.00
H354   H     0.53531   0.37685   0.62216   0.00000  Uiso   1.00
H355   H     0.55033   0.52306   0.80571   0.00000  Uiso   1.00
H356   H     0.44897   0.65579   0.64677   0.00000  Uiso   1.00
H357   H     0.58035   0.23376   0.53863   0.00000  Uiso   1.00
H358   H     0.61201   0.54208   0.92564   0.00000  Uiso   1.00
H359   H     0.39826   0.82197   0.59049   0.00000  Uiso   1.00
O360   O     0.67642   0.20099   0.46435   0.00000  Uiso   1.00
O361   O     0.71795   0.60551   0.97209   0.00000  Uiso   1.00
O362   O     0.43751   0.97272   0.53238   0.00000  Uiso   1.00
N363   N     0.70077   0.34622   0.50405   0.00000  Uiso   1.00
N364   N     0.73037   0.63447   0.86588   0.00000  Uiso   1.00
N365   N     0.53053   0.89616   0.55256   0.00000  Uiso   1.00
N366   N     0.61423   0.28115   0.53490   0.00000  Uiso   1.00
N367   N     0.64383   0.56939   0.89673   0.00000  Uiso   1.00
N368   N     0.44399   0.83108   0.58341   0.00000  Uiso   1.00
