data_job_01186
_audit_creation_date              2018-12-19
_audit_creation_method            'Materials Studio'
_symmetry_space_group_name_H-M    'P1'
_symmetry_Int_Tables_number       1
_symmetry_cell_setting            triclinic
loop_
_symmetry_equiv_pos_as_xyz
  x,y,z
_cell_length_a                    12.3742
_cell_length_b                    16.8925
_cell_length_c                    16.0121
_cell_angle_alpha                 90.0000
_cell_angle_beta                  122.4224
_cell_angle_gamma                 90.0000
loop_
_atom_site_label
_atom_site_type_symbol
_atom_site_fract_x
_atom_site_fract_y
_atom_site_fract_z
_atom_site_U_iso_or_equiv
_atom_site_adp_type
_atom_site_occupancy
C1     C     0.45607   0.24121   0.57483   0.00000  Uiso   1.00
C2     C     0.59508   0.26183   0.65174   0.00000  Uiso   1.00
C3     C     0.68179   0.29508   0.63215   0.00000  Uiso   1.00
C4     C     0.80449   0.30944   0.71269   0.00000  Uiso   1.00
C5     C     0.01510   0.34420   0.81742   0.00000  Uiso   1.00
C6     C     0.44121   0.15345   0.58876   0.00000  Uiso   1.00
C7     C     0.39853   0.09557   0.51622   0.00000  Uiso   1.00
C8     C     0.39169   0.01870   0.54375   0.00000  Uiso   1.00
C9     C     0.36332   0.88520   0.55069   0.00000  Uiso   1.00
C10    C     0.37557   0.28531   0.60587   0.00000  Uiso   1.00
C11    C     0.27767   0.33829   0.54770   0.00000  Uiso   1.00
C12    C     0.21553   0.37243   0.58963   0.00000  Uiso   1.00
C13    C     0.08524   0.44367   0.62312   0.00000  Uiso   1.00
C14    C     0.51977   0.20760   0.75269   0.00000  Uiso   1.00
C15    C     0.62968   0.24357   0.74835   0.00000  Uiso   1.00
C16    C     0.75227   0.25790   0.82894   0.00000  Uiso   1.00
C17    C     0.83915   0.29116   0.80948   0.00000  Uiso   1.00
C18    C     0.47581   0.13519   0.68537   0.00000  Uiso   1.00
C19    C     0.46901   0.05839   0.71301   0.00000  Uiso   1.00
C20    C     0.42635   0.00041   0.64054   0.00000  Uiso   1.00
C21    C     0.41017   0.26706   0.70248   0.00000  Uiso   1.00
C22    C     0.34816   0.30111   0.74450   0.00000  Uiso   1.00
C23    C     0.25019   0.35414   0.68641   0.00000  Uiso   1.00
H24    H     0.42913   0.25541   0.49961   0.00000  Uiso   1.00
H25    H     0.65498   0.30919   0.55737   0.00000  Uiso   1.00
H26    H     0.37175   0.10971   0.44146   0.00000  Uiso   1.00
H27    H     0.25092   0.35240   0.47295   0.00000  Uiso   1.00
H28    H     0.92066   0.36073   0.66402   0.00000  Uiso   1.00
H29    H     0.32341   0.94013   0.41961   0.00000  Uiso   1.00
H30    H     0.06860   0.45188   0.48599   0.00000  Uiso   1.00
H31    H     0.54671   0.19339   0.82791   0.00000  Uiso   1.00
H32    H     0.77902   0.24376   0.90370   0.00000  Uiso   1.00
H33    H     0.49579   0.04429   0.78778   0.00000  Uiso   1.00
H34    H     0.37496   0.28697   0.81926   0.00000  Uiso   1.00
H35    H     0.02134   0.30763   0.94511   0.00000  Uiso   1.00
H36    H     0.42408   0.88703   0.70069   0.00000  Uiso   1.00
H37    H     0.16928   0.39878   0.76707   0.00000  Uiso   1.00
O38    O     0.12171   0.36841   0.84849   0.00000  Uiso   1.00
O39    O     0.33812   0.81661   0.52782   0.00000  Uiso   1.00
O40    O     0.00383   0.48801   0.61491   0.00000  Uiso   1.00
N41    N     0.91246   0.34133   0.71978   0.00000  Uiso   1.00
N42    N     0.35409   0.94810   0.49127   0.00000  Uiso   1.00
N43    N     0.11584   0.42652   0.55332   0.00000  Uiso   1.00
N44    N     0.96664   0.31276   0.87103   0.00000  Uiso   1.00
N45    N     0.40827   0.91952   0.64252   0.00000  Uiso   1.00
N46    N     0.17002   0.39795   0.70457   0.00000  Uiso   1.00
C47    C     0.54393   0.74121   0.92517   0.00000  Uiso   1.00
C48    C     0.40492   0.76183   0.84826   0.00000  Uiso   1.00
C49    C     0.31821   0.79508   0.86785   0.00000  Uiso   1.00
C50    C     0.19551   0.80944   0.78731   0.00000  Uiso   1.00
C51    C     0.98490   0.84420   0.68258   0.00000  Uiso   1.00
C52    C     0.55879   0.65345   0.91124   0.00000  Uiso   1.00
C53    C     0.60147   0.59557   0.98378   0.00000  Uiso   1.00
C54    C     0.60831   0.51870   0.95625   0.00000  Uiso   1.00
C55    C     0.63668   0.38520   0.94931   0.00000  Uiso   1.00
C56    C     0.62443   0.78531   0.89413   0.00000  Uiso   1.00
C57    C     0.72233   0.83829   0.95230   0.00000  Uiso   1.00
C58    C     0.78447   0.87243   0.91037   0.00000  Uiso   1.00
C59    C     0.91476   0.94367   0.87688   0.00000  Uiso   1.00
C60    C     0.48023   0.70760   0.74731   0.00000  Uiso   1.00
C61    C     0.37032   0.74357   0.75165   0.00000  Uiso   1.00
C62    C     0.24773   0.75790   0.67106   0.00000  Uiso   1.00
C63    C     0.16085   0.79116   0.69052   0.00000  Uiso   1.00
C64    C     0.52419   0.63519   0.81463   0.00000  Uiso   1.00
C65    C     0.53099   0.55839   0.78699   0.00000  Uiso   1.00
C66    C     0.57365   0.50041   0.85946   0.00000  Uiso   1.00
C67    C     0.58983   0.76706   0.79752   0.00000  Uiso   1.00
C68    C     0.65184   0.80111   0.75550   0.00000  Uiso   1.00
C69    C     0.74981   0.85414   0.81359   0.00000  Uiso   1.00
H70    H     0.57087   0.75541   0.00039   0.00000  Uiso   1.00
H71    H     0.34502   0.80919   0.94263   0.00000  Uiso   1.00
H72    H     0.62825   0.60971   0.05854   0.00000  Uiso   1.00
H73    H     0.74908   0.85240   0.02705   0.00000  Uiso   1.00
H74    H     0.07934   0.86073   0.83598   0.00000  Uiso   1.00
H75    H     0.67659   0.44013   0.08039   0.00000  Uiso   1.00
H76    H     0.93140   0.95188   0.01401   0.00000  Uiso   1.00
H77    H     0.45329   0.69339   0.67209   0.00000  Uiso   1.00
H78    H     0.22098   0.74376   0.59630   0.00000  Uiso   1.00
H79    H     0.50421   0.54429   0.71222   0.00000  Uiso   1.00
H80    H     0.62504   0.78697   0.68074   0.00000  Uiso   1.00
H81    H     0.97866   0.80763   0.55489   0.00000  Uiso   1.00
H82    H     0.57592   0.38703   0.79931   0.00000  Uiso   1.00
H83    H     0.83072   0.89878   0.73293   0.00000  Uiso   1.00
O84    O     0.87829   0.86841   0.65151   0.00000  Uiso   1.00
O85    O     0.66188   0.31661   0.97218   0.00000  Uiso   1.00
O86    O     0.99617   0.98801   0.88509   0.00000  Uiso   1.00
N87    N     0.08754   0.84133   0.78022   0.00000  Uiso   1.00
N88    N     0.64591   0.44810   0.00873   0.00000  Uiso   1.00
N89    N     0.88416   0.92652   0.94668   0.00000  Uiso   1.00
N90    N     0.03336   0.81276   0.62897   0.00000  Uiso   1.00
N91    N     0.59173   0.41952   0.85748   0.00000  Uiso   1.00
N92    N     0.82998   0.89795   0.79543   0.00000  Uiso   1.00
C93    C     0.54393   0.75879   0.42517   0.00000  Uiso   1.00
C94    C     0.40492   0.73817   0.34826   0.00000  Uiso   1.00
C95    C     0.31821   0.70492   0.36785   0.00000  Uiso   1.00
C96    C     0.19551   0.69056   0.28731   0.00000  Uiso   1.00
C97    C     0.98490   0.65580   0.18258   0.00000  Uiso   1.00
C98    C     0.55879   0.84655   0.41124   0.00000  Uiso   1.00
C99    C     0.60147   0.90443   0.48378   0.00000  Uiso   1.00
C100   C     0.60831   0.98130   0.45625   0.00000  Uiso   1.00
C101   C     0.63668   0.11480   0.44931   0.00000  Uiso   1.00
C102   C     0.62443   0.71469   0.39413   0.00000  Uiso   1.00
C103   C     0.72233   0.66171   0.45230   0.00000  Uiso   1.00
C104   C     0.78447   0.62757   0.41037   0.00000  Uiso   1.00
C105   C     0.91476   0.55633   0.37688   0.00000  Uiso   1.00
C106   C     0.48023   0.79240   0.24731   0.00000  Uiso   1.00
C107   C     0.37032   0.75643   0.25165   0.00000  Uiso   1.00
C108   C     0.24773   0.74210   0.17106   0.00000  Uiso   1.00
C109   C     0.16085   0.70884   0.19052   0.00000  Uiso   1.00
C110   C     0.52419   0.86481   0.31463   0.00000  Uiso   1.00
C111   C     0.53099   0.94161   0.28699   0.00000  Uiso   1.00
C112   C     0.57365   0.99959   0.35946   0.00000  Uiso   1.00
C113   C     0.58983   0.73294   0.29752   0.00000  Uiso   1.00
C114   C     0.65184   0.69889   0.25550   0.00000  Uiso   1.00
C115   C     0.74981   0.64586   0.31359   0.00000  Uiso   1.00
H116   H     0.57087   0.74459   0.50039   0.00000  Uiso   1.00
H117   H     0.34502   0.69081   0.44263   0.00000  Uiso   1.00
H118   H     0.62825   0.89029   0.55854   0.00000  Uiso   1.00
H119   H     0.74908   0.64760   0.52705   0.00000  Uiso   1.00
H120   H     0.07934   0.63927   0.33598   0.00000  Uiso   1.00
H121   H     0.67659   0.05987   0.58039   0.00000  Uiso   1.00
H122   H     0.93140   0.54812   0.51401   0.00000  Uiso   1.00
H123   H     0.45329   0.80661   0.17209   0.00000  Uiso   1.00
H124   H     0.22098   0.75624   0.09630   0.00000  Uiso   1.00
H125   H     0.50421   0.95571   0.21222   0.00000  Uiso   1.00
H126   H     0.62504   0.71303   0.18074   0.00000  Uiso   1.00
H127   H     0.97866   0.69237   0.05489   0.00000  Uiso   1.00
H128   H     0.57592   0.11297   0.29931   0.00000  Uiso   1.00
H129   H     0.83072   0.60122   0.23293   0.00000  Uiso   1.00
O130   O     0.87829   0.63159   0.15151   0.00000  Uiso   1.00
O131   O     0.66188   0.18339   0.47218   0.00000  Uiso   1.00
O132   O     0.99617   0.51199   0.38509   0.00000  Uiso   1.00
N133   N     0.08754   0.65867   0.28022   0.00000  Uiso   1.00
N134   N     0.64591   0.05190   0.50873   0.00000  Uiso   1.00
N135   N     0.88416   0.57348   0.44668   0.00000  Uiso   1.00
N136   N     0.03336   0.68724   0.12897   0.00000  Uiso   1.00
N137   N     0.59173   0.08048   0.35748   0.00000  Uiso   1.00
N138   N     0.82998   0.60205   0.29543   0.00000  Uiso   1.00
C139   C     0.45607   0.25879   0.07483   0.00000  Uiso   1.00
C140   C     0.59508   0.23817   0.15174   0.00000  Uiso   1.00
C141   C     0.68179   0.20492   0.13215   0.00000  Uiso   1.00
C142   C     0.80449   0.19056   0.21269   0.00000  Uiso   1.00
C143   C     0.01510   0.15580   0.31742   0.00000  Uiso   1.00
C144   C     0.44121   0.34655   0.08876   0.00000  Uiso   1.00
C145   C     0.39853   0.40443   0.01622   0.00000  Uiso   1.00
C146   C     0.39169   0.48130   0.04375   0.00000  Uiso   1.00
C147   C     0.36332   0.61480   0.05069   0.00000  Uiso   1.00
C148   C     0.37557   0.21469   0.10587   0.00000  Uiso   1.00
C149   C     0.27767   0.16171   0.04770   0.00000  Uiso   1.00
C150   C     0.21553   0.12757   0.08963   0.00000  Uiso   1.00
C151   C     0.08524   0.05633   0.12312   0.00000  Uiso   1.00
C152   C     0.51977   0.29240   0.25269   0.00000  Uiso   1.00
C153   C     0.62968   0.25643   0.24835   0.00000  Uiso   1.00
C154   C     0.75227   0.24210   0.32894   0.00000  Uiso   1.00
C155   C     0.83915   0.20884   0.30948   0.00000  Uiso   1.00
C156   C     0.47581   0.36481   0.18537   0.00000  Uiso   1.00
C157   C     0.46901   0.44161   0.21301   0.00000  Uiso   1.00
C158   C     0.42635   0.49959   0.14054   0.00000  Uiso   1.00
C159   C     0.41017   0.23294   0.20248   0.00000  Uiso   1.00
C160   C     0.34816   0.19889   0.24450   0.00000  Uiso   1.00
C161   C     0.25019   0.14586   0.18641   0.00000  Uiso   1.00
H162   H     0.42913   0.24459   0.99961   0.00000  Uiso   1.00
H163   H     0.65498   0.19081   0.05737   0.00000  Uiso   1.00
H164   H     0.37175   0.39029   0.94146   0.00000  Uiso   1.00
H165   H     0.25092   0.14760   0.97295   0.00000  Uiso   1.00
H166   H     0.92066   0.13927   0.16402   0.00000  Uiso   1.00
H167   H     0.32341   0.55987   0.91961   0.00000  Uiso   1.00
H168   H     0.06860   0.04812   0.98599   0.00000  Uiso   1.00
H169   H     0.54671   0.30661   0.32791   0.00000  Uiso   1.00
H170   H     0.77902   0.25624   0.40370   0.00000  Uiso   1.00
H171   H     0.49579   0.45571   0.28778   0.00000  Uiso   1.00
H172   H     0.37496   0.21303   0.31926   0.00000  Uiso   1.00
H173   H     0.02134   0.19237   0.44511   0.00000  Uiso   1.00
H174   H     0.42408   0.61297   0.20069   0.00000  Uiso   1.00
H175   H     0.16928   0.10122   0.26707   0.00000  Uiso   1.00
O176   O     0.12171   0.13159   0.34849   0.00000  Uiso   1.00
O177   O     0.33812   0.68339   0.02782   0.00000  Uiso   1.00
O178   O     0.00383   0.01199   0.11491   0.00000  Uiso   1.00
N179   N     0.91246   0.15867   0.21978   0.00000  Uiso   1.00
N180   N     0.35409   0.55190   0.99127   0.00000  Uiso   1.00
N181   N     0.11584   0.07348   0.05332   0.00000  Uiso   1.00
N182   N     0.96664   0.18724   0.37103   0.00000  Uiso   1.00
N183   N     0.40827   0.58048   0.14252   0.00000  Uiso   1.00
N184   N     0.17002   0.10205   0.20457   0.00000  Uiso   1.00
