data_job_06481
_audit_creation_date              2018-12-19
_audit_creation_method            'Materials Studio'
_symmetry_space_group_name_H-M    'P1'
_symmetry_Int_Tables_number       1
_symmetry_cell_setting            triclinic
loop_
_symmetry_equiv_pos_as_xyz
  x,y,z
_cell_length_a                    18.4500
_cell_length_b                    21.1756
_cell_length_c                    22.6134
_cell_angle_alpha                 77.2678
_cell_angle_beta                  99.5074
_cell_angle_gamma                 66.2914
loop_
_atom_site_label
_atom_site_type_symbol
_atom_site_fract_x
_atom_site_fract_y
_atom_site_fract_z
_atom_site_U_iso_or_equiv
_atom_site_adp_type
_atom_site_occupancy
C1     C     0.93158   0.08843   0.78315   0.00000  Uiso   1.00
C2     C     0.97582   0.12465   0.81498   0.00000  Uiso   1.00
C3     C     0.94045   0.17927   0.84091   0.00000  Uiso   1.00
C4     C     0.99130   0.20524   0.86785   0.00000  Uiso   1.00
C5     C     0.04733   0.26572   0.91710   0.00000  Uiso   1.00
C6     C     0.94317   0.09857   0.71707   0.00000  Uiso   1.00
C7     C     0.88034   0.13125   0.66069   0.00000  Uiso   1.00
C8     C     0.90371   0.13526   0.60521   0.00000  Uiso   1.00
C9     C     0.90905   0.15520   0.50247   0.00000  Uiso   1.00
C10    C     0.98073   0.00712   0.81858   0.00000  Uiso   1.00
C11    C     0.94949   0.96290   0.84753   0.00000  Uiso   1.00
C12    C     0.00448   0.88991   0.87750   0.00000  Uiso   1.00
C13    C     0.06814   0.76786   0.93236   0.00000  Uiso   1.00
C14    C     0.08479   0.03742   0.78489   0.00000  Uiso   1.00
C15    C     0.05904   0.09694   0.81592   0.00000  Uiso   1.00
C16    C     0.10996   0.12283   0.84284   0.00000  Uiso   1.00
C17    C     0.07467   0.17749   0.86880   0.00000  Uiso   1.00
C18    C     0.02639   0.07086   0.71802   0.00000  Uiso   1.00
C19    C     0.04985   0.07482   0.66262   0.00000  Uiso   1.00
C20    C     0.98708   0.10750   0.60616   0.00000  Uiso   1.00
C21    C     0.06395   0.97941   0.81953   0.00000  Uiso   1.00
C22    C     0.11900   0.90647   0.84946   0.00000  Uiso   1.00
C23    C     0.08784   0.86215   0.87845   0.00000  Uiso   1.00
H24    H     0.86679   0.11000   0.78241   0.00000  Uiso   1.00
H25    H     0.87605   0.20071   0.84016   0.00000  Uiso   1.00
H26    H     0.81595   0.15269   0.65997   0.00000  Uiso   1.00
H27    H     0.88509   0.98437   0.84678   0.00000  Uiso   1.00
H28    H     0.92300   0.28907   0.90458   0.00000  Uiso   1.00
H29    H     0.79628   0.18779   0.52465   0.00000  Uiso   1.00
H30    H     0.94207   0.83285   0.91858   0.00000  Uiso   1.00
H31    H     0.14958   0.01584   0.78563   0.00000  Uiso   1.00
H32    H     0.17436   0.10138   0.84356   0.00000  Uiso   1.00
H33    H     0.11426   0.05336   0.66337   0.00000  Uiso   1.00
H34    H     0.18339   0.88504   0.85018   0.00000  Uiso   1.00
H35    H     0.16512   0.20845   0.90734   0.00000  Uiso   1.00
H36    H     0.03840   0.10718   0.52740   0.00000  Uiso   1.00
H37    H     0.18418   0.75224   0.92134   0.00000  Uiso   1.00
O38    O     0.05524   0.30675   0.94400   0.00000  Uiso   1.00
O39    O     0.88900   0.17386   0.44554   0.00000  Uiso   1.00
O40    O     0.08026   0.70820   0.96237   0.00000  Uiso   1.00
N41    N     0.97659   0.25835   0.89730   0.00000  Uiso   1.00
N42    N     0.85811   0.16367   0.54207   0.00000  Uiso   1.00
N43    N     0.99440   0.83183   0.91036   0.00000  Uiso   1.00
N44    N     0.10687   0.21497   0.89878   0.00000  Uiso   1.00
N45    N     0.98839   0.12029   0.54356   0.00000  Uiso   1.00
N46    N     0.12468   0.78845   0.91184   0.00000  Uiso   1.00
C47    C     0.69835   0.50585   0.87114   0.00000  Uiso   1.00
C48    C     0.64936   0.47740   0.90762   0.00000  Uiso   1.00
C49    C     0.62804   0.42354   0.89906   0.00000  Uiso   1.00
C50    C     0.58306   0.40520   0.93711   0.00000  Uiso   1.00
C51    C     0.51044   0.35582   0.98689   0.00000  Uiso   1.00
C52    C     0.64443   0.58777   0.84184   0.00000  Uiso   1.00
C53    C     0.61897   0.62671   0.77797   0.00000  Uiso   1.00
C54    C     0.56986   0.70129   0.76065   0.00000  Uiso   1.00
C55    C     0.48963   0.82327   0.70831   0.00000  Uiso   1.00
C56    C     0.77249   0.49571   0.92071   0.00000  Uiso   1.00
C57    C     0.85471   0.45727   0.92315   0.00000  Uiso   1.00
C58    C     0.91341   0.45436   0.97224   0.00000  Uiso   1.00
C59    C     0.03201   0.43340   0.04236   0.00000  Uiso   1.00
C60    C     0.65641   0.56905   0.95396   0.00000  Uiso   1.00
C61    C     0.62658   0.51173   0.95260   0.00000  Uiso   1.00
C62    C     0.58163   0.49346   0.99068   0.00000  Uiso   1.00
C63    C     0.56024   0.43959   0.98218   0.00000  Uiso   1.00
C64    C     0.62165   0.62210   0.88682   0.00000  Uiso   1.00
C65    C     0.57257   0.69663   0.86959   0.00000  Uiso   1.00
C66    C     0.54704   0.73568   0.80571   0.00000  Uiso   1.00
C67    C     0.74971   0.53004   0.96570   0.00000  Uiso   1.00
C68    C     0.80830   0.52719   0.01478   0.00000  Uiso   1.00
C69    C     0.89059   0.48875   0.01730   0.00000  Uiso   1.00
H70    H     0.71608   0.47913   0.83612   0.00000  Uiso   1.00
H71    H     0.64567   0.39699   0.86423   0.00000  Uiso   1.00
H72    H     0.63662   0.60013   0.74317   0.00000  Uiso   1.00
H73    H     0.87231   0.43071   0.88834   0.00000  Uiso   1.00
H74    H     0.55754   0.32108   0.91523   0.00000  Uiso   1.00
H75    H     0.53847   0.74942   0.65996   0.00000  Uiso   1.00
H76    H     0.03548   0.39217   0.96607   0.00000  Uiso   1.00
H77    H     0.63867   0.59578   0.98898   0.00000  Uiso   1.00
H78    H     0.56401   0.52004   0.02549   0.00000  Uiso   1.00
H79    H     0.55496   0.72318   0.90442   0.00000  Uiso   1.00
H80    H     0.79065   0.55376   0.04958   0.00000  Uiso   1.00
H81    H     0.49126   0.42095   0.04611   0.00000  Uiso   1.00
H82    H     0.47219   0.84929   0.79083   0.00000  Uiso   1.00
H83    H     0.96920   0.49204   0.09695   0.00000  Uiso   1.00
O84    O     0.47666   0.31911   0.00191   0.00000  Uiso   1.00
O85    O     0.45166   0.88106   0.66700   0.00000  Uiso   1.00
O86    O     0.10372   0.41236   0.06862   0.00000  Uiso   1.00
N87    N     0.55220   0.35497   0.94103   0.00000  Uiso   1.00
N88    N     0.53436   0.75544   0.70236   0.00000  Uiso   1.00
N89    N     0.99902   0.42145   0.98854   0.00000  Uiso   1.00
N90    N     0.51653   0.40871   0.01146   0.00000  Uiso   1.00
N91    N     0.49870   0.80918   0.77279   0.00000  Uiso   1.00
N92    N     0.96336   0.47519   0.05897   0.00000  Uiso   1.00
C93    C     0.72242   0.05404   0.66410   0.00000  Uiso   1.00
C94    C     0.80374   0.98435   0.69271   0.00000  Uiso   1.00
C95    C     0.87640   0.97203   0.67640   0.00000  Uiso   1.00
C96    C     0.94406   0.90468   0.70805   0.00000  Uiso   1.00
C97    C     0.07107   0.80453   0.74541   0.00000  Uiso   1.00
C98    C     0.65809   0.03139   0.63855   0.00000  Uiso   1.00
C99    C     0.60830   0.05863   0.57672   0.00000  Uiso   1.00
C100   C     0.55334   0.03089   0.56278   0.00000  Uiso   1.00
C101   C     0.45419   0.00381   0.51607   0.00000  Uiso   1.00
C102   C     0.69920   0.07942   0.71942   0.00000  Uiso   1.00
C103   C     0.68394   0.14705   0.72556   0.00000  Uiso   1.00
C104   C     0.66358   0.15975   0.77970   0.00000  Uiso   1.00
C105   C     0.62825   0.20724   0.85854   0.00000  Uiso   1.00
C106   C     0.71335   0.95634   0.74930   0.00000  Uiso   1.00
C107   C     0.79881   0.93128   0.73898   0.00000  Uiso   1.00
C108   C     0.86637   0.86393   0.77066   0.00000  Uiso   1.00
C109   C     0.93913   0.85152   0.75441   0.00000  Uiso   1.00
C110   C     0.65317   0.97833   0.68483   0.00000  Uiso   1.00
C111   C     0.59827   0.95054   0.67098   0.00000  Uiso   1.00
C112   C     0.54840   0.97773   0.60913   0.00000  Uiso   1.00
C113   C     0.69428   0.02635   0.76569   0.00000  Uiso   1.00
C114   C     0.67392   0.03895   0.81983   0.00000  Uiso   1.00
C115   C     0.65864   0.10659   0.82606   0.00000  Uiso   1.00
H116   H     0.72624   0.09535   0.62807   0.00000  Uiso   1.00
H117   H     0.88019   0.01311   0.64058   0.00000  Uiso   1.00
H118   H     0.61212   0.09970   0.54092   0.00000  Uiso   1.00
H119   H     0.68776   0.18810   0.68975   0.00000  Uiso   1.00
H120   H     0.04868   0.89851   0.67485   0.00000  Uiso   1.00
H121   H     0.48342   0.08112   0.46470   0.00000  Uiso   1.00
H122   H     0.64292   0.26753   0.77853   0.00000  Uiso   1.00
H123   H     0.70951   0.91502   0.78532   0.00000  Uiso   1.00
H124   H     0.86254   0.82288   0.80647   0.00000  Uiso   1.00
H125   H     0.59447   0.90948   0.70680   0.00000  Uiso   1.00
H126   H     0.67011   0.99787   0.85563   0.00000  Uiso   1.00
H127   H     0.03436   0.74411   0.80948   0.00000  Uiso   1.00
H128   H     0.46909   0.92673   0.59933   0.00000  Uiso   1.00
H129   H     0.62860   0.11313   0.91316   0.00000  Uiso   1.00
O130   O     0.14248   0.76394   0.75322   0.00000  Uiso   1.00
O131   O     0.40087   0.00353   0.47752   0.00000  Uiso   1.00
O132   O     0.61014   0.24809   0.88925   0.00000  Uiso   1.00
N133   N     0.02431   0.87482   0.70364   0.00000  Uiso   1.00
N134   N     0.49583   0.04555   0.50716   0.00000  Uiso   1.00
N135   N     0.64494   0.21983   0.80056   0.00000  Uiso   1.00
N136   N     0.01661   0.79174   0.77609   0.00000  Uiso   1.00
N137   N     0.48813   0.96247   0.57961   0.00000  Uiso   1.00
N138   N     0.63723   0.13675   0.87300   0.00000  Uiso   1.00
C139   C     0.74277   0.77522   0.34458   0.00000  Uiso   1.00
C140   C     0.80741   0.80081   0.36169   0.00000  Uiso   1.00
C141   C     0.89193   0.76053   0.37316   0.00000  Uiso   1.00
C142   C     0.94069   0.79366   0.38811   0.00000  Uiso   1.00
C143   C     0.04632   0.82263   0.41415   0.00000  Uiso   1.00
C144   C     0.68173   0.83115   0.28223   0.00000  Uiso   1.00
C145   C     0.66057   0.81636   0.22689   0.00000  Uiso   1.00
C146   C     0.60352   0.87504   0.17495   0.00000  Uiso   1.00
C147   C     0.51399   0.95109   0.07763   0.00000  Uiso   1.00
C148   C     0.69551   0.78313   0.39401   0.00000  Uiso   1.00
C149   C     0.68592   0.72798   0.43265   0.00000  Uiso   1.00
C150   C     0.64047   0.74623   0.47482   0.00000  Uiso   1.00
C151   C     0.57233   0.74773   0.55107   0.00000  Uiso   1.00
C152   C     0.67906   0.90571   0.35073   0.00000  Uiso   1.00
C153   C     0.77280   0.87169   0.36504   0.00000  Uiso   1.00
C154   C     0.82145   0.90489   0.37998   0.00000  Uiso   1.00
C155   C     0.90603   0.86466   0.39146   0.00000  Uiso   1.00
C156   C     0.64712   0.90202   0.28557   0.00000  Uiso   1.00
C157   C     0.59009   0.96073   0.23370   0.00000  Uiso   1.00
C158   C     0.56886   0.94604   0.17830   0.00000  Uiso   1.00
C159   C     0.66091   0.85401   0.39736   0.00000  Uiso   1.00
C160   C     0.61545   0.87235   0.43947   0.00000  Uiso   1.00
C161   C     0.60580   0.81723   0.47817   0.00000  Uiso   1.00
H162   H     0.76970   0.72005   0.34197   0.00000  Uiso   1.00
H163   H     0.91868   0.70568   0.37056   0.00000  Uiso   1.00
H164   H     0.68735   0.76151   0.22432   0.00000  Uiso   1.00
H165   H     0.71271   0.67314   0.43005   0.00000  Uiso   1.00
H166   H     0.06859   0.72102   0.40372   0.00000  Uiso   1.00
H167   H     0.58080   0.83873   0.09536   0.00000  Uiso   1.00
H168   H     0.63427   0.65239   0.52919   0.00000  Uiso   1.00
H169   H     0.65212   0.96089   0.35334   0.00000  Uiso   1.00
H170   H     0.79465   0.95974   0.38256   0.00000  Uiso   1.00
H171   H     0.56332   0.01557   0.23631   0.00000  Uiso   1.00
H172   H     0.58868   0.92720   0.44205   0.00000  Uiso   1.00
H173   H     0.96792   0.92723   0.41345   0.00000  Uiso   1.00
H174   H     0.48013   0.04494   0.10509   0.00000  Uiso   1.00
H175   H     0.53360   0.85859   0.53892   0.00000  Uiso   1.00
O176   O     0.11414   0.81903   0.42758   0.00000  Uiso   1.00
O177   O     0.47417   0.97346   0.02303   0.00000  Uiso   1.00
O178   O     0.54432   0.72898   0.59221   0.00000  Uiso   1.00
N179   N     0.02534   0.76970   0.40201   0.00000  Uiso   1.00
N180   N     0.56930   0.87976   0.11371   0.00000  Uiso   1.00
N181   N     0.61926   0.70555   0.51929   0.00000  Uiso   1.00
N182   N     0.97117   0.88066   0.40725   0.00000  Uiso   1.00
N183   N     0.51513   0.99071   0.11895   0.00000  Uiso   1.00
N184   N     0.56510   0.81650   0.52453   0.00000  Uiso   1.00
C185   C     0.87963   0.50090   0.32714   0.00000  Uiso   1.00
C186   C     0.93145   0.42180   0.33216   0.00000  Uiso   1.00
C187   C     0.91358   0.36475   0.35419   0.00000  Uiso   1.00
C188   C     0.96872   0.29638   0.35507   0.00000  Uiso   1.00
C189   C     0.03845   0.17520   0.36594   0.00000  Uiso   1.00
C190   C     0.85904   0.54518   0.25823   0.00000  Uiso   1.00
C191   C     0.78028   0.59187   0.21810   0.00000  Uiso   1.00
C192   C     0.77447   0.62736   0.15675   0.00000  Uiso   1.00
C193   C     0.73178   0.69777   0.05286   0.00000  Uiso   1.00
C194   C     0.93728   0.52206   0.36524   0.00000  Uiso   1.00
C195   C     0.92430   0.54933   0.41509   0.00000  Uiso   1.00
C196   C     0.98435   0.56538   0.44382   0.00000  Uiso   1.00
C197   C     0.06314   0.59990   0.50609   0.00000  Uiso   1.00
C198   C     0.00935   0.48094   0.28953   0.00000  Uiso   1.00
C199   C     0.00191   0.41096   0.31173   0.00000  Uiso   1.00
C200   C     0.05710   0.34265   0.31258   0.00000  Uiso   1.00
C201   C     0.03931   0.28551   0.33461   0.00000  Uiso   1.00
C202   C     0.92950   0.53433   0.23780   0.00000  Uiso   1.00
C203   C     0.92381   0.56977   0.17650   0.00000  Uiso   1.00
C204   C     0.84506   0.61650   0.13629   0.00000  Uiso   1.00
C205   C     0.00775   0.51121   0.34482   0.00000  Uiso   1.00
C206   C     0.06783   0.52723   0.37348   0.00000  Uiso   1.00
C207   C     0.05494   0.55452   0.42336   0.00000  Uiso   1.00
H208   H     0.82477   0.50935   0.34304   0.00000  Uiso   1.00
H209   H     0.85903   0.37316   0.36999   0.00000  Uiso   1.00
H210   H     0.72576   0.60025   0.23393   0.00000  Uiso   1.00
H211   H     0.86976   0.55772   0.43088   0.00000  Uiso   1.00
H212   H     0.92809   0.21740   0.39083   0.00000  Uiso   1.00
H213   H     0.64708   0.69624   0.10395   0.00000  Uiso   1.00
H214   H     0.95072   0.60655   0.51926   0.00000  Uiso   1.00
H215   H     0.06421   0.47250   0.27363   0.00000  Uiso   1.00
H216   H     0.11162   0.33428   0.29677   0.00000  Uiso   1.00
H217   H     0.97835   0.56137   0.16071   0.00000  Uiso   1.00
H218   H     0.12235   0.51883   0.35766   0.00000  Uiso   1.00
H219   H     0.13309   0.18584   0.33141   0.00000  Uiso   1.00
H220   H     0.85208   0.66469   0.04452   0.00000  Uiso   1.00
H221   H     0.15573   0.57499   0.45984   0.00000  Uiso   1.00
O222   O     0.05744   0.11136   0.37758   0.00000  Uiso   1.00
O223   O     0.68877   0.73960   0.00120   0.00000  Uiso   1.00
O224   O     0.08714   0.62192   0.54608   0.00000  Uiso   1.00
N225   N     0.96984   0.22893   0.37368   0.00000  Uiso   1.00
N226   N     0.70711   0.67662   0.10546   0.00000  Uiso   1.00
N227   N     0.99098   0.59278   0.49373   0.00000  Uiso   1.00
N228   N     0.08015   0.21195   0.34171   0.00000  Uiso   1.00
N229   N     0.81742   0.65963   0.07349   0.00000  Uiso   1.00
N230   N     0.10129   0.57580   0.46176   0.00000  Uiso   1.00
C231   C     0.64038   0.53707   0.34750   0.00000  Uiso   1.00
C232   C     0.57803   0.61150   0.34651   0.00000  Uiso   1.00
C233   C     0.58339   0.67597   0.32703   0.00000  Uiso   1.00
C234   C     0.52006   0.73828   0.32968   0.00000  Uiso   1.00
C235   C     0.43331   0.85418   0.32486   0.00000  Uiso   1.00
C236   C     0.59176   0.50988   0.30764   0.00000  Uiso   1.00
C237   C     0.60869   0.48891   0.25549   0.00000  Uiso   1.00
C238   C     0.55693   0.46567   0.22543   0.00000  Uiso   1.00
C239   C     0.49154   0.42376   0.16029   0.00000  Uiso   1.00
C240   C     0.66771   0.48709   0.41530   0.00000  Uiso   1.00
C241   C     0.74850   0.44694   0.45368   0.00000  Uiso   1.00
C242   C     0.76069   0.40449   0.51425   0.00000  Uiso   1.00
C243   C     0.81323   0.32720   0.61627   0.00000  Uiso   1.00
C244   C     0.51836   0.53306   0.38683   0.00000  Uiso   1.00
C245   C     0.51175   0.60932   0.36787   0.00000  Uiso   1.00
C246   C     0.44840   0.67154   0.37055   0.00000  Uiso   1.00
C247   C     0.45367   0.73609   0.35108   0.00000  Uiso   1.00
C248   C     0.52549   0.50770   0.32900   0.00000  Uiso   1.00
C249   C     0.47370   0.48448   0.29900   0.00000  Uiso   1.00
C250   C     0.49054   0.46348   0.24682   0.00000  Uiso   1.00
C251   C     0.60144   0.48491   0.43666   0.00000  Uiso   1.00
C252   C     0.61351   0.44251   0.49719   0.00000  Uiso   1.00
C253   C     0.69430   0.40231   0.53565   0.00000  Uiso   1.00
H254   H     0.69197   0.53877   0.33087   0.00000  Uiso   1.00
H255   H     0.63469   0.67764   0.31050   0.00000  Uiso   1.00
H256   H     0.65999   0.49060   0.23898   0.00000  Uiso   1.00
H257   H     0.79977   0.44864   0.43713   0.00000  Uiso   1.00
H258   H     0.54194   0.83065   0.29732   0.00000  Uiso   1.00
H259   H     0.59530   0.43624   0.14652   0.00000  Uiso   1.00
H260   H     0.89007   0.34776   0.56436   0.00000  Uiso   1.00
H261   H     0.46676   0.53137   0.40346   0.00000  Uiso   1.00
H262   H     0.39712   0.66983   0.38708   0.00000  Uiso   1.00
H263   H     0.42242   0.48280   0.31555   0.00000  Uiso   1.00
H264   H     0.56221   0.44084   0.51370   0.00000  Uiso   1.00
H265   H     0.34912   0.82431   0.35947   0.00000  Uiso   1.00
H266   H     0.40248   0.42991   0.20867   0.00000  Uiso   1.00
H267   H     0.69725   0.34143   0.62651   0.00000  Uiso   1.00
O268   O     0.40376   0.91871   0.31629   0.00000  Uiso   1.00
O269   O     0.47378   0.40125   0.11845   0.00000  Uiso   1.00
O270   O     0.86051   0.28517   0.66665   0.00000  Uiso   1.00
N271   N     0.50612   0.81015   0.31421   0.00000  Uiso   1.00
N272   N     0.55600   0.44142   0.17321   0.00000  Uiso   1.00
N273   N     0.83159   0.35868   0.56385   0.00000  Uiso   1.00
N274   N     0.40237   0.80674   0.34765   0.00000  Uiso   1.00
N275   N     0.45225   0.43801   0.20665   0.00000  Uiso   1.00
N276   N     0.72784   0.35527   0.59730   0.00000  Uiso   1.00
C277   C     0.87952   0.05263   0.21359   0.00000  Uiso   1.00
C278   C     0.87124   0.98454   0.21050   0.00000  Uiso   1.00
C279   C     0.93460   0.91387   0.23416   0.00000  Uiso   1.00
C280   C     0.91444   0.85906   0.22664   0.00000  Uiso   1.00
C281   C     0.91383   0.75099   0.22643   0.00000  Uiso   1.00
C282   C     0.81719   0.08992   0.24678   0.00000  Uiso   1.00
C283   C     0.83511   0.10787   0.30094   0.00000  Uiso   1.00
C284   C     0.76944   0.14178   0.32396   0.00000  Uiso   1.00
C285   C     0.68492   0.19737   0.38006   0.00000  Uiso   1.00
C286   C     0.84839   0.10284   0.14552   0.00000  Uiso   1.00
C287   C     0.89253   0.13167   0.11455   0.00000  Uiso   1.00
C288   C     0.85313   0.17647   0.05232   0.00000  Uiso   1.00
C289   C     0.81705   0.25211   0.95121   0.00000  Uiso   1.00
C290   C     0.73105   0.08096   0.15816   0.00000  Uiso   1.00
C291   C     0.79059   0.99993   0.18039   0.00000  Uiso   1.00
C292   C     0.77033   0.94521   0.17283   0.00000  Uiso   1.00
C293   C     0.83365   0.87447   0.19647   0.00000  Uiso   1.00
C294   C     0.73655   0.10531   0.21667   0.00000  Uiso   1.00
C295   C     0.67084   0.13921   0.23961   0.00000  Uiso   1.00
C296   C     0.68865   0.15720   0.29380   0.00000  Uiso   1.00
C297   C     0.76775   0.11823   0.11541   0.00000  Uiso   1.00
C298   C     0.72827   0.16300   0.05322   0.00000  Uiso   1.00
C299   C     0.77234   0.19189   0.02216   0.00000  Uiso   1.00
H300   H     0.94230   0.04065   0.23704   0.00000  Uiso   1.00
H301   H     0.99700   0.90198   0.25746   0.00000  Uiso   1.00
H302   H     0.89752   0.09596   0.32423   0.00000  Uiso   1.00
H303   H     0.95494   0.11975   0.13787   0.00000  Uiso   1.00
H304   H     0.02206   0.75502   0.26684   0.00000  Uiso   1.00
H305   H     0.81230   0.16405   0.40762   0.00000  Uiso   1.00
H306   H     0.93338   0.21422   0.01464   0.00000  Uiso   1.00
H307   H     0.66826   0.09294   0.13472   0.00000  Uiso   1.00
H308   H     0.70792   0.95714   0.14952   0.00000  Uiso   1.00
H309   H     0.60844   0.15112   0.21630   0.00000  Uiso   1.00
H310   H     0.66586   0.17490   0.02994   0.00000  Uiso   1.00
H311   H     0.78744   0.79979   0.17924   0.00000  Uiso   1.00
H312   H     0.57768   0.20883   0.32002   0.00000  Uiso   1.00
H313   H     0.69875   0.25899   0.92704   0.00000  Uiso   1.00
O314   O     0.93578   0.68713   0.23465   0.00000  Uiso   1.00
O315   O     0.66058   0.22377   0.41933   0.00000  Uiso   1.00
O316   O     0.81943   0.28958   0.90375   0.00000  Uiso   1.00
N317   N     0.96141   0.78420   0.24418   0.00000  Uiso   1.00
N318   N     0.76529   0.16661   0.37581   0.00000  Uiso   1.00
N319   N     0.87848   0.21352   0.00841   0.00000  Uiso   1.00
N320   N     0.83515   0.80829   0.19705   0.00000  Uiso   1.00
N321   N     0.63904   0.19070   0.32867   0.00000  Uiso   1.00
N322   N     0.75223   0.23761   0.96127   0.00000  Uiso   1.00
C323   C     0.20097   0.78508   0.22772   0.00000  Uiso   1.00
C324   C     0.27848   0.76073   0.20541   0.00000  Uiso   1.00
C325   C     0.31980   0.80153   0.19066   0.00000  Uiso   1.00
C326   C     0.38953   0.76954   0.17113   0.00000  Uiso   1.00
C327   C     0.50574   0.74240   0.13721   0.00000  Uiso   1.00
C328   C     0.22218   0.72776   0.29067   0.00000  Uiso   1.00
C329   C     0.21615   0.74084   0.34760   0.00000  Uiso   1.00
C330   C     0.23848   0.68109   0.39985   0.00000  Uiso   1.00
C331   C     0.26722   0.60277   0.49829   0.00000  Uiso   1.00
C332   C     0.13677   0.77810   0.18131   0.00000  Uiso   1.00
C333   C     0.05892   0.83350   0.14630   0.00000  Uiso   1.00
C334   C     0.00933   0.81613   0.10648   0.00000  Uiso   1.00
C335   C     0.90546   0.81596   0.03513   0.00000  Uiso   1.00
C336   C     0.25132   0.65570   0.21929   0.00000  Uiso   1.00
C337   C     0.30582   0.69046   0.20083   0.00000  Uiso   1.00
C338   C     0.37551   0.65839   0.18132   0.00000  Uiso   1.00
C339   C     0.41693   0.69914   0.16654   0.00000  Uiso   1.00
C340   C     0.24952   0.65749   0.28609   0.00000  Uiso   1.00
C341   C     0.27186   0.59770   0.33827   0.00000  Uiso   1.00
C342   C     0.26587   0.61069   0.39526   0.00000  Uiso   1.00
C343   C     0.16411   0.70782   0.17673   0.00000  Uiso   1.00
C344   C     0.11463   0.69036   0.13696   0.00000  Uiso   1.00
C345   C     0.03672   0.74572   0.10189   0.00000  Uiso   1.00
H346   H     0.17968   0.83979   0.23130   0.00000  Uiso   1.00
H347   H     0.29862   0.85591   0.19421   0.00000  Uiso   1.00
H348   H     0.19498   0.79523   0.35113   0.00000  Uiso   1.00
H349   H     0.03778   0.88788   0.14986   0.00000  Uiso   1.00
H350   H     0.44257   0.84279   0.15110   0.00000  Uiso   1.00
H351   H     0.22401   0.71484   0.48197   0.00000  Uiso   1.00
H352   H     0.89251   0.91020   0.05755   0.00000  Uiso   1.00
H353   H     0.27261   0.60099   0.21572   0.00000  Uiso   1.00
H354   H     0.39665   0.60401   0.17778   0.00000  Uiso   1.00
H355   H     0.29301   0.54333   0.33470   0.00000  Uiso   1.00
H356   H     0.13581   0.63597   0.13343   0.00000  Uiso   1.00
H357   H     0.52214   0.63833   0.13777   0.00000  Uiso   1.00
H358   H     0.30357   0.51038   0.46864   0.00000  Uiso   1.00
H359   H     0.97208   0.70574   0.04421   0.00000  Uiso   1.00
O360   O     0.56229   0.74684   0.11978   0.00000  Uiso   1.00
O361   O     0.27553   0.57898   0.55386   0.00000  Uiso   1.00
O362   O     0.84062   0.83529   0.99703   0.00000  Uiso   1.00
N363   N     0.44426   0.79426   0.15316   0.00000  Uiso   1.00
N364   N     0.23993   0.67463   0.46250   0.00000  Uiso   1.00
N365   N     0.93000   0.85727   0.06572   0.00000  Uiso   1.00
N366   N     0.48708   0.68424   0.14598   0.00000  Uiso   1.00
N367   N     0.28275   0.56461   0.45533   0.00000  Uiso   1.00
N368   N     0.97282   0.74726   0.05854   0.00000  Uiso   1.00
C369   C     0.10529   0.10251   0.22033   0.00000  Uiso   1.00
C370   C     0.02780   0.17556   0.19433   0.00000  Uiso   1.00
C371   C     0.95758   0.19352   0.21506   0.00000  Uiso   1.00
C372   C     0.89330   0.26317   0.18520   0.00000  Uiso   1.00
C373   C     0.77211   0.36903   0.15228   0.00000  Uiso   1.00
C374   C     0.17666   0.11925   0.24115   0.00000  Uiso   1.00
C375   C     0.23161   0.08985   0.30124   0.00000  Uiso   1.00
C376   C     0.29265   0.11209   0.31079   0.00000  Uiso   1.00
C377   C     0.40261   0.13047   0.35055   0.00000  Uiso   1.00
C378   C     0.11875   0.07562   0.16391   0.00000  Uiso   1.00
C379   C     0.12503   0.00952   0.15905   0.00000  Uiso   1.00
C380   C     0.13734   0.99501   0.10357   0.00000  Uiso   1.00
C381   C     0.15738   0.94565   0.02340   0.00000  Uiso   1.00
C382   C     0.11601   0.19428   0.13044   0.00000  Uiso   1.00
C383   C     0.03363   0.22540   0.14551   0.00000  Uiso   1.00
C384   C     0.96944   0.29505   0.11561   0.00000  Uiso   1.00
C385   C     0.89913   0.31310   0.13628   0.00000  Uiso   1.00
C386   C     0.18249   0.16909   0.19233   0.00000  Uiso   1.00
C387   C     0.24347   0.19137   0.20179   0.00000  Uiso   1.00
C388   C     0.29848   0.16202   0.26188   0.00000  Uiso   1.00
C389   C     0.12458   0.12546   0.11508   0.00000  Uiso   1.00
C390   C     0.13688   0.11105   0.05960   0.00000  Uiso   1.00
C391   C     0.14317   0.04494   0.05466   0.00000  Uiso   1.00
H392   H     0.10076   0.06371   0.25834   0.00000  Uiso   1.00
H393   H     0.95310   0.15493   0.25285   0.00000  Uiso   1.00
H394   H     0.22709   0.05127   0.33901   0.00000  Uiso   1.00
H395   H     0.12052   0.97096   0.19685   0.00000  Uiso   1.00
H396   H     0.79197   0.27806   0.22524   0.00000  Uiso   1.00
H397   H     0.36971   0.05947   0.40692   0.00000  Uiso   1.00
H398   H     0.14499   0.89011   0.10714   0.00000  Uiso   1.00
H399   H     0.12055   0.23308   0.09243   0.00000  Uiso   1.00
H400   H     0.97396   0.33360   0.07782   0.00000  Uiso   1.00
H401   H     0.24796   0.22994   0.16399   0.00000  Uiso   1.00
H402   H     0.14139   0.14963   0.02183   0.00000  Uiso   1.00
H403   H     0.80890   0.42308   0.08319   0.00000  Uiso   1.00
H404   H     0.38665   0.20448   0.26487   0.00000  Uiso   1.00
H405   H     0.16193   0.03513   0.96508   0.00000  Uiso   1.00
O406   O     0.70366   0.41365   0.14762   0.00000  Uiso   1.00
O407   O     0.46164   0.12685   0.38597   0.00000  Uiso   1.00
O408   O     0.16682   0.90466   0.99266   0.00000  Uiso   1.00
N409   N     0.81606   0.29839   0.19380   0.00000  Uiso   1.00
N410   N     0.35621   0.09403   0.36367   0.00000  Uiso   1.00
N411   N     0.14614   0.93569   0.08340   0.00000  Uiso   1.00
N412   N     0.82517   0.37643   0.11737   0.00000  Uiso   1.00
N413   N     0.36532   0.17206   0.28723   0.00000  Uiso   1.00
N414   N     0.15525   0.01372   0.00696   0.00000  Uiso   1.00
C415   C     0.16491   0.39640   0.78194   0.00000  Uiso   1.00
C416   C     0.08328   0.39241   0.77052   0.00000  Uiso   1.00
C417   C     0.00843   0.44498   0.77125   0.00000  Uiso   1.00
C418   C     0.94088   0.43113   0.75971   0.00000  Uiso   1.00
C419   C     0.81306   0.43467   0.74380   0.00000  Uiso   1.00
C420   C     0.22593   0.32823   0.83658   0.00000  Uiso   1.00
C421   C     0.27102   0.32684   0.89285   0.00000  Uiso   1.00
C422   C     0.32356   0.25897   0.93692   0.00000  Uiso   1.00
C423   C     0.41725   0.16287   0.02356   0.00000  Uiso   1.00
C424   C     0.19452   0.38765   0.72379   0.00000  Uiso   1.00
C425   C     0.21323   0.43620   0.68523   0.00000  Uiso   1.00
C426   C     0.23934   0.41834   0.63435   0.00000  Uiso   1.00
C427   C     0.28426   0.41449   0.54586   0.00000  Uiso   1.00
C428   C     0.17805   0.27833   0.76015   0.00000  Uiso   1.00
C429   C     0.09042   0.32828   0.75868   0.00000  Uiso   1.00
C430   C     0.02297   0.31435   0.74714   0.00000  Uiso   1.00
C431   C     0.94803   0.36688   0.74785   0.00000  Uiso   1.00
C432   C     0.23307   0.26411   0.82475   0.00000  Uiso   1.00
C433   C     0.28556   0.19621   0.86874   0.00000  Uiso   1.00
C434   C     0.33072   0.19472   0.92506   0.00000  Uiso   1.00
C435   C     0.20166   0.32352   0.71195   0.00000  Uiso   1.00
C436   C     0.22776   0.30557   0.66112   0.00000  Uiso   1.00
C437   C     0.24649   0.35409   0.62249   0.00000  Uiso   1.00
H438   H     0.15935   0.44633   0.79116   0.00000  Uiso   1.00
H439   H     0.00293   0.49460   0.78042   0.00000  Uiso   1.00
H440   H     0.26549   0.37648   0.90200   0.00000  Uiso   1.00
H441   H     0.20769   0.48582   0.69441   0.00000  Uiso   1.00
H442   H     0.83266   0.51981   0.76331   0.00000  Uiso   1.00
H443   H     0.38630   0.27076   0.01966   0.00000  Uiso   1.00
H444   H     0.26443   0.50133   0.58192   0.00000  Uiso   1.00
H445   H     0.18361   0.22840   0.75093   0.00000  Uiso   1.00
H446   H     0.02851   0.26471   0.73798   0.00000  Uiso   1.00
H447   H     0.29107   0.14660   0.85956   0.00000  Uiso   1.00
H448   H     0.23328   0.25594   0.65197   0.00000  Uiso   1.00
H449   H     0.85342   0.33323   0.72887   0.00000  Uiso   1.00
H450   H     0.40707   0.08418   0.98522   0.00000  Uiso   1.00
H451   H     0.28519   0.31475   0.54748   0.00000  Uiso   1.00
O452   O     0.74058   0.45433   0.73831   0.00000  Uiso   1.00
O453   O     0.46695   0.12758   0.07463   0.00000  Uiso   1.00
O454   O     0.30705   0.43009   0.50032   0.00000  Uiso   1.00
N455   N     0.85883   0.47093   0.75697   0.00000  Uiso   1.00
N456   N     0.37644   0.23808   0.99664   0.00000  Uiso   1.00
N457   N     0.26252   0.45363   0.58740   0.00000  Uiso   1.00
N458   N     0.87000   0.37053   0.73843   0.00000  Uiso   1.00
N459   N     0.38761   0.13768   0.97811   0.00000  Uiso   1.00
N460   N     0.27370   0.35324   0.56887   0.00000  Uiso   1.00
C461   C     0.96046   0.67466   0.68936   0.00000  Uiso   1.00
C462   C     0.90207   0.75034   0.64302   0.00000  Uiso   1.00
C463   C     0.92551   0.80049   0.61292   0.00000  Uiso   1.00
C464   C     0.86276   0.86673   0.57225   0.00000  Uiso   1.00
C465   C     0.78475   0.98190   0.50186   0.00000  Uiso   1.00
C466   C     0.93382   0.67149   0.74985   0.00000  Uiso   1.00
C467   C     0.98396   0.65533   0.80958   0.00000  Uiso   1.00
C468   C     0.94793   0.65520   0.85884   0.00000  Uiso   1.00
C469   C     0.91922   0.64790   0.95432   0.00000  Uiso   1.00
C470   C     0.94055   0.62166   0.66240   0.00000  Uiso   1.00
C471   C     0.99635   0.56359   0.64861   0.00000  Uiso   1.00
C472   C     0.96599   0.52149   0.62426   0.00000  Uiso   1.00
C473   C     0.94773   0.43684   0.58396   0.00000  Uiso   1.00
C474   C     0.80733   0.70313   0.67065   0.00000  Uiso   1.00
C475   C     0.81890   0.76580   0.63286   0.00000  Uiso   1.00
C476   C     0.75609   0.83199   0.59222   0.00000  Uiso   1.00
C477   C     0.77944   0.88222   0.56207   0.00000  Uiso   1.00
C478   C     0.85065   0.68695   0.73969   0.00000  Uiso   1.00
C479   C     0.81454   0.68683   0.78888   0.00000  Uiso   1.00
C480   C     0.86460   0.67069   0.84866   0.00000  Uiso   1.00
C481   C     0.85737   0.63713   0.65223   0.00000  Uiso   1.00
C482   C     0.82693   0.59510   0.62791   0.00000  Uiso   1.00
C483   C     0.88267   0.53699   0.61408   0.00000  Uiso   1.00
H484   H     0.02522   0.66262   0.69728   0.00000  Uiso   1.00
H485   H     0.98989   0.78850   0.62080   0.00000  Uiso   1.00
H486   H     0.04832   0.64336   0.81743   0.00000  Uiso   1.00
H487   H     0.06071   0.55164   0.65648   0.00000  Uiso   1.00
H488   H     0.91404   0.93489   0.53155   0.00000  Uiso   1.00
H489   H     0.03726   0.62884   0.94615   0.00000  Uiso   1.00
H490   H     0.06339   0.43543   0.60677   0.00000  Uiso   1.00
H491   H     0.74257   0.71517   0.66274   0.00000  Uiso   1.00
H492   H     0.69173   0.84394   0.58436   0.00000  Uiso   1.00
H493   H     0.75017   0.69880   0.78100   0.00000  Uiso   1.00
H494   H     0.76256   0.60708   0.62005   0.00000  Uiso   1.00
H495   H     0.67205   0.97989   0.50198   0.00000  Uiso   1.00
H496   H     0.79527   0.67383   0.91659   0.00000  Uiso   1.00
H497   H     0.82139   0.48043   0.57720   0.00000  Uiso   1.00
O498   O     0.76470   0.04116   0.46585   0.00000  Uiso   1.00
O499   O     0.92637   0.63961   0.00980   0.00000  Uiso   1.00
O500   O     0.96064   0.38587   0.56453   0.00000  Uiso   1.00
N501   N     0.86407   0.92781   0.53534   0.00000  Uiso   1.00
N502   N     0.97927   0.64167   0.92297   0.00000  Uiso   1.00
N503   N     0.00370   0.46084   0.60568   0.00000  Uiso   1.00
N504   N     0.73385   0.95202   0.51942   0.00000  Uiso   1.00
N505   N     0.84905   0.66589   0.90706   0.00000  Uiso   1.00
N506   N     0.87348   0.48506   0.58977   0.00000  Uiso   1.00
C507   C     0.28855   0.57756   0.74143   0.00000  Uiso   1.00
C508   C     0.37237   0.53562   0.73162   0.00000  Uiso   1.00
C509   C     0.39742   0.47215   0.71548   0.00000  Uiso   1.00
C510   C     0.47651   0.44212   0.70871   0.00000  Uiso   1.00
C511   C     0.59876   0.37205   0.69213   0.00000  Uiso   1.00
C512   C     0.30649   0.58309   0.80788   0.00000  Uiso   1.00
C513   C     0.27614   0.55953   0.85585   0.00000  Uiso   1.00
C514   C     0.29977   0.56947   0.91327   0.00000  Uiso   1.00
C515   C     0.31968   0.57314   0.01507   0.00000  Uiso   1.00
C516   C     0.25252   0.65478   0.69623   0.00000  Uiso   1.00
C517   C     0.17677   0.69152   0.65033   0.00000  Uiso   1.00
C518   C     0.15494   0.76183   0.61376   0.00000  Uiso   1.00
C519   C     0.09105   0.87683   0.54221   0.00000  Uiso   1.00
C520   C     0.38446   0.63711   0.75810   0.00000  Uiso   1.00
C521   C     0.42447   0.56797   0.74068   0.00000  Uiso   1.00
C522   C     0.50354   0.53803   0.73393   0.00000  Uiso   1.00
C523   C     0.52870   0.47452   0.71778   0.00000  Uiso   1.00
C524   C     0.35859   0.61543   0.81693   0.00000  Uiso   1.00
C525   C     0.38226   0.62541   0.87430   0.00000  Uiso   1.00
C526   C     0.35196   0.60187   0.92235   0.00000  Uiso   1.00
C527   C     0.30461   0.68713   0.70528   0.00000  Uiso   1.00
C528   C     0.28289   0.75740   0.66878   0.00000  Uiso   1.00
C529   C     0.20713   0.79423   0.62284   0.00000  Uiso   1.00
H530   H     0.24799   0.55238   0.73438   0.00000  Uiso   1.00
H531   H     0.35709   0.44713   0.70848   0.00000  Uiso   1.00
H532   H     0.23582   0.53451   0.84882   0.00000  Uiso   1.00
H533   H     0.13647   0.66647   0.64334   0.00000  Uiso   1.00
H534   H     0.50103   0.34468   0.68378   0.00000  Uiso   1.00
H535   H     0.24531   0.52895   0.97970   0.00000  Uiso   1.00
H536   H     0.03580   0.80723   0.54639   0.00000  Uiso   1.00
H537   H     0.42503   0.66230   0.76516   0.00000  Uiso   1.00
H538   H     0.54384   0.56307   0.74094   0.00000  Uiso   1.00
H539   H     0.42257   0.65045   0.88129   0.00000  Uiso   1.00
H540   H     0.32322   0.78241   0.67581   0.00000  Uiso   1.00
H541   H     0.65261   0.43879   0.71013   0.00000  Uiso   1.00
H542   H     0.39688   0.62305   0.00605   0.00000  Uiso   1.00
H543   H     0.18738   0.90133   0.57275   0.00000  Uiso   1.00
O544   O     0.65180   0.32447   0.68049   0.00000  Uiso   1.00
O545   O     0.31628   0.56623   0.06872   0.00000  Uiso   1.00
O546   O     0.04142   0.93132   0.50023   0.00000  Uiso   1.00
N547   N     0.52040   0.38046   0.69329   0.00000  Uiso   1.00
N548   N     0.28132   0.55272   0.96996   0.00000  Uiso   1.00
N549   N     0.08544   0.81290   0.56487   0.00000  Uiso   1.00
N550   N     0.60196   0.43109   0.70747   0.00000  Uiso   1.00
N551   N     0.36288   0.60336   0.98414   0.00000  Uiso   1.00
N552   N     0.16700   0.86353   0.57905   0.00000  Uiso   1.00
