data_job_03252
_audit_creation_date              2018-12-19
_audit_creation_method            'Materials Studio'
_symmetry_space_group_name_H-M    'P1'
_symmetry_Int_Tables_number       1
_symmetry_cell_setting            triclinic
loop_
_symmetry_equiv_pos_as_xyz
  x,y,z
_cell_length_a                    7.4277
_cell_length_b                    12.3795
_cell_length_c                    54.5944
_cell_angle_alpha                 90.0000
_cell_angle_beta                  90.0000
_cell_angle_gamma                 72.5424
loop_
_atom_site_label
_atom_site_type_symbol
_atom_site_fract_x
_atom_site_fract_y
_atom_site_fract_z
_atom_site_U_iso_or_equiv
_atom_site_adp_type
_atom_site_occupancy
C1     C     0.84970   0.35430   0.80545   0.00000  Uiso   1.00
C2     C     0.67568   0.45245   0.79908   0.00000  Uiso   1.00
C3     C     0.66432   0.53134   0.78064   0.00000  Uiso   1.00
C4     C     0.49253   0.61467   0.77774   0.00000  Uiso   1.00
C5     C     0.24588   0.76647   0.76559   0.00000  Uiso   1.00
C6     C     0.88942   0.36836   0.83247   0.00000  Uiso   1.00
C7     C     0.05780   0.37652   0.84210   0.00000  Uiso   1.00
C8     C     0.06594   0.38904   0.86731   0.00000  Uiso   1.00
C9     C     0.15119   0.41020   0.90699   0.00000  Uiso   1.00
C10    C     0.78875   0.24738   0.80374   0.00000  Uiso   1.00
C11    C     0.87252   0.15380   0.78921   0.00000  Uiso   1.00
C12    C     0.79592   0.06445   0.79023   0.00000  Uiso   1.00
C13    C     0.72487   0.89777   0.78530   0.00000  Uiso   1.00
C14    C     0.56478   0.36200   0.83311   0.00000  Uiso   1.00
C15    C     0.52092   0.45663   0.81411   0.00000  Uiso   1.00
C16    C     0.34909   0.53986   0.81124   0.00000  Uiso   1.00
C17    C     0.33749   0.61885   0.79279   0.00000  Uiso   1.00
C18    C     0.73468   0.37254   0.84750   0.00000  Uiso   1.00
C19    C     0.74257   0.38504   0.87270   0.00000  Uiso   1.00
C20    C     0.91091   0.39323   0.88236   0.00000  Uiso   1.00
C21    C     0.63400   0.25156   0.81876   0.00000  Uiso   1.00
C22    C     0.55727   0.16233   0.81981   0.00000  Uiso   1.00
C23    C     0.64089   0.06864   0.80528   0.00000  Uiso   1.00
H24    H     0.97019   0.35105   0.79375   0.00000  Uiso   1.00
H25    H     0.78412   0.52808   0.76901   0.00000  Uiso   1.00
H26    H     0.17754   0.37327   0.83046   0.00000  Uiso   1.00
H27    H     0.99227   0.15060   0.77758   0.00000  Uiso   1.00
H28    H     0.50961   0.72623   0.74822   0.00000  Uiso   1.00
H29    H     0.33917   0.39977   0.87779   0.00000  Uiso   1.00
H30    H     0.94850   0.93020   0.76628   0.00000  Uiso   1.00
H31    H     0.44430   0.36526   0.84481   0.00000  Uiso   1.00
H32    H     0.22936   0.54307   0.82287   0.00000  Uiso   1.00
H33    H     0.62279   0.38827   0.88432   0.00000  Uiso   1.00
H34    H     0.43752   0.16559   0.83144   0.00000  Uiso   1.00
H35    H     0.05934   0.73840   0.79194   0.00000  Uiso   1.00
H36    H     0.88892   0.41194   0.92151   0.00000  Uiso   1.00
H37    H     0.49824   0.94238   0.81000   0.00000  Uiso   1.00
O38    O     0.15259   0.84905   0.75473   0.00000  Uiso   1.00
O39    O     0.24097   0.42073   0.92473   0.00000  Uiso   1.00
O40    O     0.72841   0.80468   0.77842   0.00000  Uiso   1.00
N41    N     0.43312   0.70467   0.76152   0.00000  Uiso   1.00
N42    N     0.20871   0.39947   0.88266   0.00000  Uiso   1.00
N43    N     0.84350   0.96046   0.77841   0.00000  Uiso   1.00
N44    N     0.19084   0.71122   0.78504   0.00000  Uiso   1.00
N45    N     0.96643   0.40602   0.90618   0.00000  Uiso   1.00
N46    N     0.60121   0.96701   0.80193   0.00000  Uiso   1.00
C47    C     0.23781   0.61375   0.19502   0.00000  Uiso   1.00
C48    C     0.16193   0.51560   0.20138   0.00000  Uiso   1.00
C49    C     0.22944   0.43672   0.21983   0.00000  Uiso   1.00
C50    C     0.14097   0.35339   0.22273   0.00000  Uiso   1.00
C51    C     0.04611   0.20160   0.23488   0.00000  Uiso   1.00
C52    C     0.29162   0.59968   0.16800   0.00000  Uiso   1.00
C53    C     0.46817   0.59151   0.15838   0.00000  Uiso   1.00
C54    C     0.48886   0.57898   0.13316   0.00000  Uiso   1.00
C55    C     0.59531   0.55781   0.09348   0.00000  Uiso   1.00
C56    C     0.06994   0.72067   0.19673   0.00000  Uiso   1.00
C57    C     0.06011   0.81425   0.21126   0.00000  Uiso   1.00
C58    C     0.89416   0.90361   0.21023   0.00000  Uiso   1.00
C59    C     0.65642   0.07029   0.21516   0.00000  Uiso   1.00
C60    C     0.96062   0.60604   0.16735   0.00000  Uiso   1.00
C61    C     0.01138   0.51141   0.18635   0.00000  Uiso   1.00
C62    C     0.92277   0.42819   0.18922   0.00000  Uiso   1.00
C63    C     0.99014   0.34920   0.20767   0.00000  Uiso   1.00
C64    C     0.14107   0.59549   0.15297   0.00000  Uiso   1.00
C65    C     0.16150   0.58298   0.12776   0.00000  Uiso   1.00
C66    C     0.33803   0.57479   0.11811   0.00000  Uiso   1.00
C67    C     0.91938   0.71649   0.18170   0.00000  Uiso   1.00
C68    C     0.75343   0.80572   0.18065   0.00000  Uiso   1.00
C69    C     0.74334   0.89941   0.19517   0.00000  Uiso   1.00
H70    H     0.35503   0.61701   0.20672   0.00000  Uiso   1.00
H71    H     0.34598   0.43998   0.23146   0.00000  Uiso   1.00
H72    H     0.58465   0.59477   0.17001   0.00000  Uiso   1.00
H73    H     0.17665   0.81746   0.22288   0.00000  Uiso   1.00
H74    H     0.26958   0.24185   0.25225   0.00000  Uiso   1.00
H75    H     0.77283   0.56825   0.12268   0.00000  Uiso   1.00
H76    H     0.91247   0.03786   0.23418   0.00000  Uiso   1.00
H77    H     0.84340   0.60278   0.15565   0.00000  Uiso   1.00
H78    H     0.80626   0.42497   0.17759   0.00000  Uiso   1.00
H79    H     0.04495   0.57975   0.11614   0.00000  Uiso   1.00
H80    H     0.63695   0.80245   0.16901   0.00000  Uiso   1.00
H81    H     0.83154   0.22965   0.20853   0.00000  Uiso   1.00
H82    H     0.33479   0.55607   0.07896   0.00000  Uiso   1.00
H83    H     0.47443   0.02567   0.19045   0.00000  Uiso   1.00
O84    O     0.03540   0.11902   0.24574   0.00000  Uiso   1.00
O85    O     0.69563   0.54727   0.07575   0.00000  Uiso   1.00
O86    O     0.56687   0.16338   0.22203   0.00000  Uiso   1.00
N87    N     0.17156   0.26339   0.23895   0.00000  Uiso   1.00
N88    N     0.64208   0.56854   0.11782   0.00000  Uiso   1.00
N89    N     0.83774   0.00760   0.22205   0.00000  Uiso   1.00
N90    N     0.93585   0.25683   0.21543   0.00000  Uiso   1.00
N91    N     0.40637   0.56198   0.09429   0.00000  Uiso   1.00
N92    N     0.60203   0.00104   0.19852   0.00000  Uiso   1.00
C93    C     0.82685   0.84256   0.94501   0.00000  Uiso   1.00
C94    C     0.65285   0.94073   0.95137   0.00000  Uiso   1.00
C95    C     0.64156   0.01965   0.96981   0.00000  Uiso   1.00
C96    C     0.46977   0.10299   0.97270   0.00000  Uiso   1.00
C97    C     0.22317   0.25482   0.98486   0.00000  Uiso   1.00
C98    C     0.86650   0.85657   0.91797   0.00000  Uiso   1.00
C99    C     0.03485   0.86471   0.90834   0.00000  Uiso   1.00
C100   C     0.04292   0.87718   0.88312   0.00000  Uiso   1.00
C101   C     0.12806   0.89825   0.84343   0.00000  Uiso   1.00
C102   C     0.76590   0.73565   0.94673   0.00000  Uiso   1.00
C103   C     0.84970   0.64210   0.96127   0.00000  Uiso   1.00
C104   C     0.77310   0.55275   0.96026   0.00000  Uiso   1.00
C105   C     0.70204   0.38608   0.96522   0.00000  Uiso   1.00
C106   C     0.54185   0.85022   0.91736   0.00000  Uiso   1.00
C107   C     0.49805   0.94489   0.93635   0.00000  Uiso   1.00
C108   C     0.32624   0.02812   0.93922   0.00000  Uiso   1.00
C109   C     0.31469   0.10715   0.95766   0.00000  Uiso   1.00
C110   C     0.71171   0.86072   0.90296   0.00000  Uiso   1.00
C111   C     0.71953   0.87317   0.87775   0.00000  Uiso   1.00
C112   C     0.88784   0.88134   0.86808   0.00000  Uiso   1.00
C113   C     0.61110   0.73980   0.93172   0.00000  Uiso   1.00
C114   C     0.53437   0.65057   0.93069   0.00000  Uiso   1.00
C115   C     0.61802   0.55691   0.94522   0.00000  Uiso   1.00
H116   H     0.94738   0.83933   0.95669   0.00000  Uiso   1.00
H117   H     0.76140   0.01641   0.98142   0.00000  Uiso   1.00
H118   H     0.15463   0.86148   0.91996   0.00000  Uiso   1.00
H119   H     0.96949   0.63891   0.97289   0.00000  Uiso   1.00
H120   H     0.48695   0.21460   0.00221   0.00000  Uiso   1.00
H121   H     0.31612   0.88788   0.87262   0.00000  Uiso   1.00
H122   H     0.92574   0.41855   0.98422   0.00000  Uiso   1.00
H123   H     0.42133   0.85345   0.90567   0.00000  Uiso   1.00
H124   H     0.20647   0.03132   0.92760   0.00000  Uiso   1.00
H125   H     0.59971   0.87638   0.86614   0.00000  Uiso   1.00
H126   H     0.41457   0.65382   0.91906   0.00000  Uiso   1.00
H127   H     0.03655   0.22670   0.95852   0.00000  Uiso   1.00
H128   H     0.86574   0.89997   0.82893   0.00000  Uiso   1.00
H129   H     0.47534   0.43065   0.94053   0.00000  Uiso   1.00
O130   O     0.12992   0.33743   0.99571   0.00000  Uiso   1.00
O131   O     0.21778   0.90875   0.82569   0.00000  Uiso   1.00
O132   O     0.70560   0.29301   0.97211   0.00000  Uiso   1.00
N133   N     0.41042   0.19303   0.98892   0.00000  Uiso   1.00
N134   N     0.18564   0.88758   0.86776   0.00000  Uiso   1.00
N135   N     0.82070   0.44878   0.97209   0.00000  Uiso   1.00
N136   N     0.16807   0.19954   0.96541   0.00000  Uiso   1.00
N137   N     0.94329   0.89408   0.84425   0.00000  Uiso   1.00
N138   N     0.57834   0.45529   0.94859   0.00000  Uiso   1.00
C139   C     0.26022   0.12511   0.55544   0.00000  Uiso   1.00
C140   C     0.18436   0.02696   0.54908   0.00000  Uiso   1.00
C141   C     0.25191   0.94807   0.53064   0.00000  Uiso   1.00
C142   C     0.16345   0.86474   0.52774   0.00000  Uiso   1.00
C143   C     0.06862   0.71293   0.51559   0.00000  Uiso   1.00
C144   C     0.31400   0.11107   0.58247   0.00000  Uiso   1.00
C145   C     0.49053   0.10291   0.59210   0.00000  Uiso   1.00
C146   C     0.51118   0.09040   0.61731   0.00000  Uiso   1.00
C147   C     0.61758   0.06925   0.65699   0.00000  Uiso   1.00
C148   C     0.09235   0.23203   0.55373   0.00000  Uiso   1.00
C149   C     0.08253   0.32561   0.53920   0.00000  Uiso   1.00
C150   C     0.91658   0.41496   0.54022   0.00000  Uiso   1.00
C151   C     0.67884   0.58163   0.53529   0.00000  Uiso   1.00
C152   C     0.98300   0.11741   0.58311   0.00000  Uiso   1.00
C153   C     0.03379   0.02278   0.56411   0.00000  Uiso   1.00
C154   C     0.94519   0.93955   0.56124   0.00000  Uiso   1.00
C155   C     0.01259   0.86055   0.54279   0.00000  Uiso   1.00
C156   C     0.16343   0.10688   0.59750   0.00000  Uiso   1.00
C157   C     0.18382   0.09439   0.62270   0.00000  Uiso   1.00
C158   C     0.36034   0.08621   0.63236   0.00000  Uiso   1.00
C159   C     0.94177   0.22785   0.56876   0.00000  Uiso   1.00
C160   C     0.77581   0.31708   0.56981   0.00000  Uiso   1.00
C161   C     0.76574   0.41077   0.55528   0.00000  Uiso   1.00
H162   H     0.37746   0.12837   0.54375   0.00000  Uiso   1.00
H163   H     0.36845   0.95133   0.51901   0.00000  Uiso   1.00
H164   H     0.60702   0.10616   0.58046   0.00000  Uiso   1.00
H165   H     0.19908   0.32881   0.52758   0.00000  Uiso   1.00
H166   H     0.29211   0.75317   0.49822   0.00000  Uiso   1.00
H167   H     0.79513   0.07968   0.62779   0.00000  Uiso   1.00
H168   H     0.93491   0.54920   0.51627   0.00000  Uiso   1.00
H169   H     0.86577   0.11416   0.59481   0.00000  Uiso   1.00
H170   H     0.82867   0.93633   0.57287   0.00000  Uiso   1.00
H171   H     0.06726   0.09116   0.63432   0.00000  Uiso   1.00
H172   H     0.65932   0.31381   0.58144   0.00000  Uiso   1.00
H173   H     0.85401   0.74100   0.54194   0.00000  Uiso   1.00
H174   H     0.35704   0.06751   0.67151   0.00000  Uiso   1.00
H175   H     0.49682   0.53702   0.55999   0.00000  Uiso   1.00
O176   O     0.05793   0.63034   0.50473   0.00000  Uiso   1.00
O177   O     0.71787   0.05873   0.67473   0.00000  Uiso   1.00
O178   O     0.58929   0.67472   0.52841   0.00000  Uiso   1.00
N179   N     0.19406   0.77472   0.51152   0.00000  Uiso   1.00
N180   N     0.66438   0.07997   0.63266   0.00000  Uiso   1.00
N181   N     0.86016   0.51894   0.52840   0.00000  Uiso   1.00
N182   N     0.95833   0.76817   0.53504   0.00000  Uiso   1.00
N183   N     0.42864   0.07342   0.65618   0.00000  Uiso   1.00
N184   N     0.62442   0.51239   0.55192   0.00000  Uiso   1.00
C185   C     0.38184   0.32406   0.30546   0.00000  Uiso   1.00
C186   C     0.20786   0.42224   0.29910   0.00000  Uiso   1.00
C187   C     0.19660   0.50118   0.28067   0.00000  Uiso   1.00
C188   C     0.02483   0.58453   0.27777   0.00000  Uiso   1.00
C189   C     0.77825   0.73638   0.26562   0.00000  Uiso   1.00
C190   C     0.42146   0.33803   0.33250   0.00000  Uiso   1.00
C191   C     0.58981   0.34616   0.34214   0.00000  Uiso   1.00
C192   C     0.59784   0.35860   0.36735   0.00000  Uiso   1.00
C193   C     0.68293   0.37963   0.40705   0.00000  Uiso   1.00
C194   C     0.32088   0.21715   0.30373   0.00000  Uiso   1.00
C195   C     0.40469   0.12362   0.28918   0.00000  Uiso   1.00
C196   C     0.32807   0.03427   0.29018   0.00000  Uiso   1.00
C197   C     0.25700   0.86762   0.28521   0.00000  Uiso   1.00
C198   C     0.09680   0.33170   0.33310   0.00000  Uiso   1.00
C199   C     0.05304   0.42639   0.31411   0.00000  Uiso   1.00
C200   C     0.88123   0.50963   0.31124   0.00000  Uiso   1.00
C201   C     0.86972   0.58868   0.29280   0.00000  Uiso   1.00
C202   C     0.26665   0.34218   0.34751   0.00000  Uiso   1.00
C203   C     0.27444   0.35461   0.37271   0.00000  Uiso   1.00
C204   C     0.44274   0.36275   0.38239   0.00000  Uiso   1.00
C205   C     0.16606   0.22130   0.31874   0.00000  Uiso   1.00
C206   C     0.08931   0.13207   0.31976   0.00000  Uiso   1.00
C207   C     0.17297   0.03843   0.30522   0.00000  Uiso   1.00
H208   H     0.50239   0.32083   0.29378   0.00000  Uiso   1.00
H209   H     0.31646   0.49795   0.26905   0.00000  Uiso   1.00
H210   H     0.70960   0.34293   0.33052   0.00000  Uiso   1.00
H211   H     0.52449   0.12044   0.27757   0.00000  Uiso   1.00
H212   H     0.04206   0.69617   0.24827   0.00000  Uiso   1.00
H213   H     0.87104   0.36927   0.37787   0.00000  Uiso   1.00
H214   H     0.48073   0.90009   0.26622   0.00000  Uiso   1.00
H215   H     0.97626   0.33493   0.34478   0.00000  Uiso   1.00
H216   H     0.76145   0.51282   0.32286   0.00000  Uiso   1.00
H217   H     0.15460   0.35781   0.38432   0.00000  Uiso   1.00
H218   H     0.96950   0.13531   0.33138   0.00000  Uiso   1.00
H219   H     0.59160   0.70825   0.29194   0.00000  Uiso   1.00
H220   H     0.42059   0.38134   0.42154   0.00000  Uiso   1.00
H221   H     0.03027   0.91217   0.30989   0.00000  Uiso   1.00
O222   O     0.68503   0.81900   0.25477   0.00000  Uiso   1.00
O223   O     0.77264   0.39010   0.42480   0.00000  Uiso   1.00
O224   O     0.26055   0.77455   0.27832   0.00000  Uiso   1.00
N225   N     0.96551   0.67459   0.26156   0.00000  Uiso   1.00
N226   N     0.74055   0.36897   0.38272   0.00000  Uiso   1.00
N227   N     0.37567   0.93032   0.27835   0.00000  Uiso   1.00
N228   N     0.72312   0.68108   0.28505   0.00000  Uiso   1.00
N229   N     0.49816   0.37547   0.40622   0.00000  Uiso   1.00
N230   N     0.13328   0.93681   0.30184   0.00000  Uiso   1.00
C231   C     0.70393   0.64422   0.69500   0.00000  Uiso   1.00
C232   C     0.62813   0.54604   0.70136   0.00000  Uiso   1.00
C233   C     0.69583   0.46709   0.71979   0.00000  Uiso   1.00
C234   C     0.60741   0.38374   0.72269   0.00000  Uiso   1.00
C235   C     0.51270   0.23189   0.73484   0.00000  Uiso   1.00
C236   C     0.75749   0.63026   0.66796   0.00000  Uiso   1.00
C237   C     0.93395   0.62214   0.65832   0.00000  Uiso   1.00
C238   C     0.95440   0.60971   0.63310   0.00000  Uiso   1.00
C239   C     0.06048   0.58869   0.59341   0.00000  Uiso   1.00
C240   C     0.53606   0.75113   0.69674   0.00000  Uiso   1.00
C241   C     0.52635   0.84466   0.71128   0.00000  Uiso   1.00
C242   C     0.36038   0.93400   0.71029   0.00000  Uiso   1.00
C243   C     0.12266   0.10066   0.71526   0.00000  Uiso   1.00
C244   C     0.42650   0.63659   0.66737   0.00000  Uiso   1.00
C245   C     0.47745   0.54190   0.68635   0.00000  Uiso   1.00
C246   C     0.38888   0.45865   0.68922   0.00000  Uiso   1.00
C247   C     0.45644   0.37960   0.70766   0.00000  Uiso   1.00
C248   C     0.60681   0.62612   0.65296   0.00000  Uiso   1.00
C249   C     0.62700   0.61370   0.62775   0.00000  Uiso   1.00
C250   C     0.80344   0.60556   0.61807   0.00000  Uiso   1.00
C251   C     0.38536   0.74699   0.68173   0.00000  Uiso   1.00
C252   C     0.21939   0.83621   0.68071   0.00000  Uiso   1.00
C253   C     0.20942   0.92986   0.69525   0.00000  Uiso   1.00
H254   H     0.82126   0.64744   0.70668   0.00000  Uiso   1.00
H255   H     0.81247   0.47032   0.73140   0.00000  Uiso   1.00
H256   H     0.05053   0.62536   0.66994   0.00000  Uiso   1.00
H257   H     0.64299   0.84783   0.72289   0.00000  Uiso   1.00
H258   H     0.73631   0.27209   0.75218   0.00000  Uiso   1.00
H259   H     0.23826   0.59904   0.62258   0.00000  Uiso   1.00
H260   H     0.37889   0.06817   0.73425   0.00000  Uiso   1.00
H261   H     0.30917   0.63337   0.65568   0.00000  Uiso   1.00
H262   H     0.27227   0.45547   0.67761   0.00000  Uiso   1.00
H263   H     0.51035   0.61051   0.61614   0.00000  Uiso   1.00
H264   H     0.10281   0.83298   0.66910   0.00000  Uiso   1.00
H265   H     0.29788   0.26003   0.70852   0.00000  Uiso   1.00
H266   H     0.79983   0.58699   0.57892   0.00000  Uiso   1.00
H267   H     0.94045   0.05612   0.69058   0.00000  Uiso   1.00
O268   O     0.50211   0.14926   0.74569   0.00000  Uiso   1.00
O269   O     0.16063   0.57823   0.57566   0.00000  Uiso   1.00
O270   O     0.03316   0.19372   0.72216   0.00000  Uiso   1.00
N271   N     0.63816   0.29368   0.73890   0.00000  Uiso   1.00
N272   N     0.10747   0.59934   0.61773   0.00000  Uiso   1.00
N273   N     0.30405   0.03795   0.72213   0.00000  Uiso   1.00
N274   N     0.40225   0.28719   0.71541   0.00000  Uiso   1.00
N275   N     0.87155   0.59285   0.59424   0.00000  Uiso   1.00
N276   N     0.06813   0.03147   0.69863   0.00000  Uiso   1.00
C277   C     0.40469   0.83580   0.44502   0.00000  Uiso   1.00
C278   C     0.23068   0.93396   0.45138   0.00000  Uiso   1.00
C279   C     0.21936   0.01287   0.46982   0.00000  Uiso   1.00
C280   C     0.04758   0.09620   0.47272   0.00000  Uiso   1.00
C281   C     0.80096   0.24803   0.48487   0.00000  Uiso   1.00
C282   C     0.44438   0.84982   0.41799   0.00000  Uiso   1.00
C283   C     0.61275   0.85797   0.40836   0.00000  Uiso   1.00
C284   C     0.62086   0.87046   0.38314   0.00000  Uiso   1.00
C285   C     0.70606   0.89157   0.34346   0.00000  Uiso   1.00
C286   C     0.34373   0.72888   0.44673   0.00000  Uiso   1.00
C287   C     0.42750   0.63532   0.46127   0.00000  Uiso   1.00
C288   C     0.35089   0.54597   0.46025   0.00000  Uiso   1.00
C289   C     0.27982   0.37930   0.46520   0.00000  Uiso   1.00
C290   C     0.11973   0.84348   0.41736   0.00000  Uiso   1.00
C291   C     0.07591   0.93813   0.43635   0.00000  Uiso   1.00
C292   C     0.90409   0.02137   0.43922   0.00000  Uiso   1.00
C293   C     0.89251   0.10038   0.45767   0.00000  Uiso   1.00
C294   C     0.28961   0.85400   0.40296   0.00000  Uiso   1.00
C295   C     0.29748   0.86647   0.37776   0.00000  Uiso   1.00
C296   C     0.46581   0.87464   0.36810   0.00000  Uiso   1.00
C297   C     0.18895   0.73305   0.43171   0.00000  Uiso   1.00
C298   C     0.11221   0.64383   0.43067   0.00000  Uiso   1.00
C299   C     0.19584   0.55015   0.44520   0.00000  Uiso   1.00
H300   H     0.52520   0.83255   0.45671   0.00000  Uiso   1.00
H301   H     0.33918   0.00962   0.48144   0.00000  Uiso   1.00
H302   H     0.73251   0.85473   0.41999   0.00000  Uiso   1.00
H303   H     0.54727   0.63212   0.47289   0.00000  Uiso   1.00
H304   H     0.06471   0.20779   0.50223   0.00000  Uiso   1.00
H305   H     0.89409   0.88117   0.37265   0.00000  Uiso   1.00
H306   H     0.50349   0.41175   0.48421   0.00000  Uiso   1.00
H307   H     0.99923   0.84673   0.40567   0.00000  Uiso   1.00
H308   H     0.78434   0.02458   0.42760   0.00000  Uiso   1.00
H309   H     0.17768   0.86969   0.36614   0.00000  Uiso   1.00
H310   H     0.99244   0.64709   0.41905   0.00000  Uiso   1.00
H311   H     0.61438   0.21994   0.45853   0.00000  Uiso   1.00
H312   H     0.44377   0.89331   0.32895   0.00000  Uiso   1.00
H313   H     0.05316   0.42390   0.44050   0.00000  Uiso   1.00
O314   O     0.70770   0.33062   0.49572   0.00000  Uiso   1.00
O315   O     0.79582   0.90208   0.32572   0.00000  Uiso   1.00
O316   O     0.28336   0.28623   0.47208   0.00000  Uiso   1.00
N317   N     0.98820   0.18623   0.48894   0.00000  Uiso   1.00
N318   N     0.76361   0.88087   0.36779   0.00000  Uiso   1.00
N319   N     0.39847   0.44199   0.47208   0.00000  Uiso   1.00
N320   N     0.74589   0.19276   0.46542   0.00000  Uiso   1.00
N321   N     0.52130   0.88741   0.34427   0.00000  Uiso   1.00
N322   N     0.15615   0.44853   0.44856   0.00000  Uiso   1.00
C323   C     0.68151   0.13285   0.05546   0.00000  Uiso   1.00
C324   C     0.60570   0.03468   0.04910   0.00000  Uiso   1.00
C325   C     0.67337   0.95574   0.03067   0.00000  Uiso   1.00
C326   C     0.58493   0.87240   0.02777   0.00000  Uiso   1.00
C327   C     0.49019   0.72056   0.01562   0.00000  Uiso   1.00
C328   C     0.73511   0.11887   0.08250   0.00000  Uiso   1.00
C329   C     0.91158   0.11074   0.09214   0.00000  Uiso   1.00
C330   C     0.93207   0.09830   0.11735   0.00000  Uiso   1.00
C331   C     0.03821   0.07725   0.15705   0.00000  Uiso   1.00
C332   C     0.51365   0.23977   0.05373   0.00000  Uiso   1.00
C333   C     0.50392   0.33331   0.03919   0.00000  Uiso   1.00
C334   C     0.33796   0.42265   0.04019   0.00000  Uiso   1.00
C335   C     0.10024   0.58932   0.03522   0.00000  Uiso   1.00
C336   C     0.40411   0.12522   0.08310   0.00000  Uiso   1.00
C337   C     0.45503   0.03053   0.06411   0.00000  Uiso   1.00
C338   C     0.36645   0.94729   0.06124   0.00000  Uiso   1.00
C339   C     0.43398   0.86825   0.04280   0.00000  Uiso   1.00
C340   C     0.58445   0.11473   0.09751   0.00000  Uiso   1.00
C341   C     0.60467   0.10230   0.12271   0.00000  Uiso   1.00
C342   C     0.78113   0.09414   0.13239   0.00000  Uiso   1.00
C343   C     0.36297   0.23562   0.06874   0.00000  Uiso   1.00
C344   C     0.19700   0.32485   0.06976   0.00000  Uiso   1.00
C345   C     0.18702   0.41850   0.05523   0.00000  Uiso   1.00
H346   H     0.79883   0.13608   0.04378   0.00000  Uiso   1.00
H347   H     0.78999   0.95897   0.01905   0.00000  Uiso   1.00
H348   H     0.02815   0.11397   0.08052   0.00000  Uiso   1.00
H349   H     0.62055   0.33648   0.02757   0.00000  Uiso   1.00
H350   H     0.71378   0.76076   0.99827   0.00000  Uiso   1.00
H351   H     0.21595   0.08761   0.12787   0.00000  Uiso   1.00
H352   H     0.35644   0.55684   0.01623   0.00000  Uiso   1.00
H353   H     0.28681   0.12199   0.09479   0.00000  Uiso   1.00
H354   H     0.24986   0.94411   0.07286   0.00000  Uiso   1.00
H355   H     0.48804   0.09910   0.13432   0.00000  Uiso   1.00
H356   H     0.08043   0.32161   0.08138   0.00000  Uiso   1.00
H357   H     0.27541   0.74869   0.04194   0.00000  Uiso   1.00
H358   H     0.77758   0.07555   0.17154   0.00000  Uiso   1.00
H359   H     0.91807   0.54477   0.05990   0.00000  Uiso   1.00
O360   O     0.47957   0.63794   0.00477   0.00000  Uiso   1.00
O361   O     0.13839   0.06678   0.17480   0.00000  Uiso   1.00
O362   O     0.01073   0.68238   0.02833   0.00000  Uiso   1.00
N363   N     0.61566   0.78235   0.01155   0.00000  Uiso   1.00
N364   N     0.08516   0.08791   0.13272   0.00000  Uiso   1.00
N365   N     0.28162   0.52661   0.02835   0.00000  Uiso   1.00
N366   N     0.37977   0.77585   0.03505   0.00000  Uiso   1.00
N367   N     0.84927   0.08142   0.15622   0.00000  Uiso   1.00
N368   N     0.04573   0.52012   0.05185   0.00000  Uiso   1.00
