data_job_02582
_audit_creation_date              2018-12-19
_audit_creation_method            'Materials Studio'
_symmetry_space_group_name_H-M    'P1'
_symmetry_Int_Tables_number       1
_symmetry_cell_setting            triclinic
loop_
_symmetry_equiv_pos_as_xyz
  x,y,z
_cell_length_a                    12.4828
_cell_length_b                    19.6188
_cell_length_c                    11.4983
_cell_angle_alpha                 90.0000
_cell_angle_beta                  64.5043
_cell_angle_gamma                 90.0000
loop_
_atom_site_label
_atom_site_type_symbol
_atom_site_fract_x
_atom_site_fract_y
_atom_site_fract_z
_atom_site_U_iso_or_equiv
_atom_site_adp_type
_atom_site_occupancy
C1     C     0.04322   0.86103   0.45339   0.00000  Uiso   1.00
C2     C     0.01123   0.78863   0.43166   0.00000  Uiso   1.00
C3     C     0.97182   0.76905   0.34072   0.00000  Uiso   1.00
C4     C     0.94722   0.70035   0.33607   0.00000  Uiso   1.00
C5     C     0.89531   0.59514   0.28969   0.00000  Uiso   1.00
C6     C     0.96603   0.87697   0.59495   0.00000  Uiso   1.00
C7     C     0.88863   0.93167   0.64129   0.00000  Uiso   1.00
C8     C     0.82599   0.93735   0.77410   0.00000  Uiso   1.00
C9     C     0.70397   0.96932   0.98123   0.00000  Uiso   1.00
C10    C     0.17047   0.85775   0.43873   0.00000  Uiso   1.00
C11    C     0.26496   0.89630   0.35374   0.00000  Uiso   1.00
C12    C     0.37444   0.88581   0.35504   0.00000  Uiso   1.00
C13    C     0.56985   0.88794   0.31962   0.00000  Uiso   1.00
C14    C     0.06962   0.77385   0.60684   0.00000  Uiso   1.00
C15    C     0.02557   0.74127   0.51501   0.00000  Uiso   1.00
C16    C     0.00102   0.67259   0.51049   0.00000  Uiso   1.00
C17    C     0.96158   0.65291   0.41956   0.00000  Uiso   1.00
C18    C     0.98037   0.82962   0.67830   0.00000  Uiso   1.00
C19    C     0.91783   0.83522   0.81107   0.00000  Uiso   1.00
C20    C     0.84035   0.88991   0.85760   0.00000  Uiso   1.00
C21    C     0.18481   0.81039   0.52207   0.00000  Uiso   1.00
C22    C     0.29416   0.79984   0.52351   0.00000  Uiso   1.00
C23    C     0.38880   0.83837   0.43855   0.00000  Uiso   1.00
H24    H     0.03205   0.89790   0.38851   0.00000  Uiso   1.00
H25    H     0.96073   0.80571   0.27624   0.00000  Uiso   1.00
H26    H     0.87756   0.96831   0.57677   0.00000  Uiso   1.00
H27    H     0.25383   0.93294   0.28926   0.00000  Uiso   1.00
H28    H     0.88793   0.68262   0.18856   0.00000  Uiso   1.00
H29    H     0.71260   0.02549   0.82224   0.00000  Uiso   1.00
H30    H     0.50604   0.95092   0.21598   0.00000  Uiso   1.00
H31    H     0.08078   0.73698   0.67174   0.00000  Uiso   1.00
H32    H     0.01213   0.63596   0.57501   0.00000  Uiso   1.00
H33    H     0.92895   0.79856   0.87554   0.00000  Uiso   1.00
H34    H     0.30523   0.76320   0.58803   0.00000  Uiso   1.00
H35    H     0.92964   0.54485   0.43106   0.00000  Uiso   1.00
H36    H     0.75431   0.88772   0.06474   0.00000  Uiso   1.00
H37    H     0.54776   0.81314   0.45847   0.00000  Uiso   1.00
O38    O     0.86270   0.55019   0.24110   0.00000  Uiso   1.00
O39    O     0.63269   0.00003   0.07246   0.00000  Uiso   1.00
O40    O     0.67368   0.90218   0.27705   0.00000  Uiso   1.00
N41    N     0.90719   0.66406   0.25889   0.00000  Uiso   1.00
N42    N     0.74325   0.98462   0.85134   0.00000  Uiso   1.00
N43    N     0.48505   0.91491   0.28456   0.00000  Uiso   1.00
N44    N     0.92964   0.58992   0.38937   0.00000  Uiso   1.00
N45    N     0.76569   0.91048   0.98183   0.00000  Uiso   1.00
N46    N     0.50750   0.84077   0.41504   0.00000  Uiso   1.00
C47    C     0.54322   0.36103   0.45339   0.00000  Uiso   1.00
C48    C     0.51123   0.28863   0.43166   0.00000  Uiso   1.00
C49    C     0.47182   0.26905   0.34072   0.00000  Uiso   1.00
C50    C     0.44722   0.20035   0.33607   0.00000  Uiso   1.00
C51    C     0.39531   0.09514   0.28969   0.00000  Uiso   1.00
C52    C     0.46603   0.37697   0.59495   0.00000  Uiso   1.00
C53    C     0.38863   0.43167   0.64129   0.00000  Uiso   1.00
C54    C     0.32599   0.43735   0.77410   0.00000  Uiso   1.00
C55    C     0.20397   0.46932   0.98123   0.00000  Uiso   1.00
C56    C     0.67047   0.35775   0.43873   0.00000  Uiso   1.00
C57    C     0.76496   0.39630   0.35374   0.00000  Uiso   1.00
C58    C     0.87444   0.38581   0.35504   0.00000  Uiso   1.00
C59    C     0.06985   0.38794   0.31962   0.00000  Uiso   1.00
C60    C     0.56962   0.27385   0.60684   0.00000  Uiso   1.00
C61    C     0.52557   0.24127   0.51501   0.00000  Uiso   1.00
C62    C     0.50102   0.17259   0.51049   0.00000  Uiso   1.00
C63    C     0.46158   0.15291   0.41956   0.00000  Uiso   1.00
C64    C     0.48037   0.32962   0.67830   0.00000  Uiso   1.00
C65    C     0.41783   0.33522   0.81107   0.00000  Uiso   1.00
C66    C     0.34035   0.38991   0.85760   0.00000  Uiso   1.00
C67    C     0.68481   0.31039   0.52207   0.00000  Uiso   1.00
C68    C     0.79416   0.29984   0.52351   0.00000  Uiso   1.00
C69    C     0.88880   0.33837   0.43855   0.00000  Uiso   1.00
H70    H     0.53205   0.39790   0.38851   0.00000  Uiso   1.00
H71    H     0.46073   0.30571   0.27624   0.00000  Uiso   1.00
H72    H     0.37756   0.46831   0.57677   0.00000  Uiso   1.00
H73    H     0.75383   0.43294   0.28926   0.00000  Uiso   1.00
H74    H     0.38793   0.18262   0.18856   0.00000  Uiso   1.00
H75    H     0.21260   0.52549   0.82224   0.00000  Uiso   1.00
H76    H     0.00604   0.45092   0.21598   0.00000  Uiso   1.00
H77    H     0.58078   0.23698   0.67174   0.00000  Uiso   1.00
H78    H     0.51213   0.13596   0.57501   0.00000  Uiso   1.00
H79    H     0.42895   0.29856   0.87554   0.00000  Uiso   1.00
H80    H     0.80523   0.26320   0.58803   0.00000  Uiso   1.00
H81    H     0.42964   0.04485   0.43106   0.00000  Uiso   1.00
H82    H     0.25431   0.38772   0.06474   0.00000  Uiso   1.00
H83    H     0.04776   0.31314   0.45847   0.00000  Uiso   1.00
O84    O     0.36270   0.05019   0.24110   0.00000  Uiso   1.00
O85    O     0.13269   0.50003   0.07246   0.00000  Uiso   1.00
O86    O     0.17368   0.40218   0.27705   0.00000  Uiso   1.00
N87    N     0.40719   0.16406   0.25889   0.00000  Uiso   1.00
N88    N     0.24325   0.48462   0.85134   0.00000  Uiso   1.00
N89    N     0.98505   0.41491   0.28456   0.00000  Uiso   1.00
N90    N     0.42964   0.08992   0.38937   0.00000  Uiso   1.00
N91    N     0.26569   0.41048   0.98183   0.00000  Uiso   1.00
N92    N     0.00750   0.34077   0.41504   0.00000  Uiso   1.00
C93    C     0.04322   0.13897   0.95339   0.00000  Uiso   1.00
C94    C     0.01123   0.21137   0.93166   0.00000  Uiso   1.00
C95    C     0.97182   0.23095   0.84072   0.00000  Uiso   1.00
C96    C     0.94722   0.29965   0.83607   0.00000  Uiso   1.00
C97    C     0.89531   0.40486   0.78969   0.00000  Uiso   1.00
C98    C     0.96603   0.12303   0.09495   0.00000  Uiso   1.00
C99    C     0.88863   0.06833   0.14129   0.00000  Uiso   1.00
C100   C     0.82599   0.06265   0.27410   0.00000  Uiso   1.00
C101   C     0.70397   0.03068   0.48123   0.00000  Uiso   1.00
C102   C     0.17047   0.14225   0.93873   0.00000  Uiso   1.00
C103   C     0.26496   0.10370   0.85374   0.00000  Uiso   1.00
C104   C     0.37444   0.11419   0.85504   0.00000  Uiso   1.00
C105   C     0.56985   0.11206   0.81962   0.00000  Uiso   1.00
C106   C     0.06962   0.22615   0.10684   0.00000  Uiso   1.00
C107   C     0.02557   0.25873   0.01501   0.00000  Uiso   1.00
C108   C     0.00102   0.32741   0.01049   0.00000  Uiso   1.00
C109   C     0.96158   0.34709   0.91956   0.00000  Uiso   1.00
C110   C     0.98037   0.17038   0.17830   0.00000  Uiso   1.00
C111   C     0.91783   0.16478   0.31107   0.00000  Uiso   1.00
C112   C     0.84035   0.11009   0.35760   0.00000  Uiso   1.00
C113   C     0.18481   0.18961   0.02207   0.00000  Uiso   1.00
C114   C     0.29416   0.20016   0.02351   0.00000  Uiso   1.00
C115   C     0.38880   0.16163   0.93855   0.00000  Uiso   1.00
H116   H     0.03205   0.10210   0.88851   0.00000  Uiso   1.00
H117   H     0.96073   0.19429   0.77624   0.00000  Uiso   1.00
H118   H     0.87756   0.03169   0.07677   0.00000  Uiso   1.00
H119   H     0.25383   0.06706   0.78926   0.00000  Uiso   1.00
H120   H     0.88793   0.31738   0.68856   0.00000  Uiso   1.00
H121   H     0.71260   0.97451   0.32224   0.00000  Uiso   1.00
H122   H     0.50604   0.04908   0.71598   0.00000  Uiso   1.00
H123   H     0.08078   0.26302   0.17174   0.00000  Uiso   1.00
H124   H     0.01213   0.36404   0.07501   0.00000  Uiso   1.00
H125   H     0.92895   0.20144   0.37554   0.00000  Uiso   1.00
H126   H     0.30523   0.23680   0.08803   0.00000  Uiso   1.00
H127   H     0.92964   0.45515   0.93106   0.00000  Uiso   1.00
H128   H     0.75431   0.11228   0.56474   0.00000  Uiso   1.00
H129   H     0.54776   0.18686   0.95847   0.00000  Uiso   1.00
O130   O     0.86270   0.44981   0.74110   0.00000  Uiso   1.00
O131   O     0.63269   0.99997   0.57246   0.00000  Uiso   1.00
O132   O     0.67368   0.09782   0.77705   0.00000  Uiso   1.00
N133   N     0.90719   0.33594   0.75889   0.00000  Uiso   1.00
N134   N     0.74325   0.01538   0.35134   0.00000  Uiso   1.00
N135   N     0.48505   0.08509   0.78456   0.00000  Uiso   1.00
N136   N     0.92964   0.41008   0.88937   0.00000  Uiso   1.00
N137   N     0.76569   0.08952   0.48183   0.00000  Uiso   1.00
N138   N     0.50750   0.15923   0.91504   0.00000  Uiso   1.00
C139   C     0.54322   0.63897   0.95339   0.00000  Uiso   1.00
C140   C     0.51123   0.71137   0.93166   0.00000  Uiso   1.00
C141   C     0.47182   0.73095   0.84072   0.00000  Uiso   1.00
C142   C     0.44722   0.79965   0.83607   0.00000  Uiso   1.00
C143   C     0.39531   0.90486   0.78969   0.00000  Uiso   1.00
C144   C     0.46603   0.62303   0.09495   0.00000  Uiso   1.00
C145   C     0.38863   0.56833   0.14129   0.00000  Uiso   1.00
C146   C     0.32599   0.56265   0.27410   0.00000  Uiso   1.00
C147   C     0.20397   0.53068   0.48123   0.00000  Uiso   1.00
C148   C     0.67047   0.64225   0.93873   0.00000  Uiso   1.00
C149   C     0.76496   0.60370   0.85374   0.00000  Uiso   1.00
C150   C     0.87444   0.61419   0.85504   0.00000  Uiso   1.00
C151   C     0.06985   0.61206   0.81962   0.00000  Uiso   1.00
C152   C     0.56962   0.72615   0.10684   0.00000  Uiso   1.00
C153   C     0.52557   0.75873   0.01501   0.00000  Uiso   1.00
C154   C     0.50102   0.82741   0.01049   0.00000  Uiso   1.00
C155   C     0.46158   0.84709   0.91956   0.00000  Uiso   1.00
C156   C     0.48037   0.67038   0.17830   0.00000  Uiso   1.00
C157   C     0.41783   0.66478   0.31107   0.00000  Uiso   1.00
C158   C     0.34035   0.61009   0.35760   0.00000  Uiso   1.00
C159   C     0.68481   0.68961   0.02207   0.00000  Uiso   1.00
C160   C     0.79416   0.70016   0.02351   0.00000  Uiso   1.00
C161   C     0.88880   0.66163   0.93855   0.00000  Uiso   1.00
H162   H     0.53205   0.60210   0.88851   0.00000  Uiso   1.00
H163   H     0.46073   0.69429   0.77624   0.00000  Uiso   1.00
H164   H     0.37756   0.53169   0.07677   0.00000  Uiso   1.00
H165   H     0.75383   0.56706   0.78926   0.00000  Uiso   1.00
H166   H     0.38793   0.81738   0.68856   0.00000  Uiso   1.00
H167   H     0.21260   0.47451   0.32224   0.00000  Uiso   1.00
H168   H     0.00604   0.54908   0.71598   0.00000  Uiso   1.00
H169   H     0.58078   0.76302   0.17174   0.00000  Uiso   1.00
H170   H     0.51213   0.86404   0.07501   0.00000  Uiso   1.00
H171   H     0.42895   0.70144   0.37554   0.00000  Uiso   1.00
H172   H     0.80523   0.73680   0.08803   0.00000  Uiso   1.00
H173   H     0.42964   0.95515   0.93106   0.00000  Uiso   1.00
H174   H     0.25431   0.61228   0.56474   0.00000  Uiso   1.00
H175   H     0.04776   0.68686   0.95847   0.00000  Uiso   1.00
O176   O     0.36270   0.94981   0.74110   0.00000  Uiso   1.00
O177   O     0.13269   0.49997   0.57246   0.00000  Uiso   1.00
O178   O     0.17368   0.59782   0.77705   0.00000  Uiso   1.00
N179   N     0.40719   0.83594   0.75889   0.00000  Uiso   1.00
N180   N     0.24325   0.51538   0.35134   0.00000  Uiso   1.00
N181   N     0.98505   0.58509   0.78456   0.00000  Uiso   1.00
N182   N     0.42964   0.91008   0.88937   0.00000  Uiso   1.00
N183   N     0.26569   0.58952   0.48183   0.00000  Uiso   1.00
N184   N     0.00750   0.65923   0.91504   0.00000  Uiso   1.00
