data_job_00790
_audit_creation_date              2018-12-19
_audit_creation_method            'Materials Studio'
_symmetry_space_group_name_H-M    'P1'
_symmetry_Int_Tables_number       1
_symmetry_cell_setting            triclinic
loop_
_symmetry_equiv_pos_as_xyz
  x,y,z
_cell_length_a                    30.0858
_cell_length_b                    14.7370
_cell_length_c                    9.5996
_cell_angle_alpha                 90.0000
_cell_angle_beta                  90.0000
_cell_angle_gamma                 90.0000
loop_
_atom_site_label
_atom_site_type_symbol
_atom_site_fract_x
_atom_site_fract_y
_atom_site_fract_z
_atom_site_U_iso_or_equiv
_atom_site_adp_type
_atom_site_occupancy
C1     C     0.59759   0.16399   0.64585   0.00000  Uiso   1.00
C2     C     0.64494   0.13702   0.68460   0.00000  Uiso   1.00
C3     C     0.65682   0.06512   0.77021   0.00000  Uiso   1.00
C4     C     0.70192   0.05165   0.79291   0.00000  Uiso   1.00
C5     C     0.77056   0.00122   0.86238   0.00000  Uiso   1.00
C6     C     0.59253   0.26301   0.68915   0.00000  Uiso   1.00
C7     C     0.56034   0.29704   0.77857   0.00000  Uiso   1.00
C8     C     0.56132   0.38963   0.80508   0.00000  Uiso   1.00
C9     C     0.54858   0.53481   0.88153   0.00000  Uiso   1.00
C10    C     0.59571   0.16317   0.48712   0.00000  Uiso   1.00
C11    C     0.56619   0.11328   0.40666   0.00000  Uiso   1.00
C12    C     0.56984   0.12184   0.26308   0.00000  Uiso   1.00
C13    C     0.56204   0.11200   0.02584   0.00000  Uiso   1.00
C14    C     0.65655   0.26793   0.53392   0.00000  Uiso   1.00
C15    C     0.67697   0.19348   0.62380   0.00000  Uiso   1.00
C16    C     0.72206   0.18012   0.64637   0.00000  Uiso   1.00
C17    C     0.73400   0.10821   0.73200   0.00000  Uiso   1.00
C18    C     0.62456   0.31947   0.62836   0.00000  Uiso   1.00
C19    C     0.62558   0.41204   0.65473   0.00000  Uiso   1.00
C20    C     0.59340   0.44619   0.74418   0.00000  Uiso   1.00
C21    C     0.62774   0.21963   0.42632   0.00000  Uiso   1.00
C22    C     0.63143   0.22827   0.28283   0.00000  Uiso   1.00
C23    C     0.60192   0.17840   0.20217   0.00000  Uiso   1.00
H24    H     0.57266   0.12004   0.69319   0.00000  Uiso   1.00
H25    H     0.63203   0.02145   0.81725   0.00000  Uiso   1.00
H26    H     0.53556   0.25333   0.82559   0.00000  Uiso   1.00
H27    H     0.54141   0.06960   0.45375   0.00000  Uiso   1.00
H28    H     0.71197   0.93706   0.92803   0.00000  Uiso   1.00
H29    H     0.50856   0.42600   0.94558   0.00000  Uiso   1.00
H30    H     0.52089   0.03856   0.16147   0.00000  Uiso   1.00
H31    H     0.68149   0.31189   0.48659   0.00000  Uiso   1.00
H32    H     0.74683   0.22382   0.59931   0.00000  Uiso   1.00
H33    H     0.65037   0.45570   0.60766   0.00000  Uiso   1.00
H34    H     0.65622   0.27197   0.23582   0.00000  Uiso   1.00
H35    H     0.80515   0.10131   0.75115   0.00000  Uiso   1.00
H36    H     0.60174   0.59026   0.76870   0.00000  Uiso   1.00
H37    H     0.61407   0.20282   0.98459   0.00000  Uiso   1.00
O38    O     0.79958   0.95781   0.91751   0.00000  Uiso   1.00
O39    O     0.53271   0.59928   0.94051   0.00000  Uiso   1.00
O40    O     0.54889   0.09097   0.91178   0.00000  Uiso   1.00
N41    N     0.72493   0.98779   0.87090   0.00000  Uiso   1.00
N42    N     0.53476   0.44492   0.88734   0.00000  Uiso   1.00
N43    N     0.54628   0.08272   0.15426   0.00000  Uiso   1.00
N44    N     0.77507   0.07618   0.77573   0.00000  Uiso   1.00
N45    N     0.58490   0.53331   0.79216   0.00000  Uiso   1.00
N46    N     0.59642   0.17110   0.05908   0.00000  Uiso   1.00
C47    C     0.90241   0.33601   0.14585   0.00000  Uiso   1.00
C48    C     0.85506   0.36298   0.18460   0.00000  Uiso   1.00
C49    C     0.84318   0.43488   0.27021   0.00000  Uiso   1.00
C50    C     0.79808   0.44835   0.29291   0.00000  Uiso   1.00
C51    C     0.72944   0.49878   0.36238   0.00000  Uiso   1.00
C52    C     0.90747   0.23699   0.18915   0.00000  Uiso   1.00
C53    C     0.93966   0.20296   0.27857   0.00000  Uiso   1.00
C54    C     0.93868   0.11037   0.30508   0.00000  Uiso   1.00
C55    C     0.95142   0.96519   0.38153   0.00000  Uiso   1.00
C56    C     0.90429   0.33683   0.98712   0.00000  Uiso   1.00
C57    C     0.93381   0.38672   0.90666   0.00000  Uiso   1.00
C58    C     0.93016   0.37816   0.76308   0.00000  Uiso   1.00
C59    C     0.93796   0.38800   0.52584   0.00000  Uiso   1.00
C60    C     0.84345   0.23207   0.03392   0.00000  Uiso   1.00
C61    C     0.82303   0.30652   0.12380   0.00000  Uiso   1.00
C62    C     0.77794   0.31988   0.14637   0.00000  Uiso   1.00
C63    C     0.76600   0.39179   0.23200   0.00000  Uiso   1.00
C64    C     0.87544   0.18053   0.12836   0.00000  Uiso   1.00
C65    C     0.87442   0.08796   0.15473   0.00000  Uiso   1.00
C66    C     0.90660   0.05381   0.24418   0.00000  Uiso   1.00
C67    C     0.87226   0.28037   0.92632   0.00000  Uiso   1.00
C68    C     0.86857   0.27173   0.78283   0.00000  Uiso   1.00
C69    C     0.89808   0.32160   0.70217   0.00000  Uiso   1.00
H70    H     0.92734   0.37996   0.19319   0.00000  Uiso   1.00
H71    H     0.86797   0.47855   0.31725   0.00000  Uiso   1.00
H72    H     0.96444   0.24667   0.32559   0.00000  Uiso   1.00
H73    H     0.95859   0.43040   0.95375   0.00000  Uiso   1.00
H74    H     0.78803   0.56294   0.42803   0.00000  Uiso   1.00
H75    H     0.99144   0.07400   0.44558   0.00000  Uiso   1.00
H76    H     0.97911   0.46144   0.66147   0.00000  Uiso   1.00
H77    H     0.81851   0.18811   0.98659   0.00000  Uiso   1.00
H78    H     0.75317   0.27618   0.09931   0.00000  Uiso   1.00
H79    H     0.84963   0.04430   0.10766   0.00000  Uiso   1.00
H80    H     0.84378   0.22803   0.73582   0.00000  Uiso   1.00
H81    H     0.69485   0.39869   0.25115   0.00000  Uiso   1.00
H82    H     0.89826   0.90974   0.26870   0.00000  Uiso   1.00
H83    H     0.88593   0.29718   0.48459   0.00000  Uiso   1.00
O84    O     0.70042   0.54219   0.41751   0.00000  Uiso   1.00
O85    O     0.96729   0.90072   0.44051   0.00000  Uiso   1.00
O86    O     0.95111   0.40903   0.41178   0.00000  Uiso   1.00
N87    N     0.77507   0.51221   0.37090   0.00000  Uiso   1.00
N88    N     0.96524   0.05508   0.38734   0.00000  Uiso   1.00
N89    N     0.95372   0.41728   0.65426   0.00000  Uiso   1.00
N90    N     0.72493   0.42382   0.27573   0.00000  Uiso   1.00
N91    N     0.91510   0.96669   0.29216   0.00000  Uiso   1.00
N92    N     0.90358   0.32890   0.55908   0.00000  Uiso   1.00
C93    C     0.40241   0.16399   0.85415   0.00000  Uiso   1.00
C94    C     0.35506   0.13702   0.81540   0.00000  Uiso   1.00
C95    C     0.34318   0.06512   0.72979   0.00000  Uiso   1.00
C96    C     0.29808   0.05165   0.70709   0.00000  Uiso   1.00
C97    C     0.22944   0.00122   0.63762   0.00000  Uiso   1.00
C98    C     0.40747   0.26301   0.81085   0.00000  Uiso   1.00
C99    C     0.43966   0.29704   0.72143   0.00000  Uiso   1.00
C100   C     0.43868   0.38963   0.69492   0.00000  Uiso   1.00
C101   C     0.45142   0.53481   0.61847   0.00000  Uiso   1.00
C102   C     0.40429   0.16317   0.01288   0.00000  Uiso   1.00
C103   C     0.43381   0.11328   0.09334   0.00000  Uiso   1.00
C104   C     0.43016   0.12184   0.23692   0.00000  Uiso   1.00
C105   C     0.43796   0.11200   0.47416   0.00000  Uiso   1.00
C106   C     0.34345   0.26793   0.96608   0.00000  Uiso   1.00
C107   C     0.32303   0.19348   0.87620   0.00000  Uiso   1.00
C108   C     0.27794   0.18012   0.85363   0.00000  Uiso   1.00
C109   C     0.26600   0.10821   0.76800   0.00000  Uiso   1.00
C110   C     0.37544   0.31947   0.87164   0.00000  Uiso   1.00
C111   C     0.37442   0.41204   0.84527   0.00000  Uiso   1.00
C112   C     0.40660   0.44619   0.75582   0.00000  Uiso   1.00
C113   C     0.37226   0.21963   0.07368   0.00000  Uiso   1.00
C114   C     0.36857   0.22827   0.21717   0.00000  Uiso   1.00
C115   C     0.39808   0.17840   0.29783   0.00000  Uiso   1.00
H116   H     0.42734   0.12004   0.80681   0.00000  Uiso   1.00
H117   H     0.36797   0.02145   0.68275   0.00000  Uiso   1.00
H118   H     0.46444   0.25333   0.67441   0.00000  Uiso   1.00
H119   H     0.45859   0.06960   0.04625   0.00000  Uiso   1.00
H120   H     0.28803   0.93706   0.57197   0.00000  Uiso   1.00
H121   H     0.49144   0.42600   0.55442   0.00000  Uiso   1.00
H122   H     0.47911   0.03856   0.33853   0.00000  Uiso   1.00
H123   H     0.31851   0.31189   0.01341   0.00000  Uiso   1.00
H124   H     0.25317   0.22382   0.90069   0.00000  Uiso   1.00
H125   H     0.34963   0.45570   0.89234   0.00000  Uiso   1.00
H126   H     0.34378   0.27197   0.26418   0.00000  Uiso   1.00
H127   H     0.19485   0.10131   0.74885   0.00000  Uiso   1.00
H128   H     0.39826   0.59026   0.73130   0.00000  Uiso   1.00
H129   H     0.38593   0.20282   0.51541   0.00000  Uiso   1.00
O130   O     0.20042   0.95781   0.58249   0.00000  Uiso   1.00
O131   O     0.46729   0.59928   0.55949   0.00000  Uiso   1.00
O132   O     0.45111   0.09097   0.58822   0.00000  Uiso   1.00
N133   N     0.27507   0.98779   0.62910   0.00000  Uiso   1.00
N134   N     0.46524   0.44492   0.61266   0.00000  Uiso   1.00
N135   N     0.45372   0.08272   0.34574   0.00000  Uiso   1.00
N136   N     0.22493   0.07618   0.72427   0.00000  Uiso   1.00
N137   N     0.41510   0.53331   0.70784   0.00000  Uiso   1.00
N138   N     0.40358   0.17110   0.44092   0.00000  Uiso   1.00
C139   C     0.09759   0.33601   0.35415   0.00000  Uiso   1.00
C140   C     0.14494   0.36298   0.31540   0.00000  Uiso   1.00
C141   C     0.15682   0.43488   0.22979   0.00000  Uiso   1.00
C142   C     0.20192   0.44835   0.20709   0.00000  Uiso   1.00
C143   C     0.27056   0.49878   0.13762   0.00000  Uiso   1.00
C144   C     0.09253   0.23699   0.31085   0.00000  Uiso   1.00
C145   C     0.06034   0.20296   0.22143   0.00000  Uiso   1.00
C146   C     0.06132   0.11037   0.19492   0.00000  Uiso   1.00
C147   C     0.04858   0.96519   0.11847   0.00000  Uiso   1.00
C148   C     0.09571   0.33683   0.51288   0.00000  Uiso   1.00
C149   C     0.06619   0.38672   0.59334   0.00000  Uiso   1.00
C150   C     0.06984   0.37816   0.73692   0.00000  Uiso   1.00
C151   C     0.06204   0.38800   0.97416   0.00000  Uiso   1.00
C152   C     0.15655   0.23207   0.46608   0.00000  Uiso   1.00
C153   C     0.17697   0.30652   0.37620   0.00000  Uiso   1.00
C154   C     0.22206   0.31988   0.35363   0.00000  Uiso   1.00
C155   C     0.23400   0.39179   0.26800   0.00000  Uiso   1.00
C156   C     0.12456   0.18053   0.37164   0.00000  Uiso   1.00
C157   C     0.12558   0.08796   0.34527   0.00000  Uiso   1.00
C158   C     0.09340   0.05381   0.25582   0.00000  Uiso   1.00
C159   C     0.12774   0.28037   0.57368   0.00000  Uiso   1.00
C160   C     0.13143   0.27173   0.71717   0.00000  Uiso   1.00
C161   C     0.10192   0.32160   0.79783   0.00000  Uiso   1.00
H162   H     0.07266   0.37996   0.30681   0.00000  Uiso   1.00
H163   H     0.13203   0.47855   0.18275   0.00000  Uiso   1.00
H164   H     0.03556   0.24667   0.17441   0.00000  Uiso   1.00
H165   H     0.04141   0.43040   0.54625   0.00000  Uiso   1.00
H166   H     0.21197   0.56294   0.07197   0.00000  Uiso   1.00
H167   H     0.00856   0.07400   0.05442   0.00000  Uiso   1.00
H168   H     0.02089   0.46144   0.83853   0.00000  Uiso   1.00
H169   H     0.18149   0.18811   0.51341   0.00000  Uiso   1.00
H170   H     0.24683   0.27618   0.40069   0.00000  Uiso   1.00
H171   H     0.15037   0.04430   0.39234   0.00000  Uiso   1.00
H172   H     0.15622   0.22803   0.76418   0.00000  Uiso   1.00
H173   H     0.30515   0.39869   0.24885   0.00000  Uiso   1.00
H174   H     0.10174   0.90974   0.23130   0.00000  Uiso   1.00
H175   H     0.11407   0.29718   0.01541   0.00000  Uiso   1.00
O176   O     0.29958   0.54219   0.08249   0.00000  Uiso   1.00
O177   O     0.03271   0.90072   0.05949   0.00000  Uiso   1.00
O178   O     0.04889   0.40903   0.08822   0.00000  Uiso   1.00
N179   N     0.22493   0.51221   0.12910   0.00000  Uiso   1.00
N180   N     0.03476   0.05508   0.11266   0.00000  Uiso   1.00
N181   N     0.04628   0.41728   0.84574   0.00000  Uiso   1.00
N182   N     0.27507   0.42382   0.22427   0.00000  Uiso   1.00
N183   N     0.08490   0.96669   0.20784   0.00000  Uiso   1.00
N184   N     0.09642   0.32890   0.94092   0.00000  Uiso   1.00
C185   C     0.40241   0.83601   0.35415   0.00000  Uiso   1.00
C186   C     0.35506   0.86298   0.31540   0.00000  Uiso   1.00
C187   C     0.34318   0.93488   0.22979   0.00000  Uiso   1.00
C188   C     0.29808   0.94835   0.20709   0.00000  Uiso   1.00
C189   C     0.22944   0.99878   0.13762   0.00000  Uiso   1.00
C190   C     0.40747   0.73699   0.31085   0.00000  Uiso   1.00
C191   C     0.43966   0.70296   0.22143   0.00000  Uiso   1.00
C192   C     0.43868   0.61037   0.19492   0.00000  Uiso   1.00
C193   C     0.45142   0.46519   0.11847   0.00000  Uiso   1.00
C194   C     0.40429   0.83683   0.51288   0.00000  Uiso   1.00
C195   C     0.43381   0.88672   0.59334   0.00000  Uiso   1.00
C196   C     0.43016   0.87816   0.73692   0.00000  Uiso   1.00
C197   C     0.43796   0.88800   0.97416   0.00000  Uiso   1.00
C198   C     0.34345   0.73207   0.46608   0.00000  Uiso   1.00
C199   C     0.32303   0.80652   0.37620   0.00000  Uiso   1.00
C200   C     0.27794   0.81988   0.35363   0.00000  Uiso   1.00
C201   C     0.26600   0.89179   0.26800   0.00000  Uiso   1.00
C202   C     0.37544   0.68053   0.37164   0.00000  Uiso   1.00
C203   C     0.37442   0.58796   0.34527   0.00000  Uiso   1.00
C204   C     0.40660   0.55381   0.25582   0.00000  Uiso   1.00
C205   C     0.37226   0.78037   0.57368   0.00000  Uiso   1.00
C206   C     0.36857   0.77173   0.71717   0.00000  Uiso   1.00
C207   C     0.39808   0.82160   0.79783   0.00000  Uiso   1.00
H208   H     0.42734   0.87996   0.30681   0.00000  Uiso   1.00
H209   H     0.36797   0.97855   0.18275   0.00000  Uiso   1.00
H210   H     0.46444   0.74667   0.17441   0.00000  Uiso   1.00
H211   H     0.45859   0.93040   0.54625   0.00000  Uiso   1.00
H212   H     0.28803   0.06294   0.07197   0.00000  Uiso   1.00
H213   H     0.49144   0.57400   0.05442   0.00000  Uiso   1.00
H214   H     0.47911   0.96144   0.83853   0.00000  Uiso   1.00
H215   H     0.31851   0.68811   0.51341   0.00000  Uiso   1.00
H216   H     0.25317   0.77618   0.40069   0.00000  Uiso   1.00
H217   H     0.34963   0.54430   0.39234   0.00000  Uiso   1.00
H218   H     0.34378   0.72803   0.76418   0.00000  Uiso   1.00
H219   H     0.19485   0.89869   0.24885   0.00000  Uiso   1.00
H220   H     0.39826   0.40974   0.23130   0.00000  Uiso   1.00
H221   H     0.38593   0.79718   0.01541   0.00000  Uiso   1.00
O222   O     0.20042   0.04219   0.08249   0.00000  Uiso   1.00
O223   O     0.46729   0.40072   0.05949   0.00000  Uiso   1.00
O224   O     0.45111   0.90903   0.08822   0.00000  Uiso   1.00
N225   N     0.27507   0.01221   0.12910   0.00000  Uiso   1.00
N226   N     0.46524   0.55508   0.11266   0.00000  Uiso   1.00
N227   N     0.45372   0.91728   0.84574   0.00000  Uiso   1.00
N228   N     0.22493   0.92382   0.22427   0.00000  Uiso   1.00
N229   N     0.41510   0.46669   0.20784   0.00000  Uiso   1.00
N230   N     0.40358   0.82890   0.94092   0.00000  Uiso   1.00
C231   C     0.09759   0.66399   0.85415   0.00000  Uiso   1.00
C232   C     0.14494   0.63702   0.81540   0.00000  Uiso   1.00
C233   C     0.15682   0.56512   0.72979   0.00000  Uiso   1.00
C234   C     0.20192   0.55165   0.70709   0.00000  Uiso   1.00
C235   C     0.27056   0.50122   0.63762   0.00000  Uiso   1.00
C236   C     0.09253   0.76301   0.81085   0.00000  Uiso   1.00
C237   C     0.06034   0.79704   0.72143   0.00000  Uiso   1.00
C238   C     0.06132   0.88963   0.69492   0.00000  Uiso   1.00
C239   C     0.04858   0.03481   0.61847   0.00000  Uiso   1.00
C240   C     0.09571   0.66317   0.01288   0.00000  Uiso   1.00
C241   C     0.06619   0.61328   0.09334   0.00000  Uiso   1.00
C242   C     0.06984   0.62184   0.23692   0.00000  Uiso   1.00
C243   C     0.06204   0.61200   0.47416   0.00000  Uiso   1.00
C244   C     0.15655   0.76793   0.96608   0.00000  Uiso   1.00
C245   C     0.17697   0.69348   0.87620   0.00000  Uiso   1.00
C246   C     0.22206   0.68012   0.85363   0.00000  Uiso   1.00
C247   C     0.23400   0.60821   0.76800   0.00000  Uiso   1.00
C248   C     0.12456   0.81947   0.87164   0.00000  Uiso   1.00
C249   C     0.12558   0.91204   0.84527   0.00000  Uiso   1.00
C250   C     0.09340   0.94619   0.75582   0.00000  Uiso   1.00
C251   C     0.12774   0.71963   0.07368   0.00000  Uiso   1.00
C252   C     0.13143   0.72827   0.21717   0.00000  Uiso   1.00
C253   C     0.10192   0.67840   0.29783   0.00000  Uiso   1.00
H254   H     0.07266   0.62004   0.80681   0.00000  Uiso   1.00
H255   H     0.13203   0.52145   0.68275   0.00000  Uiso   1.00
H256   H     0.03556   0.75333   0.67441   0.00000  Uiso   1.00
H257   H     0.04141   0.56960   0.04625   0.00000  Uiso   1.00
H258   H     0.21197   0.43706   0.57197   0.00000  Uiso   1.00
H259   H     0.00856   0.92600   0.55442   0.00000  Uiso   1.00
H260   H     0.02089   0.53856   0.33853   0.00000  Uiso   1.00
H261   H     0.18149   0.81189   0.01341   0.00000  Uiso   1.00
H262   H     0.24683   0.72382   0.90069   0.00000  Uiso   1.00
H263   H     0.15037   0.95570   0.89234   0.00000  Uiso   1.00
H264   H     0.15622   0.77197   0.26418   0.00000  Uiso   1.00
H265   H     0.30515   0.60131   0.74885   0.00000  Uiso   1.00
H266   H     0.10174   0.09026   0.73130   0.00000  Uiso   1.00
H267   H     0.11407   0.70282   0.51541   0.00000  Uiso   1.00
O268   O     0.29958   0.45781   0.58249   0.00000  Uiso   1.00
O269   O     0.03271   0.09928   0.55949   0.00000  Uiso   1.00
O270   O     0.04889   0.59097   0.58822   0.00000  Uiso   1.00
N271   N     0.22493   0.48779   0.62910   0.00000  Uiso   1.00
N272   N     0.03476   0.94492   0.61266   0.00000  Uiso   1.00
N273   N     0.04628   0.58272   0.34574   0.00000  Uiso   1.00
N274   N     0.27507   0.57618   0.72427   0.00000  Uiso   1.00
N275   N     0.08490   0.03331   0.70784   0.00000  Uiso   1.00
N276   N     0.09642   0.67110   0.44092   0.00000  Uiso   1.00
C277   C     0.59759   0.83601   0.14585   0.00000  Uiso   1.00
C278   C     0.64494   0.86298   0.18460   0.00000  Uiso   1.00
C279   C     0.65682   0.93488   0.27021   0.00000  Uiso   1.00
C280   C     0.70192   0.94835   0.29291   0.00000  Uiso   1.00
C281   C     0.77056   0.99878   0.36238   0.00000  Uiso   1.00
C282   C     0.59253   0.73699   0.18915   0.00000  Uiso   1.00
C283   C     0.56034   0.70296   0.27857   0.00000  Uiso   1.00
C284   C     0.56132   0.61037   0.30508   0.00000  Uiso   1.00
C285   C     0.54858   0.46519   0.38153   0.00000  Uiso   1.00
C286   C     0.59571   0.83683   0.98712   0.00000  Uiso   1.00
C287   C     0.56619   0.88672   0.90666   0.00000  Uiso   1.00
C288   C     0.56984   0.87816   0.76308   0.00000  Uiso   1.00
C289   C     0.56204   0.88800   0.52584   0.00000  Uiso   1.00
C290   C     0.65655   0.73207   0.03392   0.00000  Uiso   1.00
C291   C     0.67697   0.80652   0.12380   0.00000  Uiso   1.00
C292   C     0.72206   0.81988   0.14637   0.00000  Uiso   1.00
C293   C     0.73400   0.89179   0.23200   0.00000  Uiso   1.00
C294   C     0.62456   0.68053   0.12836   0.00000  Uiso   1.00
C295   C     0.62558   0.58796   0.15473   0.00000  Uiso   1.00
C296   C     0.59340   0.55381   0.24418   0.00000  Uiso   1.00
C297   C     0.62774   0.78037   0.92632   0.00000  Uiso   1.00
C298   C     0.63143   0.77173   0.78283   0.00000  Uiso   1.00
C299   C     0.60192   0.82160   0.70217   0.00000  Uiso   1.00
H300   H     0.57266   0.87996   0.19319   0.00000  Uiso   1.00
H301   H     0.63203   0.97855   0.31725   0.00000  Uiso   1.00
H302   H     0.53556   0.74667   0.32559   0.00000  Uiso   1.00
H303   H     0.54141   0.93040   0.95375   0.00000  Uiso   1.00
H304   H     0.71197   0.06294   0.42803   0.00000  Uiso   1.00
H305   H     0.50856   0.57400   0.44558   0.00000  Uiso   1.00
H306   H     0.52089   0.96144   0.66147   0.00000  Uiso   1.00
H307   H     0.68149   0.68811   0.98659   0.00000  Uiso   1.00
H308   H     0.74683   0.77618   0.09931   0.00000  Uiso   1.00
H309   H     0.65037   0.54430   0.10766   0.00000  Uiso   1.00
H310   H     0.65622   0.72803   0.73582   0.00000  Uiso   1.00
H311   H     0.80515   0.89869   0.25115   0.00000  Uiso   1.00
H312   H     0.60174   0.40974   0.26870   0.00000  Uiso   1.00
H313   H     0.61407   0.79718   0.48459   0.00000  Uiso   1.00
O314   O     0.79958   0.04219   0.41751   0.00000  Uiso   1.00
O315   O     0.53271   0.40072   0.44051   0.00000  Uiso   1.00
O316   O     0.54889   0.90903   0.41178   0.00000  Uiso   1.00
N317   N     0.72493   0.01221   0.37090   0.00000  Uiso   1.00
N318   N     0.53476   0.55508   0.38734   0.00000  Uiso   1.00
N319   N     0.54628   0.91728   0.65426   0.00000  Uiso   1.00
N320   N     0.77507   0.92382   0.27573   0.00000  Uiso   1.00
N321   N     0.58490   0.46669   0.29216   0.00000  Uiso   1.00
N322   N     0.59642   0.82890   0.55908   0.00000  Uiso   1.00
C323   C     0.90241   0.66399   0.64585   0.00000  Uiso   1.00
C324   C     0.85506   0.63702   0.68460   0.00000  Uiso   1.00
C325   C     0.84318   0.56512   0.77021   0.00000  Uiso   1.00
C326   C     0.79808   0.55165   0.79291   0.00000  Uiso   1.00
C327   C     0.72944   0.50122   0.86238   0.00000  Uiso   1.00
C328   C     0.90747   0.76301   0.68915   0.00000  Uiso   1.00
C329   C     0.93966   0.79704   0.77857   0.00000  Uiso   1.00
C330   C     0.93868   0.88963   0.80508   0.00000  Uiso   1.00
C331   C     0.95142   0.03481   0.88153   0.00000  Uiso   1.00
C332   C     0.90429   0.66317   0.48712   0.00000  Uiso   1.00
C333   C     0.93381   0.61328   0.40666   0.00000  Uiso   1.00
C334   C     0.93016   0.62184   0.26308   0.00000  Uiso   1.00
C335   C     0.93796   0.61200   0.02584   0.00000  Uiso   1.00
C336   C     0.84345   0.76793   0.53392   0.00000  Uiso   1.00
C337   C     0.82303   0.69348   0.62380   0.00000  Uiso   1.00
C338   C     0.77794   0.68012   0.64637   0.00000  Uiso   1.00
C339   C     0.76600   0.60821   0.73200   0.00000  Uiso   1.00
C340   C     0.87544   0.81947   0.62836   0.00000  Uiso   1.00
C341   C     0.87442   0.91204   0.65473   0.00000  Uiso   1.00
C342   C     0.90660   0.94619   0.74418   0.00000  Uiso   1.00
C343   C     0.87226   0.71963   0.42632   0.00000  Uiso   1.00
C344   C     0.86857   0.72827   0.28283   0.00000  Uiso   1.00
C345   C     0.89808   0.67840   0.20217   0.00000  Uiso   1.00
H346   H     0.92734   0.62004   0.69319   0.00000  Uiso   1.00
H347   H     0.86797   0.52145   0.81725   0.00000  Uiso   1.00
H348   H     0.96444   0.75333   0.82559   0.00000  Uiso   1.00
H349   H     0.95859   0.56960   0.45375   0.00000  Uiso   1.00
H350   H     0.78803   0.43706   0.92803   0.00000  Uiso   1.00
H351   H     0.99144   0.92600   0.94558   0.00000  Uiso   1.00
H352   H     0.97911   0.53856   0.16147   0.00000  Uiso   1.00
H353   H     0.81851   0.81189   0.48659   0.00000  Uiso   1.00
H354   H     0.75317   0.72382   0.59931   0.00000  Uiso   1.00
H355   H     0.84963   0.95570   0.60766   0.00000  Uiso   1.00
H356   H     0.84378   0.77197   0.23582   0.00000  Uiso   1.00
H357   H     0.69485   0.60131   0.75115   0.00000  Uiso   1.00
H358   H     0.89826   0.09026   0.76870   0.00000  Uiso   1.00
H359   H     0.88593   0.70282   0.98459   0.00000  Uiso   1.00
O360   O     0.70042   0.45781   0.91751   0.00000  Uiso   1.00
O361   O     0.96729   0.09928   0.94051   0.00000  Uiso   1.00
O362   O     0.95111   0.59097   0.91178   0.00000  Uiso   1.00
N363   N     0.77507   0.48779   0.87090   0.00000  Uiso   1.00
N364   N     0.96524   0.94492   0.88734   0.00000  Uiso   1.00
N365   N     0.95372   0.58272   0.15426   0.00000  Uiso   1.00
N366   N     0.72493   0.57618   0.77573   0.00000  Uiso   1.00
N367   N     0.91510   0.03331   0.79216   0.00000  Uiso   1.00
N368   N     0.90358   0.67110   0.05908   0.00000  Uiso   1.00
