data_job_04891
_audit_creation_date              2018-12-19
_audit_creation_method            'Materials Studio'
_symmetry_space_group_name_H-M    'P1'
_symmetry_Int_Tables_number       1
_symmetry_cell_setting            triclinic
loop_
_symmetry_equiv_pos_as_xyz
  x,y,z
_cell_length_a                    11.0527
_cell_length_b                    9.4896
_cell_length_c                    24.4107
_cell_angle_alpha                 90.0000
_cell_angle_beta                  116.9191
_cell_angle_gamma                 90.0000
loop_
_atom_site_label
_atom_site_type_symbol
_atom_site_fract_x
_atom_site_fract_y
_atom_site_fract_z
_atom_site_U_iso_or_equiv
_atom_site_adp_type
_atom_site_occupancy
C1     C     0.03383   0.98218   0.71821   0.00000  Uiso   1.00
C2     C     0.07270   0.07886   0.67881   0.00000  Uiso   1.00
C3     C     0.06889   0.22503   0.67882   0.00000  Uiso   1.00
C4     C     0.10842   0.29425   0.63943   0.00000  Uiso   1.00
C5     C     0.16235   0.45568   0.58400   0.00000  Uiso   1.00
C6     C     0.92409   0.88424   0.67359   0.00000  Uiso   1.00
C7     C     0.79534   0.86676   0.66921   0.00000  Uiso   1.00
C8     C     0.70979   0.77214   0.62543   0.00000  Uiso   1.00
C9     C     0.53303   0.63133   0.56193   0.00000  Uiso   1.00
C10    C     0.15745   0.88957   0.75429   0.00000  Uiso   1.00
C11    C     0.22490   0.87655   0.81776   0.00000  Uiso   1.00
C12    C     0.33580   0.78639   0.84192   0.00000  Uiso   1.00
C13    C     0.52137   0.65387   0.90372   0.00000  Uiso   1.00
C14    C     0.11082   0.84518   0.64825   0.00000  Uiso   1.00
C15    C     0.11451   0.00444   0.64081   0.00000  Uiso   1.00
C16    C     0.15407   0.07346   0.60141   0.00000  Uiso   1.00
C17    C     0.15032   0.21971   0.60135   0.00000  Uiso   1.00
C18    C     0.96590   0.80982   0.63559   0.00000  Uiso   1.00
C19    C     0.88052   0.71519   0.59180   0.00000  Uiso   1.00
C20    C     0.75168   0.69759   0.58735   0.00000  Uiso   1.00
C21    C     0.19927   0.81516   0.71628   0.00000  Uiso   1.00
C22    C     0.31008   0.72499   0.74035   0.00000  Uiso   1.00
C23    C     0.37769   0.71184   0.80385   0.00000  Uiso   1.00
H24    H     0.00126   0.04011   0.74780   0.00000  Uiso   1.00
H25    H     0.03651   0.28258   0.70823   0.00000  Uiso   1.00
H26    H     0.76302   0.92436   0.69863   0.00000  Uiso   1.00
H27    H     0.19251   0.93415   0.84716   0.00000  Uiso   1.00
H28    H     0.09397   0.51858   0.64759   0.00000  Uiso   1.00
H29    H     0.51732   0.76321   0.62736   0.00000  Uiso   1.00
H30    H     0.42298   0.78387   0.94056   0.00000  Uiso   1.00
H31    H     0.14337   0.78724   0.61866   0.00000  Uiso   1.00
H32    H     0.18642   0.01584   0.57200   0.00000  Uiso   1.00
H33    H     0.91292   0.65762   0.56240   0.00000  Uiso   1.00
H34    H     0.34241   0.66742   0.71093   0.00000  Uiso   1.00
H35    H     0.21564   0.30209   0.53701   0.00000  Uiso   1.00
H36    H     0.63898   0.54671   0.51679   0.00000  Uiso   1.00
H37    H     0.54465   0.56737   0.82999   0.00000  Uiso   1.00
O38    O     0.18052   0.56528   0.56392   0.00000  Uiso   1.00
O39    O     0.42398   0.57424   0.53740   0.00000  Uiso   1.00
O40    O     0.61219   0.60135   0.94831   0.00000  Uiso   1.00
N41    N     0.11673   0.43626   0.62798   0.00000  Uiso   1.00
N42    N     0.57758   0.73005   0.60906   0.00000  Uiso   1.00
N43    N     0.42428   0.74933   0.90187   0.00000  Uiso   1.00
N44    N     0.18220   0.31977   0.56848   0.00000  Uiso   1.00
N45    N     0.64305   0.61356   0.54956   0.00000  Uiso   1.00
N46    N     0.48975   0.63284   0.84237   0.00000  Uiso   1.00
C47    C     0.96617   0.48218   0.78179   0.00000  Uiso   1.00
C48    C     0.92730   0.57886   0.82119   0.00000  Uiso   1.00
C49    C     0.93111   0.72503   0.82118   0.00000  Uiso   1.00
C50    C     0.89158   0.79425   0.86057   0.00000  Uiso   1.00
C51    C     0.83765   0.95568   0.91600   0.00000  Uiso   1.00
C52    C     0.07591   0.38424   0.82641   0.00000  Uiso   1.00
C53    C     0.20466   0.36676   0.83079   0.00000  Uiso   1.00
C54    C     0.29021   0.27214   0.87457   0.00000  Uiso   1.00
C55    C     0.46697   0.13133   0.93807   0.00000  Uiso   1.00
C56    C     0.84255   0.38957   0.74571   0.00000  Uiso   1.00
C57    C     0.77510   0.37655   0.68224   0.00000  Uiso   1.00
C58    C     0.66420   0.28639   0.65808   0.00000  Uiso   1.00
C59    C     0.47863   0.15387   0.59628   0.00000  Uiso   1.00
C60    C     0.88918   0.34518   0.85175   0.00000  Uiso   1.00
C61    C     0.88549   0.50444   0.85919   0.00000  Uiso   1.00
C62    C     0.84593   0.57346   0.89859   0.00000  Uiso   1.00
C63    C     0.84968   0.71971   0.89865   0.00000  Uiso   1.00
C64    C     0.03410   0.30982   0.86441   0.00000  Uiso   1.00
C65    C     0.11948   0.21519   0.90820   0.00000  Uiso   1.00
C66    C     0.24832   0.19759   0.91265   0.00000  Uiso   1.00
C67    C     0.80073   0.31516   0.78372   0.00000  Uiso   1.00
C68    C     0.68992   0.22499   0.75965   0.00000  Uiso   1.00
C69    C     0.62231   0.21184   0.69615   0.00000  Uiso   1.00
H70    H     0.99874   0.54011   0.75220   0.00000  Uiso   1.00
H71    H     0.96349   0.78258   0.79177   0.00000  Uiso   1.00
H72    H     0.23698   0.42436   0.80137   0.00000  Uiso   1.00
H73    H     0.80749   0.43415   0.65284   0.00000  Uiso   1.00
H74    H     0.90603   0.01858   0.85241   0.00000  Uiso   1.00
H75    H     0.48268   0.26321   0.87264   0.00000  Uiso   1.00
H76    H     0.57702   0.28387   0.55944   0.00000  Uiso   1.00
H77    H     0.85663   0.28724   0.88134   0.00000  Uiso   1.00
H78    H     0.81358   0.51584   0.92800   0.00000  Uiso   1.00
H79    H     0.08708   0.15762   0.93760   0.00000  Uiso   1.00
H80    H     0.65759   0.16742   0.78907   0.00000  Uiso   1.00
H81    H     0.78436   0.80209   0.96299   0.00000  Uiso   1.00
H82    H     0.36102   0.04671   0.98321   0.00000  Uiso   1.00
H83    H     0.45535   0.06737   0.67001   0.00000  Uiso   1.00
O84    O     0.81948   0.06528   0.93608   0.00000  Uiso   1.00
O85    O     0.57602   0.07424   0.96260   0.00000  Uiso   1.00
O86    O     0.38781   0.10135   0.55169   0.00000  Uiso   1.00
N87    N     0.88327   0.93626   0.87202   0.00000  Uiso   1.00
N88    N     0.42242   0.23005   0.89094   0.00000  Uiso   1.00
N89    N     0.57572   0.24933   0.59813   0.00000  Uiso   1.00
N90    N     0.81780   0.81977   0.93152   0.00000  Uiso   1.00
N91    N     0.35695   0.11356   0.95044   0.00000  Uiso   1.00
N92    N     0.51025   0.13284   0.65763   0.00000  Uiso   1.00
C93    C     0.96617   0.01782   0.28179   0.00000  Uiso   1.00
C94    C     0.92730   0.92114   0.32119   0.00000  Uiso   1.00
C95    C     0.93111   0.77497   0.32118   0.00000  Uiso   1.00
C96    C     0.89158   0.70575   0.36057   0.00000  Uiso   1.00
C97    C     0.83765   0.54432   0.41600   0.00000  Uiso   1.00
C98    C     0.07591   0.11576   0.32641   0.00000  Uiso   1.00
C99    C     0.20466   0.13324   0.33079   0.00000  Uiso   1.00
C100   C     0.29021   0.22786   0.37457   0.00000  Uiso   1.00
C101   C     0.46697   0.36867   0.43807   0.00000  Uiso   1.00
C102   C     0.84255   0.11043   0.24571   0.00000  Uiso   1.00
C103   C     0.77510   0.12345   0.18224   0.00000  Uiso   1.00
C104   C     0.66420   0.21361   0.15808   0.00000  Uiso   1.00
C105   C     0.47863   0.34613   0.09628   0.00000  Uiso   1.00
C106   C     0.88918   0.15482   0.35175   0.00000  Uiso   1.00
C107   C     0.88549   0.99556   0.35919   0.00000  Uiso   1.00
C108   C     0.84593   0.92654   0.39859   0.00000  Uiso   1.00
C109   C     0.84968   0.78029   0.39865   0.00000  Uiso   1.00
C110   C     0.03410   0.19018   0.36441   0.00000  Uiso   1.00
C111   C     0.11948   0.28481   0.40820   0.00000  Uiso   1.00
C112   C     0.24832   0.30241   0.41265   0.00000  Uiso   1.00
C113   C     0.80073   0.18484   0.28372   0.00000  Uiso   1.00
C114   C     0.68992   0.27501   0.25965   0.00000  Uiso   1.00
C115   C     0.62231   0.28816   0.19615   0.00000  Uiso   1.00
H116   H     0.99874   0.95989   0.25220   0.00000  Uiso   1.00
H117   H     0.96349   0.71742   0.29177   0.00000  Uiso   1.00
H118   H     0.23698   0.07564   0.30137   0.00000  Uiso   1.00
H119   H     0.80749   0.06585   0.15284   0.00000  Uiso   1.00
H120   H     0.90603   0.48142   0.35241   0.00000  Uiso   1.00
H121   H     0.48268   0.23679   0.37264   0.00000  Uiso   1.00
H122   H     0.57702   0.21613   0.05944   0.00000  Uiso   1.00
H123   H     0.85663   0.21276   0.38134   0.00000  Uiso   1.00
H124   H     0.81358   0.98416   0.42800   0.00000  Uiso   1.00
H125   H     0.08708   0.34238   0.43760   0.00000  Uiso   1.00
H126   H     0.65759   0.33258   0.28907   0.00000  Uiso   1.00
H127   H     0.78436   0.69791   0.46299   0.00000  Uiso   1.00
H128   H     0.36102   0.45329   0.48321   0.00000  Uiso   1.00
H129   H     0.45535   0.43263   0.17001   0.00000  Uiso   1.00
O130   O     0.81948   0.43472   0.43608   0.00000  Uiso   1.00
O131   O     0.57602   0.42576   0.46260   0.00000  Uiso   1.00
O132   O     0.38781   0.39865   0.05169   0.00000  Uiso   1.00
N133   N     0.88327   0.56374   0.37202   0.00000  Uiso   1.00
N134   N     0.42242   0.26995   0.39094   0.00000  Uiso   1.00
N135   N     0.57572   0.25067   0.09813   0.00000  Uiso   1.00
N136   N     0.81780   0.68023   0.43152   0.00000  Uiso   1.00
N137   N     0.35695   0.38644   0.45044   0.00000  Uiso   1.00
N138   N     0.51025   0.36716   0.15763   0.00000  Uiso   1.00
C139   C     0.03383   0.51782   0.21821   0.00000  Uiso   1.00
C140   C     0.07270   0.42114   0.17881   0.00000  Uiso   1.00
C141   C     0.06889   0.27497   0.17882   0.00000  Uiso   1.00
C142   C     0.10842   0.20575   0.13943   0.00000  Uiso   1.00
C143   C     0.16235   0.04432   0.08400   0.00000  Uiso   1.00
C144   C     0.92409   0.61576   0.17359   0.00000  Uiso   1.00
C145   C     0.79534   0.63324   0.16921   0.00000  Uiso   1.00
C146   C     0.70979   0.72786   0.12543   0.00000  Uiso   1.00
C147   C     0.53303   0.86867   0.06193   0.00000  Uiso   1.00
C148   C     0.15745   0.61043   0.25429   0.00000  Uiso   1.00
C149   C     0.22490   0.62345   0.31776   0.00000  Uiso   1.00
C150   C     0.33580   0.71361   0.34192   0.00000  Uiso   1.00
C151   C     0.52137   0.84613   0.40372   0.00000  Uiso   1.00
C152   C     0.11082   0.65482   0.14825   0.00000  Uiso   1.00
C153   C     0.11451   0.49556   0.14081   0.00000  Uiso   1.00
C154   C     0.15407   0.42654   0.10141   0.00000  Uiso   1.00
C155   C     0.15032   0.28029   0.10135   0.00000  Uiso   1.00
C156   C     0.96590   0.69018   0.13559   0.00000  Uiso   1.00
C157   C     0.88052   0.78481   0.09180   0.00000  Uiso   1.00
C158   C     0.75168   0.80241   0.08735   0.00000  Uiso   1.00
C159   C     0.19927   0.68484   0.21628   0.00000  Uiso   1.00
C160   C     0.31008   0.77501   0.24035   0.00000  Uiso   1.00
C161   C     0.37769   0.78816   0.30385   0.00000  Uiso   1.00
H162   H     0.00126   0.45989   0.24780   0.00000  Uiso   1.00
H163   H     0.03651   0.21742   0.20823   0.00000  Uiso   1.00
H164   H     0.76302   0.57564   0.19863   0.00000  Uiso   1.00
H165   H     0.19251   0.56585   0.34716   0.00000  Uiso   1.00
H166   H     0.09397   0.98142   0.14759   0.00000  Uiso   1.00
H167   H     0.51732   0.73679   0.12736   0.00000  Uiso   1.00
H168   H     0.42298   0.71613   0.44056   0.00000  Uiso   1.00
H169   H     0.14337   0.71276   0.11866   0.00000  Uiso   1.00
H170   H     0.18642   0.48416   0.07200   0.00000  Uiso   1.00
H171   H     0.91292   0.84238   0.06240   0.00000  Uiso   1.00
H172   H     0.34241   0.83258   0.21093   0.00000  Uiso   1.00
H173   H     0.21564   0.19791   0.03701   0.00000  Uiso   1.00
H174   H     0.63898   0.95329   0.01679   0.00000  Uiso   1.00
H175   H     0.54465   0.93263   0.32999   0.00000  Uiso   1.00
O176   O     0.18052   0.93472   0.06392   0.00000  Uiso   1.00
O177   O     0.42398   0.92576   0.03740   0.00000  Uiso   1.00
O178   O     0.61219   0.89865   0.44831   0.00000  Uiso   1.00
N179   N     0.11673   0.06374   0.12798   0.00000  Uiso   1.00
N180   N     0.57758   0.76995   0.10906   0.00000  Uiso   1.00
N181   N     0.42428   0.75067   0.40187   0.00000  Uiso   1.00
N182   N     0.18220   0.18023   0.06848   0.00000  Uiso   1.00
N183   N     0.64305   0.88644   0.04956   0.00000  Uiso   1.00
N184   N     0.48975   0.86716   0.34237   0.00000  Uiso   1.00
