data_job_02246
_audit_creation_date              2018-12-19
_audit_creation_method            'Materials Studio'
_symmetry_space_group_name_H-M    'P1'
_symmetry_Int_Tables_number       1
_symmetry_cell_setting            triclinic
loop_
_symmetry_equiv_pos_as_xyz
  x,y,z
_cell_length_a                    27.4408
_cell_length_b                    12.0977
_cell_length_c                    19.1148
_cell_angle_alpha                 90.0000
_cell_angle_beta                  147.0616
_cell_angle_gamma                 90.0000
loop_
_atom_site_label
_atom_site_type_symbol
_atom_site_fract_x
_atom_site_fract_y
_atom_site_fract_z
_atom_site_U_iso_or_equiv
_atom_site_adp_type
_atom_site_occupancy
C1     C     0.31642   0.48885   0.14897   0.00000  Uiso   1.00
C2     C     0.23512   0.52718   0.00920   0.00000  Uiso   1.00
C3     C     0.22903   0.53059   0.92945   0.00000  Uiso   1.00
C4     C     0.14892   0.56828   0.80471   0.00000  Uiso   1.00
C5     C     0.03356   0.62282   0.59429   0.00000  Uiso   1.00
C6     C     0.34097   0.58470   0.22669   0.00000  Uiso   1.00
C7     C     0.42388   0.63646   0.32981   0.00000  Uiso   1.00
C8     C     0.43288   0.72256   0.38816   0.00000  Uiso   1.00
C9     C     0.48188   0.86635   0.51546   0.00000  Uiso   1.00
C10    C     0.28309   0.39640   0.15640   0.00000  Uiso   1.00
C11    C     0.31735   0.28984   0.20046   0.00000  Uiso   1.00
C12    C     0.27763   0.21741   0.19966   0.00000  Uiso   1.00
C13    C     0.23676   0.06884   0.21782   0.00000  Uiso   1.00
C14    C     0.18498   0.54973   0.06927   0.00000  Uiso   1.00
C15    C     0.16373   0.56025   0.96591   0.00000  Uiso   1.00
C16    C     0.08361   0.59794   0.84126   0.00000  Uiso   1.00
C17    C     0.07740   0.60140   0.76133   0.00000  Uiso   1.00
C18    C     0.26959   0.61777   0.18340   0.00000  Uiso   1.00
C19    C     0.27847   0.70381   0.24162   0.00000  Uiso   1.00
C20    C     0.36136   0.75569   0.34479   0.00000  Uiso   1.00
C21    C     0.21170   0.42947   0.11311   0.00000  Uiso   1.00
C22    C     0.17193   0.35719   0.11226   0.00000  Uiso   1.00
C23    C     0.20612   0.25054   0.15629   0.00000  Uiso   1.00
H24    H     0.37200   0.46311   0.18269   0.00000  Uiso   1.00
H25    H     0.28429   0.50500   0.96299   0.00000  Uiso   1.00
H26    H     0.47911   0.61084   0.36330   0.00000  Uiso   1.00
H27    H     0.37259   0.26428   0.23395   0.00000  Uiso   1.00
H28    H     0.15558   0.56606   0.70035   0.00000  Uiso   1.00
H29    H     0.56639   0.78921   0.54444   0.00000  Uiso   1.00
H30    H     0.34177   0.05842   0.27169   0.00000  Uiso   1.00
H31    H     0.12940   0.57548   0.03556   0.00000  Uiso   1.00
H32    H     0.02838   0.62352   0.80778   0.00000  Uiso   1.00
H33    H     0.22321   0.72937   0.20810   0.00000  Uiso   1.00
H34    H     0.11669   0.38281   0.07875   0.00000  Uiso   1.00
H35    H     0.94788   0.66226   0.57437   0.00000  Uiso   1.00
H36    H     0.35869   0.88542   0.41848   0.00000  Uiso   1.00
H37    H     0.13407   0.15462   0.14572   0.00000  Uiso   1.00
O38    O     0.98966   0.64378   0.49019   0.00000  Uiso   1.00
O39    O     0.52863   0.93653   0.59763   0.00000  Uiso   1.00
O40    O     0.23393   0.97775   0.23978   0.00000  Uiso   1.00
N41    N     0.12056   0.58208   0.70195   0.00000  Uiso   1.00
N42    N     0.50463   0.79073   0.49112   0.00000  Uiso   1.00
N43    N     0.29465   0.10751   0.23615   0.00000  Uiso   1.00
N44    N     0.00879   0.63385   0.63416   0.00000  Uiso   1.00
N45    N     0.39287   0.84250   0.42333   0.00000  Uiso   1.00
N46    N     0.18289   0.15927   0.16836   0.00000  Uiso   1.00
C47    C     0.68358   0.98885   0.35103   0.00000  Uiso   1.00
C48    C     0.76488   0.02718   0.49080   0.00000  Uiso   1.00
C49    C     0.77097   0.03059   0.57055   0.00000  Uiso   1.00
C50    C     0.85108   0.06828   0.69529   0.00000  Uiso   1.00
C51    C     0.96644   0.12282   0.90571   0.00000  Uiso   1.00
C52    C     0.65903   0.08470   0.27331   0.00000  Uiso   1.00
C53    C     0.57612   0.13646   0.17019   0.00000  Uiso   1.00
C54    C     0.56712   0.22256   0.11184   0.00000  Uiso   1.00
C55    C     0.51812   0.36635   0.98454   0.00000  Uiso   1.00
C56    C     0.71691   0.89640   0.34360   0.00000  Uiso   1.00
C57    C     0.68265   0.78984   0.29954   0.00000  Uiso   1.00
C58    C     0.72237   0.71741   0.30034   0.00000  Uiso   1.00
C59    C     0.76324   0.56884   0.28218   0.00000  Uiso   1.00
C60    C     0.81502   0.04973   0.43073   0.00000  Uiso   1.00
C61    C     0.83627   0.06025   0.53409   0.00000  Uiso   1.00
C62    C     0.91639   0.09794   0.65874   0.00000  Uiso   1.00
C63    C     0.92260   0.10140   0.73867   0.00000  Uiso   1.00
C64    C     0.73041   0.11777   0.31660   0.00000  Uiso   1.00
C65    C     0.72153   0.20381   0.25838   0.00000  Uiso   1.00
C66    C     0.63864   0.25569   0.15521   0.00000  Uiso   1.00
C67    C     0.78830   0.92947   0.38689   0.00000  Uiso   1.00
C68    C     0.82807   0.85719   0.38774   0.00000  Uiso   1.00
C69    C     0.79388   0.75054   0.34371   0.00000  Uiso   1.00
H70    H     0.62800   0.96311   0.31731   0.00000  Uiso   1.00
H71    H     0.71571   0.00500   0.53701   0.00000  Uiso   1.00
H72    H     0.52089   0.11084   0.13670   0.00000  Uiso   1.00
H73    H     0.62741   0.76428   0.26605   0.00000  Uiso   1.00
H74    H     0.84442   0.06606   0.79965   0.00000  Uiso   1.00
H75    H     0.43361   0.28921   0.95556   0.00000  Uiso   1.00
H76    H     0.65823   0.55842   0.22831   0.00000  Uiso   1.00
H77    H     0.87060   0.07548   0.46444   0.00000  Uiso   1.00
H78    H     0.97162   0.12352   0.69222   0.00000  Uiso   1.00
H79    H     0.77679   0.22937   0.29190   0.00000  Uiso   1.00
H80    H     0.88331   0.88281   0.42125   0.00000  Uiso   1.00
H81    H     0.05212   0.16226   0.92563   0.00000  Uiso   1.00
H82    H     0.64131   0.38542   0.08152   0.00000  Uiso   1.00
H83    H     0.86593   0.65462   0.35428   0.00000  Uiso   1.00
O84    O     0.01034   0.14378   0.00981   0.00000  Uiso   1.00
O85    O     0.47137   0.43653   0.90237   0.00000  Uiso   1.00
O86    O     0.76607   0.47775   0.26022   0.00000  Uiso   1.00
N87    N     0.87944   0.08208   0.79805   0.00000  Uiso   1.00
N88    N     0.49537   0.29073   0.00888   0.00000  Uiso   1.00
N89    N     0.70535   0.60751   0.26385   0.00000  Uiso   1.00
N90    N     0.99121   0.13385   0.86584   0.00000  Uiso   1.00
N91    N     0.60713   0.34250   0.07667   0.00000  Uiso   1.00
N92    N     0.81711   0.65927   0.33164   0.00000  Uiso   1.00
C93    C     0.68358   0.51115   0.85103   0.00000  Uiso   1.00
C94    C     0.76488   0.47282   0.99080   0.00000  Uiso   1.00
C95    C     0.77097   0.46941   0.07055   0.00000  Uiso   1.00
C96    C     0.85108   0.43172   0.19529   0.00000  Uiso   1.00
C97    C     0.96644   0.37718   0.40571   0.00000  Uiso   1.00
C98    C     0.65903   0.41530   0.77331   0.00000  Uiso   1.00
C99    C     0.57612   0.36354   0.67019   0.00000  Uiso   1.00
C100   C     0.56712   0.27744   0.61184   0.00000  Uiso   1.00
C101   C     0.51812   0.13365   0.48454   0.00000  Uiso   1.00
C102   C     0.71691   0.60360   0.84360   0.00000  Uiso   1.00
C103   C     0.68265   0.71016   0.79954   0.00000  Uiso   1.00
C104   C     0.72237   0.78259   0.80034   0.00000  Uiso   1.00
C105   C     0.76324   0.93116   0.78218   0.00000  Uiso   1.00
C106   C     0.81502   0.45027   0.93073   0.00000  Uiso   1.00
C107   C     0.83627   0.43975   0.03409   0.00000  Uiso   1.00
C108   C     0.91639   0.40206   0.15874   0.00000  Uiso   1.00
C109   C     0.92260   0.39860   0.23867   0.00000  Uiso   1.00
C110   C     0.73041   0.38223   0.81660   0.00000  Uiso   1.00
C111   C     0.72153   0.29619   0.75838   0.00000  Uiso   1.00
C112   C     0.63864   0.24431   0.65521   0.00000  Uiso   1.00
C113   C     0.78830   0.57053   0.88689   0.00000  Uiso   1.00
C114   C     0.82807   0.64281   0.88774   0.00000  Uiso   1.00
C115   C     0.79388   0.74946   0.84371   0.00000  Uiso   1.00
H116   H     0.62800   0.53689   0.81731   0.00000  Uiso   1.00
H117   H     0.71571   0.49500   0.03701   0.00000  Uiso   1.00
H118   H     0.52089   0.38916   0.63670   0.00000  Uiso   1.00
H119   H     0.62741   0.73572   0.76605   0.00000  Uiso   1.00
H120   H     0.84442   0.43394   0.29965   0.00000  Uiso   1.00
H121   H     0.43361   0.21079   0.45556   0.00000  Uiso   1.00
H122   H     0.65823   0.94158   0.72831   0.00000  Uiso   1.00
H123   H     0.87060   0.42452   0.96444   0.00000  Uiso   1.00
H124   H     0.97162   0.37648   0.19222   0.00000  Uiso   1.00
H125   H     0.77679   0.27063   0.79190   0.00000  Uiso   1.00
H126   H     0.88331   0.61719   0.92125   0.00000  Uiso   1.00
H127   H     0.05212   0.33774   0.42563   0.00000  Uiso   1.00
H128   H     0.64131   0.11458   0.58152   0.00000  Uiso   1.00
H129   H     0.86593   0.84538   0.85428   0.00000  Uiso   1.00
O130   O     0.01034   0.35622   0.50981   0.00000  Uiso   1.00
O131   O     0.47137   0.06347   0.40237   0.00000  Uiso   1.00
O132   O     0.76607   0.02225   0.76022   0.00000  Uiso   1.00
N133   N     0.87944   0.41792   0.29805   0.00000  Uiso   1.00
N134   N     0.49537   0.20927   0.50888   0.00000  Uiso   1.00
N135   N     0.70535   0.89249   0.76385   0.00000  Uiso   1.00
N136   N     0.99121   0.36615   0.36584   0.00000  Uiso   1.00
N137   N     0.60713   0.15750   0.57667   0.00000  Uiso   1.00
N138   N     0.81711   0.84073   0.83164   0.00000  Uiso   1.00
C139   C     0.31642   0.01115   0.64897   0.00000  Uiso   1.00
C140   C     0.23512   0.97282   0.50920   0.00000  Uiso   1.00
C141   C     0.22903   0.96941   0.42945   0.00000  Uiso   1.00
C142   C     0.14892   0.93172   0.30471   0.00000  Uiso   1.00
C143   C     0.03356   0.87718   0.09429   0.00000  Uiso   1.00
C144   C     0.34097   0.91530   0.72669   0.00000  Uiso   1.00
C145   C     0.42388   0.86354   0.82981   0.00000  Uiso   1.00
C146   C     0.43288   0.77744   0.88816   0.00000  Uiso   1.00
C147   C     0.48188   0.63365   0.01546   0.00000  Uiso   1.00
C148   C     0.28309   0.10360   0.65640   0.00000  Uiso   1.00
C149   C     0.31735   0.21016   0.70046   0.00000  Uiso   1.00
C150   C     0.27763   0.28259   0.69966   0.00000  Uiso   1.00
C151   C     0.23676   0.43116   0.71782   0.00000  Uiso   1.00
C152   C     0.18498   0.95027   0.56927   0.00000  Uiso   1.00
C153   C     0.16373   0.93975   0.46591   0.00000  Uiso   1.00
C154   C     0.08361   0.90206   0.34126   0.00000  Uiso   1.00
C155   C     0.07740   0.89860   0.26133   0.00000  Uiso   1.00
C156   C     0.26959   0.88223   0.68340   0.00000  Uiso   1.00
C157   C     0.27847   0.79619   0.74162   0.00000  Uiso   1.00
C158   C     0.36136   0.74431   0.84479   0.00000  Uiso   1.00
C159   C     0.21170   0.07053   0.61311   0.00000  Uiso   1.00
C160   C     0.17193   0.14281   0.61226   0.00000  Uiso   1.00
C161   C     0.20612   0.24946   0.65629   0.00000  Uiso   1.00
H162   H     0.37200   0.03689   0.68269   0.00000  Uiso   1.00
H163   H     0.28429   0.99500   0.46299   0.00000  Uiso   1.00
H164   H     0.47911   0.88916   0.86330   0.00000  Uiso   1.00
H165   H     0.37259   0.23572   0.73395   0.00000  Uiso   1.00
H166   H     0.15558   0.93394   0.20035   0.00000  Uiso   1.00
H167   H     0.56639   0.71079   0.04444   0.00000  Uiso   1.00
H168   H     0.34177   0.44158   0.77169   0.00000  Uiso   1.00
H169   H     0.12940   0.92452   0.53556   0.00000  Uiso   1.00
H170   H     0.02838   0.87648   0.30778   0.00000  Uiso   1.00
H171   H     0.22321   0.77063   0.70810   0.00000  Uiso   1.00
H172   H     0.11669   0.11719   0.57875   0.00000  Uiso   1.00
H173   H     0.94788   0.83774   0.07437   0.00000  Uiso   1.00
H174   H     0.35869   0.61458   0.91848   0.00000  Uiso   1.00
H175   H     0.13407   0.34538   0.64572   0.00000  Uiso   1.00
O176   O     0.98966   0.85622   0.99019   0.00000  Uiso   1.00
O177   O     0.52863   0.56347   0.09763   0.00000  Uiso   1.00
O178   O     0.23393   0.52225   0.73978   0.00000  Uiso   1.00
N179   N     0.12056   0.91792   0.20195   0.00000  Uiso   1.00
N180   N     0.50463   0.70927   0.99112   0.00000  Uiso   1.00
N181   N     0.29465   0.39249   0.73615   0.00000  Uiso   1.00
N182   N     0.00879   0.86615   0.13416   0.00000  Uiso   1.00
N183   N     0.39287   0.65750   0.92333   0.00000  Uiso   1.00
N184   N     0.18289   0.34073   0.66836   0.00000  Uiso   1.00
