data_job_06758
_audit_creation_date              2018-12-19
_audit_creation_method            'Materials Studio'
_symmetry_space_group_name_H-M    'P1'
_symmetry_Int_Tables_number       1
_symmetry_cell_setting            triclinic
loop_
_symmetry_equiv_pos_as_xyz
  x,y,z
_cell_length_a                    22.2518
_cell_length_b                    20.7478
_cell_length_c                    23.2783
_cell_angle_alpha                 70.9677
_cell_angle_beta                  74.4525
_cell_angle_gamma                 69.5269
loop_
_atom_site_label
_atom_site_type_symbol
_atom_site_fract_x
_atom_site_fract_y
_atom_site_fract_z
_atom_site_U_iso_or_equiv
_atom_site_adp_type
_atom_site_occupancy
C1     C     0.83992   0.17694   0.34179   0.00000  Uiso   1.00
C2     C     0.86472   0.23778   0.29611   0.00000  Uiso   1.00
C3     C     0.85687   0.26564   0.23481   0.00000  Uiso   1.00
C4     C     0.88313   0.32121   0.20064   0.00000  Uiso   1.00
C5     C     0.91665   0.41158   0.12571   0.00000  Uiso   1.00
C6     C     0.89939   0.12069   0.36616   0.00000  Uiso   1.00
C7     C     0.92069   0.05010   0.36376   0.00000  Uiso   1.00
C8     C     0.97614   0.00711   0.38857   0.00000  Uiso   1.00
C9     C     0.06347   0.91569   0.42243   0.00000  Uiso   1.00
C10    C     0.79719   0.20604   0.39621   0.00000  Uiso   1.00
C11    C     0.73256   0.20720   0.41910   0.00000  Uiso   1.00
C12    C     0.70197   0.23605   0.46922   0.00000  Uiso   1.00
C13    C     0.63061   0.27715   0.54975   0.00000  Uiso   1.00
C14    C     0.90052   0.22609   0.39012   0.00000  Uiso   1.00
C15    C     0.89763   0.26447   0.32236   0.00000  Uiso   1.00
C16    C     0.92391   0.32002   0.28828   0.00000  Uiso   1.00
C17    C     0.91610   0.34796   0.22694   0.00000  Uiso   1.00
C18    C     0.93231   0.14738   0.39241   0.00000  Uiso   1.00
C19    C     0.98774   0.10449   0.41723   0.00000  Uiso   1.00
C20    C     0.00912   0.03385   0.41487   0.00000  Uiso   1.00
C21    C     0.83010   0.23274   0.42246   0.00000  Uiso   1.00
C22    C     0.79960   0.26158   0.47257   0.00000  Uiso   1.00
C23    C     0.73494   0.26279   0.49552   0.00000  Uiso   1.00
H24    H     0.81430   0.15615   0.32135   0.00000  Uiso   1.00
H25    H     0.83140   0.24495   0.21451   0.00000  Uiso   1.00
H26    H     0.89521   0.02946   0.34344   0.00000  Uiso   1.00
H27    H     0.70711   0.18653   0.39877   0.00000  Uiso   1.00
H28    H     0.86489   0.35517   0.10762   0.00000  Uiso   1.00
H29    H     0.99942   0.90077   0.37951   0.00000  Uiso   1.00
H30    H     0.60277   0.23199   0.49618   0.00000  Uiso   1.00
H31    H     0.92615   0.24688   0.41056   0.00000  Uiso   1.00
H32    H     0.94938   0.34067   0.30861   0.00000  Uiso   1.00
H33    H     0.01319   0.12516   0.43755   0.00000  Uiso   1.00
H34    H     0.82509   0.28224   0.49287   0.00000  Uiso   1.00
H35    H     0.96065   0.43285   0.18400   0.00000  Uiso   1.00
H36    H     0.09519   0.97845   0.45589   0.00000  Uiso   1.00
H37    H     0.69854   0.30967   0.57256   0.00000  Uiso   1.00
O38    O     0.92606   0.45405   0.07713   0.00000  Uiso   1.00
O39    O     0.10255   0.85789   0.43385   0.00000  Uiso   1.00
O40    O     0.58216   0.29245   0.58691   0.00000  Uiso   1.00
N41    N     0.88423   0.36059   0.13959   0.00000  Uiso   1.00
N42    N     0.01002   0.93576   0.39379   0.00000  Uiso   1.00
N43    N     0.63918   0.24540   0.50287   0.00000  Uiso   1.00
N44    N     0.93576   0.40239   0.18069   0.00000  Uiso   1.00
N45    N     0.06154   0.97755   0.43488   0.00000  Uiso   1.00
N46    N     0.69071   0.28720   0.54397   0.00000  Uiso   1.00
C47    C     0.36766   0.76374   0.22147   0.00000  Uiso   1.00
C48    C     0.34246   0.81236   0.26501   0.00000  Uiso   1.00
C49    C     0.28689   0.81510   0.31005   0.00000  Uiso   1.00
C50    C     0.27212   0.86319   0.34511   0.00000  Uiso   1.00
C51    C     0.22698   0.93205   0.41417   0.00000  Uiso   1.00
C52    C     0.37293   0.81257   0.15633   0.00000  Uiso   1.00
C53    C     0.34298   0.81549   0.10999   0.00000  Uiso   1.00
C54    C     0.35387   0.86375   0.05356   0.00000  Uiso   1.00
C55    C     0.35607   0.93290   0.95387   0.00000  Uiso   1.00
C56    C     0.43732   0.72148   0.23087   0.00000  Uiso   1.00
C57    C     0.46152   0.64781   0.24719   0.00000  Uiso   1.00
C58    C     0.52662   0.61938   0.25350   0.00000  Uiso   1.00
C59    C     0.62879   0.54710   0.26955   0.00000  Uiso   1.00
C60    C     0.44024   0.84426   0.20367   0.00000  Uiso   1.00
C61    C     0.38188   0.85609   0.25534   0.00000  Uiso   1.00
C62    C     0.36719   0.90419   0.29035   0.00000  Uiso   1.00
C63    C     0.31161   0.90700   0.33543   0.00000  Uiso   1.00
C64    C     0.41235   0.85631   0.14666   0.00000  Uiso   1.00
C65    C     0.42328   0.90457   0.09029   0.00000  Uiso   1.00
C66    C     0.39336   0.90756   0.04387   0.00000  Uiso   1.00
C67    C     0.47674   0.76522   0.22120   0.00000  Uiso   1.00
C68    C     0.54182   0.73689   0.22749   0.00000  Uiso   1.00
C69    C     0.56611   0.66319   0.24382   0.00000  Uiso   1.00
H70    H     0.33697   0.72970   0.22900   0.00000  Uiso   1.00
H71    H     0.25639   0.78125   0.31751   0.00000  Uiso   1.00
H72    H     0.31248   0.78163   0.11748   0.00000  Uiso   1.00
H73    H     0.43100   0.61398   0.25466   0.00000  Uiso   1.00
H74    H     0.18444   0.85772   0.41137   0.00000  Uiso   1.00
H75    H     0.30272   0.85850   0.98959   0.00000  Uiso   1.00
H76    H     0.55264   0.50497   0.27886   0.00000  Uiso   1.00
H77    H     0.47093   0.87831   0.19614   0.00000  Uiso   1.00
H78    H     0.39771   0.93802   0.28285   0.00000  Uiso   1.00
H79    H     0.45379   0.93840   0.08282   0.00000  Uiso   1.00
H80    H     0.57231   0.77075   0.22000   0.00000  Uiso   1.00
H81    H     0.29913   0.98496   0.38323   0.00000  Uiso   1.00
H82    H     0.41741   0.98574   0.96145   0.00000  Uiso   1.00
H83    H     0.66733   0.63222   0.25073   0.00000  Uiso   1.00
O84    O     0.19119   0.95795   0.45492   0.00000  Uiso   1.00
O85    O     0.34638   0.95896   0.90156   0.00000  Uiso   1.00
O86    O     0.67426   0.49516   0.28108   0.00000  Uiso   1.00
N87    N     0.22149   0.87946   0.39285   0.00000  Uiso   1.00
N88    N     0.33207   0.88020   0.99852   0.00000  Uiso   1.00
N89    N     0.56572   0.54968   0.26895   0.00000  Uiso   1.00
N90    N     0.28320   0.94793   0.37772   0.00000  Uiso   1.00
N91    N     0.39378   0.94866   0.98338   0.00000  Uiso   1.00
N92    N     0.62743   0.61815   0.25381   0.00000  Uiso   1.00
C93    C     0.14431   0.28874   0.80787   0.00000  Uiso   1.00
C94    C     0.20567   0.25487   0.83682   0.00000  Uiso   1.00
C95    C     0.24673   0.18640   0.83894   0.00000  Uiso   1.00
C96    C     0.30036   0.16537   0.86749   0.00000  Uiso   1.00
C97    C     0.39378   0.10579   0.90860   0.00000  Uiso   1.00
C98    C     0.08907   0.31232   0.85865   0.00000  Uiso   1.00
C99    C     0.03210   0.29217   0.87913   0.00000  Uiso   1.00
C100   C     0.98757   0.31952   0.92606   0.00000  Uiso   1.00
C101   C     0.89996   0.34918   0.00103   0.00000  Uiso   1.00
C102   C     0.15341   0.35688   0.76028   0.00000  Uiso   1.00
C103   C     0.15051   0.37420   0.69805   0.00000  Uiso   1.00
C104   C     0.16012   0.43908   0.66216   0.00000  Uiso   1.00
C105   C     0.17239   0.53792   0.58440   0.00000  Uiso   1.00
C106   C     0.16652   0.37317   0.85478   0.00000  Uiso   1.00
C107   C     0.21773   0.30073   0.86230   0.00000  Uiso   1.00
C108   C     0.27131   0.27980   0.89085   0.00000  Uiso   1.00
C109   C     0.31245   0.21131   0.89302   0.00000  Uiso   1.00
C110   C     0.10114   0.35818   0.88413   0.00000  Uiso   1.00
C111   C     0.05668   0.38557   0.93103   0.00000  Uiso   1.00
C112   C     0.99966   0.36546   0.95158   0.00000  Uiso   1.00
C113   C     0.16547   0.40274   0.78576   0.00000  Uiso   1.00
C114   C     0.17509   0.46760   0.74996   0.00000  Uiso   1.00
C115   C     0.17221   0.48502   0.68769   0.00000  Uiso   1.00
H116   H     0.13491   0.25304   0.78803   0.00000  Uiso   1.00
H117   H     0.23738   0.15092   0.81922   0.00000  Uiso   1.00
H118   H     0.02278   0.25669   0.85940   0.00000  Uiso   1.00
H119   H     0.14117   0.33870   0.67835   0.00000  Uiso   1.00
H120   H     0.35628   0.05792   0.86507   0.00000  Uiso   1.00
H121   H     0.90378   0.28095   0.94976   0.00000  Uiso   1.00
H122   H     0.15343   0.45389   0.56799   0.00000  Uiso   1.00
H123   H     0.17591   0.40887   0.87462   0.00000  Uiso   1.00
H124   H     0.28063   0.31530   0.91056   0.00000  Uiso   1.00
H125   H     0.06603   0.42106   0.95074   0.00000  Uiso   1.00
H126   H     0.18442   0.50308   0.76969   0.00000  Uiso   1.00
H127   H     0.39139   0.19133   0.93920   0.00000  Uiso   1.00
H128   H     0.93888   0.41436   0.02390   0.00000  Uiso   1.00
H129   H     0.18853   0.58731   0.64213   0.00000  Uiso   1.00
O130   O     0.44197   0.06025   0.92424   0.00000  Uiso   1.00
O131   O     0.84830   0.35287   0.03535   0.00000  Uiso   1.00
O132   O     0.17583   0.57976   0.53447   0.00000  Uiso   1.00
N133   N     0.35018   0.10216   0.87757   0.00000  Uiso   1.00
N134   N     0.92712   0.31067   0.95677   0.00000  Uiso   1.00
N135   N     0.16050   0.47237   0.59984   0.00000  Uiso   1.00
N136   N     0.36907   0.17395   0.91746   0.00000  Uiso   1.00
N137   N     0.94601   0.38246   0.99666   0.00000  Uiso   1.00
N138   N     0.17940   0.54416   0.63973   0.00000  Uiso   1.00
C139   C     0.41846   0.91094   0.72573   0.00000  Uiso   1.00
C140   C     0.45348   0.90710   0.77533   0.00000  Uiso   1.00
C141   C     0.46532   0.85103   0.82732   0.00000  Uiso   1.00
C142   C     0.49811   0.85770   0.86714   0.00000  Uiso   1.00
C143   C     0.54943   0.84251   0.94594   0.00000  Uiso   1.00
C144   C     0.46551   0.92307   0.66482   0.00000  Uiso   1.00
C145   C     0.48747   0.88044   0.62390   0.00000  Uiso   1.00
C146   C     0.53038   0.90056   0.57070   0.00000  Uiso   1.00
C147   C     0.60035   0.91020   0.47791   0.00000  Uiso   1.00
C148   C     0.36188   0.97908   0.72213   0.00000  Uiso   1.00
C149   C     0.29669   0.98354   0.72938   0.00000  Uiso   1.00
C150   C     0.25235   0.05082   0.72441   0.00000  Uiso   1.00
C151   C     0.16142   0.14742   0.72060   0.00000  Uiso   1.00
C152   C     0.45564   0.02249   0.70399   0.00000  Uiso   1.00
C153   C     0.47367   0.96769   0.76352   0.00000  Uiso   1.00
C154   C     0.50645   0.97445   0.80327   0.00000  Uiso   1.00
C155   C     0.51833   0.91840   0.85532   0.00000  Uiso   1.00
C156   C     0.48571   0.98366   0.65301   0.00000  Uiso   1.00
C157   C     0.52859   0.00385   0.59985   0.00000  Uiso   1.00
C158   C     0.55061   0.96126   0.55887   0.00000  Uiso   1.00
C159   C     0.38207   0.03967   0.71032   0.00000  Uiso   1.00
C160   C     0.33782   0.10696   0.70533   0.00000  Uiso   1.00
C161   C     0.27258   0.11152   0.71258   0.00000  Uiso   1.00
H162   H     0.40275   0.86377   0.73491   0.00000  Uiso   1.00
H163   H     0.44969   0.80415   0.83644   0.00000  Uiso   1.00
H164   H     0.47183   0.83356   0.63305   0.00000  Uiso   1.00
H165   H     0.28109   0.93664   0.73851   0.00000  Uiso   1.00
H166   H     0.51066   0.76476   0.94378   0.00000  Uiso   1.00
H167   H     0.55732   0.82678   0.51491   0.00000  Uiso   1.00
H168   H     0.15511   0.04416   0.73730   0.00000  Uiso   1.00
H169   H     0.47136   0.06966   0.69479   0.00000  Uiso   1.00
H170   H     0.52206   0.02134   0.79412   0.00000  Uiso   1.00
H171   H     0.54420   0.05075   0.59073   0.00000  Uiso   1.00
H172   H     0.35346   0.15383   0.69619   0.00000  Uiso   1.00
H173   H     0.56941   0.94104   0.90943   0.00000  Uiso   1.00
H174   H     0.61607   0.00306   0.48056   0.00000  Uiso   1.00
H175   H     0.21385   0.22044   0.70295   0.00000  Uiso   1.00
O176   O     0.57217   0.81739   0.99266   0.00000  Uiso   1.00
O177   O     0.63338   0.89877   0.43000   0.00000  Uiso   1.00
O178   O     0.10568   0.18396   0.72177   0.00000  Uiso   1.00
N179   N     0.51752   0.81288   0.92207   0.00000  Uiso   1.00
N180   N     0.56115   0.87087   0.52111   0.00000  Uiso   1.00
N181   N     0.18511   0.07410   0.72901   0.00000  Uiso   1.00
N182   N     0.54913   0.90774   0.90359   0.00000  Uiso   1.00
N183   N     0.59276   0.96572   0.50263   0.00000  Uiso   1.00
N184   N     0.21672   0.16895   0.71053   0.00000  Uiso   1.00
C185   C     0.91235   0.69299   0.45184   0.00000  Uiso   1.00
C186   C     0.87695   0.76914   0.45658   0.00000  Uiso   1.00
C187   C     0.81780   0.81029   0.43803   0.00000  Uiso   1.00
C188   C     0.79349   0.87869   0.44626   0.00000  Uiso   1.00
C189   C     0.73339   0.99292   0.44971   0.00000  Uiso   1.00
C190   C     0.92267   0.64898   0.51703   0.00000  Uiso   1.00
C191   C     0.90197   0.58910   0.54929   0.00000  Uiso   1.00
C192   C     0.91618   0.55634   0.60840   0.00000  Uiso   1.00
C193   C     0.92710   0.48400   0.70567   0.00000  Uiso   1.00
C194   C     0.97993   0.69394   0.41454   0.00000  Uiso   1.00
C195   C     0.00738   0.67184   0.36064   0.00000  Uiso   1.00
C196   C     0.06979   0.67691   0.33347   0.00000  Uiso   1.00
C197   C     0.16961   0.67437   0.27163   0.00000  Uiso   1.00
C198   C     0.97438   0.74128   0.49944   0.00000  Uiso   1.00
C199   C     0.91064   0.79537   0.48244   0.00000  Uiso   1.00
C200   C     0.88642   0.86372   0.49069   0.00000  Uiso   1.00
C201   C     0.82725   0.90496   0.47215   0.00000  Uiso   1.00
C202   C     0.95636   0.67521   0.54288   0.00000  Uiso   1.00
C203   C     0.97060   0.64253   0.60195   0.00000  Uiso   1.00
C204   C     0.94993   0.58262   0.63430   0.00000  Uiso   1.00
C205   C     0.01362   0.72017   0.44039   0.00000  Uiso   1.00
C206   C     0.07600   0.72527   0.41330   0.00000  Uiso   1.00
C207   C     0.10355   0.70318   0.35937   0.00000  Uiso   1.00
H208   H     0.88612   0.67257   0.43172   0.00000  Uiso   1.00
H209   H     0.79173   0.78997   0.41803   0.00000  Uiso   1.00
H210   H     0.87591   0.56881   0.52927   0.00000  Uiso   1.00
H211   H     0.98129   0.65154   0.34065   0.00000  Uiso   1.00
H212   H     0.70194   0.93169   0.41428   0.00000  Uiso   1.00
H213   H     0.87944   0.46535   0.64882   0.00000  Uiso   1.00
H214   H     0.10167   0.63980   0.25109   0.00000  Uiso   1.00
H215   H     0.00061   0.76170   0.51957   0.00000  Uiso   1.00
H216   H     0.91251   0.88400   0.51070   0.00000  Uiso   1.00
H217   H     0.99668   0.66284   0.62194   0.00000  Uiso   1.00
H218   H     0.10206   0.74557   0.43332   0.00000  Uiso   1.00
H219   H     0.79996   0.00801   0.48949   0.00000  Uiso   1.00
H220   H     0.97747   0.54166   0.72404   0.00000  Uiso   1.00
H221   H     0.19969   0.71612   0.32630   0.00000  Uiso   1.00
O222   O     0.69092   0.04869   0.44449   0.00000  Uiso   1.00
O223   O     0.92381   0.43686   0.75219   0.00000  Uiso   1.00
O224   O     0.21536   0.66573   0.23037   0.00000  Uiso   1.00
N225   N     0.73711   0.93288   0.43319   0.00000  Uiso   1.00
N226   N     0.90305   0.49688   0.65247   0.00000  Uiso   1.00
N227   N     0.11082   0.65996   0.28063   0.00000  Uiso   1.00
N228   N     0.78985   0.97394   0.47366   0.00000  Uiso   1.00
N229   N     0.95580   0.53795   0.69295   0.00000  Uiso   1.00
N230   N     0.16357   0.70102   0.32110   0.00000  Uiso   1.00
C231   C     0.67776   0.45183   0.99600   0.00000  Uiso   1.00
C232   C     0.73790   0.47833   0.96948   0.00000  Uiso   1.00
C233   C     0.78174   0.46688   0.91624   0.00000  Uiso   1.00
C234   C     0.83363   0.49553   0.89971   0.00000  Uiso   1.00
C235   C     0.92584   0.53083   0.85312   0.00000  Uiso   1.00
C236   C     0.62019   0.51771   0.00132   0.00000  Uiso   1.00
C237   C     0.56504   0.53937   0.97485   0.00000  Uiso   1.00
C238   C     0.51784   0.60116   0.98514   0.00000  Uiso   1.00
C239   C     0.42726   0.69757   0.98802   0.00000  Uiso   1.00
C240   C     0.68491   0.40826   0.06196   0.00000  Uiso   1.00
C241   C     0.68417   0.33789   0.08649   0.00000  Uiso   1.00
C242   C     0.69144   0.30754   0.14783   0.00000  Uiso   1.00
C243   C     0.70136   0.23400   0.24486   0.00000  Uiso   1.00
C244   C     0.69197   0.52306   0.06133   0.00000  Uiso   1.00
C245   C     0.74562   0.51703   0.00497   0.00000  Uiso   1.00
C246   C     0.79746   0.54570   0.98852   0.00000  Uiso   1.00
C247   C     0.84137   0.53429   0.93526   0.00000  Uiso   1.00
C248   C     0.62790   0.55640   0.03680   0.00000  Uiso   1.00
C249   C     0.58077   0.61818   0.04713   0.00000  Uiso   1.00
C250   C     0.52557   0.63993   0.02068   0.00000  Uiso   1.00
C251   C     0.69263   0.44695   0.09745   0.00000  Uiso   1.00
C252   C     0.69990   0.41670   0.15876   0.00000  Uiso   1.00
C253   C     0.69917   0.34630   0.18338   0.00000  Uiso   1.00
H254   H     0.67174   0.42171   0.96838   0.00000  Uiso   1.00
H255   H     0.77575   0.43694   0.88879   0.00000  Uiso   1.00
H256   H     0.55908   0.50941   0.94740   0.00000  Uiso   1.00
H257   H     0.67819   0.30796   0.05902   0.00000  Uiso   1.00
H258   H     0.89445   0.47092   0.81619   0.00000  Uiso   1.00
H259   H     0.43759   0.62371   0.93979   0.00000  Uiso   1.00
H260   H     0.68876   0.19892   0.17516   0.00000  Uiso   1.00
H261   H     0.69797   0.55319   0.08896   0.00000  Uiso   1.00
H262   H     0.80342   0.57564   0.01599   0.00000  Uiso   1.00
H263   H     0.58675   0.64811   0.07460   0.00000  Uiso   1.00
H264   H     0.70587   0.44666   0.18621   0.00000  Uiso   1.00
H265   H     0.91691   0.58350   0.91942   0.00000  Uiso   1.00
H266   H     0.46004   0.73628   0.04303   0.00000  Uiso   1.00
H267   H     0.71122   0.31149   0.27839   0.00000  Uiso   1.00
O268   O     0.97456   0.53963   0.81762   0.00000  Uiso   1.00
O269   O     0.37517   0.74007   0.97979   0.00000  Uiso   1.00
O270   O     0.70470   0.18275   0.28858   0.00000  Uiso   1.00
N271   N     0.88527   0.49432   0.85051   0.00000  Uiso   1.00
N272   N     0.45813   0.63718   0.96606   0.00000  Uiso   1.00
N273   N     0.69294   0.24004   0.18611   0.00000  Uiso   1.00
N274   N     0.89736   0.55490   0.90606   0.00000  Uiso   1.00
N275   N     0.47022   0.69775   0.02161   0.00000  Uiso   1.00
N276   N     0.70503   0.30061   0.24166   0.00000  Uiso   1.00
C277   C     0.16008   0.82306   0.65821   0.00000  Uiso   1.00
C278   C     0.13528   0.76222   0.70389   0.00000  Uiso   1.00
C279   C     0.14313   0.73436   0.76519   0.00000  Uiso   1.00
C280   C     0.11687   0.67879   0.79936   0.00000  Uiso   1.00
C281   C     0.08335   0.58842   0.87429   0.00000  Uiso   1.00
C282   C     0.10061   0.87931   0.63384   0.00000  Uiso   1.00
C283   C     0.07931   0.94990   0.63624   0.00000  Uiso   1.00
C284   C     0.02386   0.99289   0.61143   0.00000  Uiso   1.00
C285   C     0.93653   0.08431   0.57757   0.00000  Uiso   1.00
C286   C     0.20281   0.79396   0.60379   0.00000  Uiso   1.00
C287   C     0.26744   0.79280   0.58090   0.00000  Uiso   1.00
C288   C     0.29803   0.76395   0.53078   0.00000  Uiso   1.00
C289   C     0.36939   0.72285   0.45025   0.00000  Uiso   1.00
C290   C     0.09948   0.77391   0.60988   0.00000  Uiso   1.00
C291   C     0.10237   0.73553   0.67764   0.00000  Uiso   1.00
C292   C     0.07609   0.67998   0.71172   0.00000  Uiso   1.00
C293   C     0.08390   0.65204   0.77306   0.00000  Uiso   1.00
C294   C     0.06769   0.85262   0.60759   0.00000  Uiso   1.00
C295   C     0.01226   0.89551   0.58277   0.00000  Uiso   1.00
C296   C     0.99088   0.96615   0.58513   0.00000  Uiso   1.00
C297   C     0.16990   0.76726   0.57754   0.00000  Uiso   1.00
C298   C     0.20040   0.73842   0.52743   0.00000  Uiso   1.00
C299   C     0.26506   0.73721   0.50448   0.00000  Uiso   1.00
H300   H     0.18570   0.84385   0.67865   0.00000  Uiso   1.00
H301   H     0.16860   0.75505   0.78549   0.00000  Uiso   1.00
H302   H     0.10479   0.97054   0.65656   0.00000  Uiso   1.00
H303   H     0.29289   0.81347   0.60123   0.00000  Uiso   1.00
H304   H     0.13511   0.64483   0.89238   0.00000  Uiso   1.00
H305   H     0.00058   0.09923   0.62049   0.00000  Uiso   1.00
H306   H     0.39723   0.76801   0.50382   0.00000  Uiso   1.00
H307   H     0.07385   0.75312   0.58944   0.00000  Uiso   1.00
H308   H     0.05062   0.65933   0.69139   0.00000  Uiso   1.00
H309   H     0.98681   0.87484   0.56245   0.00000  Uiso   1.00
H310   H     0.17491   0.71776   0.50713   0.00000  Uiso   1.00
H311   H     0.03935   0.56715   0.81600   0.00000  Uiso   1.00
H312   H     0.90481   0.02155   0.54411   0.00000  Uiso   1.00
H313   H     0.30146   0.69033   0.42744   0.00000  Uiso   1.00
O314   O     0.07394   0.54595   0.92287   0.00000  Uiso   1.00
O315   O     0.89745   0.14211   0.56615   0.00000  Uiso   1.00
O316   O     0.41784   0.70755   0.41309   0.00000  Uiso   1.00
N317   N     0.11577   0.63941   0.86041   0.00000  Uiso   1.00
N318   N     0.98998   0.06424   0.60621   0.00000  Uiso   1.00
N319   N     0.36082   0.75460   0.49713   0.00000  Uiso   1.00
N320   N     0.06424   0.59761   0.81931   0.00000  Uiso   1.00
N321   N     0.93846   0.02245   0.56512   0.00000  Uiso   1.00
N322   N     0.30929   0.71280   0.45603   0.00000  Uiso   1.00
C323   C     0.63234   0.23626   0.77853   0.00000  Uiso   1.00
C324   C     0.65754   0.18764   0.73499   0.00000  Uiso   1.00
C325   C     0.71311   0.18490   0.68995   0.00000  Uiso   1.00
C326   C     0.72788   0.13681   0.65489   0.00000  Uiso   1.00
C327   C     0.77302   0.06795   0.58583   0.00000  Uiso   1.00
C328   C     0.62707   0.18743   0.84367   0.00000  Uiso   1.00
C329   C     0.65702   0.18451   0.89001   0.00000  Uiso   1.00
C330   C     0.64613   0.13625   0.94644   0.00000  Uiso   1.00
C331   C     0.64393   0.06710   0.04613   0.00000  Uiso   1.00
C332   C     0.56268   0.27852   0.76913   0.00000  Uiso   1.00
C333   C     0.53848   0.35219   0.75281   0.00000  Uiso   1.00
C334   C     0.47338   0.38062   0.74650   0.00000  Uiso   1.00
C335   C     0.37121   0.45290   0.73045   0.00000  Uiso   1.00
C336   C     0.55976   0.15574   0.79633   0.00000  Uiso   1.00
C337   C     0.61812   0.14391   0.74466   0.00000  Uiso   1.00
C338   C     0.63281   0.09581   0.70965   0.00000  Uiso   1.00
C339   C     0.68839   0.09300   0.66457   0.00000  Uiso   1.00
C340   C     0.58765   0.14369   0.85334   0.00000  Uiso   1.00
C341   C     0.57672   0.09543   0.90971   0.00000  Uiso   1.00
C342   C     0.60664   0.09244   0.95613   0.00000  Uiso   1.00
C343   C     0.52326   0.23478   0.77880   0.00000  Uiso   1.00
C344   C     0.45818   0.26311   0.77251   0.00000  Uiso   1.00
C345   C     0.43389   0.33681   0.75618   0.00000  Uiso   1.00
H346   H     0.66303   0.27030   0.77100   0.00000  Uiso   1.00
H347   H     0.74361   0.21875   0.68249   0.00000  Uiso   1.00
H348   H     0.68752   0.21837   0.88252   0.00000  Uiso   1.00
H349   H     0.56900   0.38602   0.74534   0.00000  Uiso   1.00
H350   H     0.81556   0.14228   0.58863   0.00000  Uiso   1.00
H351   H     0.69728   0.14150   0.01041   0.00000  Uiso   1.00
H352   H     0.44736   0.49503   0.72114   0.00000  Uiso   1.00
H353   H     0.52907   0.12169   0.80386   0.00000  Uiso   1.00
H354   H     0.60229   0.06198   0.71715   0.00000  Uiso   1.00
H355   H     0.54621   0.06160   0.91718   0.00000  Uiso   1.00
H356   H     0.42769   0.22925   0.78000   0.00000  Uiso   1.00
H357   H     0.70087   0.01504   0.61677   0.00000  Uiso   1.00
H358   H     0.58259   0.01426   0.03855   0.00000  Uiso   1.00
H359   H     0.33267   0.36778   0.74927   0.00000  Uiso   1.00
O360   O     0.80881   0.04205   0.54508   0.00000  Uiso   1.00
O361   O     0.65362   0.04104   0.09844   0.00000  Uiso   1.00
O362   O     0.32574   0.50484   0.71892   0.00000  Uiso   1.00
N363   N     0.77851   0.12054   0.60715   0.00000  Uiso   1.00
N364   N     0.66793   0.11980   0.00148   0.00000  Uiso   1.00
N365   N     0.43428   0.45032   0.73105   0.00000  Uiso   1.00
N366   N     0.71680   0.05207   0.62228   0.00000  Uiso   1.00
N367   N     0.60622   0.05134   0.01662   0.00000  Uiso   1.00
N368   N     0.37257   0.38185   0.74619   0.00000  Uiso   1.00
C369   C     0.85569   0.71126   0.19213   0.00000  Uiso   1.00
C370   C     0.79433   0.74513   0.16318   0.00000  Uiso   1.00
C371   C     0.75327   0.81360   0.16106   0.00000  Uiso   1.00
C372   C     0.69964   0.83463   0.13251   0.00000  Uiso   1.00
C373   C     0.60622   0.89421   0.09140   0.00000  Uiso   1.00
C374   C     0.91093   0.68768   0.14135   0.00000  Uiso   1.00
C375   C     0.96790   0.70783   0.12087   0.00000  Uiso   1.00
C376   C     0.01243   0.68048   0.07394   0.00000  Uiso   1.00
C377   C     0.10004   0.65082   0.99897   0.00000  Uiso   1.00
C378   C     0.84659   0.64312   0.23972   0.00000  Uiso   1.00
C379   C     0.84949   0.62580   0.30195   0.00000  Uiso   1.00
C380   C     0.83988   0.56092   0.33784   0.00000  Uiso   1.00
C381   C     0.82761   0.46208   0.41560   0.00000  Uiso   1.00
C382   C     0.83348   0.62683   0.14522   0.00000  Uiso   1.00
C383   C     0.78227   0.69927   0.13770   0.00000  Uiso   1.00
C384   C     0.72869   0.72020   0.10915   0.00000  Uiso   1.00
C385   C     0.68755   0.78869   0.10698   0.00000  Uiso   1.00
C386   C     0.89886   0.64182   0.11587   0.00000  Uiso   1.00
C387   C     0.94332   0.61443   0.06897   0.00000  Uiso   1.00
C388   C     0.00034   0.63454   0.04842   0.00000  Uiso   1.00
C389   C     0.83453   0.59726   0.21424   0.00000  Uiso   1.00
C390   C     0.82491   0.53240   0.25004   0.00000  Uiso   1.00
C391   C     0.82779   0.51498   0.31231   0.00000  Uiso   1.00
H392   H     0.86509   0.74696   0.21197   0.00000  Uiso   1.00
H393   H     0.76262   0.84908   0.18078   0.00000  Uiso   1.00
H394   H     0.97722   0.74331   0.14060   0.00000  Uiso   1.00
H395   H     0.85883   0.66130   0.32165   0.00000  Uiso   1.00
H396   H     0.64372   0.94208   0.13493   0.00000  Uiso   1.00
H397   H     0.09622   0.71905   0.05024   0.00000  Uiso   1.00
H398   H     0.84657   0.54611   0.43201   0.00000  Uiso   1.00
H399   H     0.82409   0.59113   0.12538   0.00000  Uiso   1.00
H400   H     0.71937   0.68470   0.08944   0.00000  Uiso   1.00
H401   H     0.93397   0.57894   0.04926   0.00000  Uiso   1.00
H402   H     0.81558   0.49692   0.23031   0.00000  Uiso   1.00
H403   H     0.60861   0.80867   0.06080   0.00000  Uiso   1.00
H404   H     0.06112   0.58564   0.97610   0.00000  Uiso   1.00
H405   H     0.81147   0.41269   0.35787   0.00000  Uiso   1.00
O406   O     0.55803   0.93975   0.07576   0.00000  Uiso   1.00
O407   O     0.15170   0.64713   0.96465   0.00000  Uiso   1.00
O408   O     0.82417   0.42024   0.46553   0.00000  Uiso   1.00
N409   N     0.64982   0.89784   0.12243   0.00000  Uiso   1.00
N410   N     0.07288   0.68933   0.04323   0.00000  Uiso   1.00
N411   N     0.83950   0.52763   0.40016   0.00000  Uiso   1.00
N412   N     0.63093   0.82605   0.08254   0.00000  Uiso   1.00
N413   N     0.05399   0.61754   0.00334   0.00000  Uiso   1.00
N414   N     0.82060   0.45584   0.36027   0.00000  Uiso   1.00
C415   C     0.58154   0.08906   0.27427   0.00000  Uiso   1.00
C416   C     0.54652   0.09290   0.22467   0.00000  Uiso   1.00
C417   C     0.53468   0.14897   0.17268   0.00000  Uiso   1.00
C418   C     0.50189   0.14230   0.13286   0.00000  Uiso   1.00
C419   C     0.45057   0.15749   0.05406   0.00000  Uiso   1.00
C420   C     0.53449   0.07693   0.33518   0.00000  Uiso   1.00
C421   C     0.51253   0.11956   0.37610   0.00000  Uiso   1.00
C422   C     0.46962   0.09944   0.42930   0.00000  Uiso   1.00
C423   C     0.39965   0.08980   0.52209   0.00000  Uiso   1.00
C424   C     0.63812   0.02092   0.27787   0.00000  Uiso   1.00
C425   C     0.70331   0.01646   0.27062   0.00000  Uiso   1.00
C426   C     0.74765   0.94918   0.27559   0.00000  Uiso   1.00
C427   C     0.83858   0.85258   0.27940   0.00000  Uiso   1.00
C428   C     0.54436   0.97751   0.29601   0.00000  Uiso   1.00
C429   C     0.52633   0.03231   0.23648   0.00000  Uiso   1.00
C430   C     0.49355   0.02555   0.19673   0.00000  Uiso   1.00
C431   C     0.48167   0.08160   0.14468   0.00000  Uiso   1.00
C432   C     0.51429   0.01634   0.34699   0.00000  Uiso   1.00
C433   C     0.47141   0.99615   0.40015   0.00000  Uiso   1.00
C434   C     0.44939   0.03874   0.44113   0.00000  Uiso   1.00
C435   C     0.61793   0.96033   0.28968   0.00000  Uiso   1.00
C436   C     0.66218   0.89304   0.29467   0.00000  Uiso   1.00
C437   C     0.72742   0.88848   0.28742   0.00000  Uiso   1.00
H438   H     0.59725   0.13623   0.26509   0.00000  Uiso   1.00
H439   H     0.55031   0.19585   0.16356   0.00000  Uiso   1.00
H440   H     0.52817   0.16644   0.36695   0.00000  Uiso   1.00
H441   H     0.71891   0.06336   0.26149   0.00000  Uiso   1.00
H442   H     0.48934   0.23524   0.05622   0.00000  Uiso   1.00
H443   H     0.44268   0.17322   0.48509   0.00000  Uiso   1.00
H444   H     0.84489   0.95584   0.26270   0.00000  Uiso   1.00
H445   H     0.52864   0.93034   0.30521   0.00000  Uiso   1.00
H446   H     0.47794   0.97866   0.20588   0.00000  Uiso   1.00
H447   H     0.45580   0.94925   0.40927   0.00000  Uiso   1.00
H448   H     0.64654   0.84617   0.30381   0.00000  Uiso   1.00
H449   H     0.43059   0.05896   0.09057   0.00000  Uiso   1.00
H450   H     0.38393   0.99694   0.51944   0.00000  Uiso   1.00
H451   H     0.78615   0.77956   0.29705   0.00000  Uiso   1.00
O452   O     0.42783   0.18261   0.00734   0.00000  Uiso   1.00
O453   O     0.36662   0.10123   0.57000   0.00000  Uiso   1.00
O454   O     0.89432   0.81604   0.27823   0.00000  Uiso   1.00
N455   N     0.48248   0.18712   0.07793   0.00000  Uiso   1.00
N456   N     0.43885   0.12913   0.47889   0.00000  Uiso   1.00
N457   N     0.81489   0.92590   0.27099   0.00000  Uiso   1.00
N458   N     0.45087   0.09226   0.09641   0.00000  Uiso   1.00
N459   N     0.40724   0.03428   0.49737   0.00000  Uiso   1.00
N460   N     0.78328   0.83105   0.28947   0.00000  Uiso   1.00
C461   C     0.08765   0.30701   0.54816   0.00000  Uiso   1.00
C462   C     0.12305   0.23086   0.54342   0.00000  Uiso   1.00
C463   C     0.18220   0.18971   0.56197   0.00000  Uiso   1.00
C464   C     0.20651   0.12131   0.55374   0.00000  Uiso   1.00
C465   C     0.26661   0.00708   0.55029   0.00000  Uiso   1.00
C466   C     0.07733   0.35102   0.48297   0.00000  Uiso   1.00
C467   C     0.09803   0.41090   0.45071   0.00000  Uiso   1.00
C468   C     0.08382   0.44366   0.39160   0.00000  Uiso   1.00
C469   C     0.07290   0.51600   0.29433   0.00000  Uiso   1.00
C470   C     0.02007   0.30606   0.58546   0.00000  Uiso   1.00
C471   C     0.99262   0.32816   0.63936   0.00000  Uiso   1.00
C472   C     0.93021   0.32309   0.66653   0.00000  Uiso   1.00
C473   C     0.83039   0.32563   0.72837   0.00000  Uiso   1.00
C474   C     0.02562   0.25872   0.50056   0.00000  Uiso   1.00
C475   C     0.08936   0.20463   0.51756   0.00000  Uiso   1.00
C476   C     0.11358   0.13628   0.50931   0.00000  Uiso   1.00
C477   C     0.17275   0.09504   0.52785   0.00000  Uiso   1.00
C478   C     0.04364   0.32479   0.45712   0.00000  Uiso   1.00
C479   C     0.02940   0.35747   0.39805   0.00000  Uiso   1.00
C480   C     0.05007   0.41738   0.36570   0.00000  Uiso   1.00
C481   C     0.98638   0.27983   0.55961   0.00000  Uiso   1.00
C482   C     0.92400   0.27473   0.58670   0.00000  Uiso   1.00
C483   C     0.89645   0.29682   0.64063   0.00000  Uiso   1.00
H484   H     0.11388   0.32743   0.56828   0.00000  Uiso   1.00
H485   H     0.20827   0.21003   0.58197   0.00000  Uiso   1.00
H486   H     0.12409   0.43119   0.47073   0.00000  Uiso   1.00
H487   H     0.01871   0.34846   0.65935   0.00000  Uiso   1.00
H488   H     0.29806   0.06831   0.58572   0.00000  Uiso   1.00
H489   H     0.12056   0.53465   0.35118   0.00000  Uiso   1.00
H490   H     0.89833   0.36020   0.74891   0.00000  Uiso   1.00
H491   H     0.99939   0.23830   0.48043   0.00000  Uiso   1.00
H492   H     0.08749   0.11600   0.48930   0.00000  Uiso   1.00
H493   H     0.00332   0.33716   0.37806   0.00000  Uiso   1.00
H494   H     0.89794   0.25443   0.56668   0.00000  Uiso   1.00
H495   H     0.20004   0.99199   0.51051   0.00000  Uiso   1.00
H496   H     0.02253   0.45834   0.27596   0.00000  Uiso   1.00
H497   H     0.80031   0.28388   0.67370   0.00000  Uiso   1.00
O498   O     0.30908   0.95131   0.55551   0.00000  Uiso   1.00
O499   O     0.07619   0.56314   0.24781   0.00000  Uiso   1.00
O500   O     0.78464   0.33427   0.76963   0.00000  Uiso   1.00
N501   N     0.26289   0.06712   0.56681   0.00000  Uiso   1.00
N502   N     0.09695   0.50312   0.34753   0.00000  Uiso   1.00
N503   N     0.88918   0.34004   0.71937   0.00000  Uiso   1.00
N504   N     0.21015   0.02606   0.52634   0.00000  Uiso   1.00
N505   N     0.04420   0.46205   0.30705   0.00000  Uiso   1.00
N506   N     0.83643   0.29898   0.67890   0.00000  Uiso   1.00
C507   C     0.32224   0.54817   0.00400   0.00000  Uiso   1.00
C508   C     0.26210   0.52167   0.03052   0.00000  Uiso   1.00
C509   C     0.21826   0.53312   0.08376   0.00000  Uiso   1.00
C510   C     0.16637   0.50447   0.10029   0.00000  Uiso   1.00
C511   C     0.07416   0.46917   0.14688   0.00000  Uiso   1.00
C512   C     0.37981   0.48229   0.99868   0.00000  Uiso   1.00
C513   C     0.43496   0.46063   0.02515   0.00000  Uiso   1.00
C514   C     0.48216   0.39884   0.01486   0.00000  Uiso   1.00
C515   C     0.57274   0.30243   0.01198   0.00000  Uiso   1.00
C516   C     0.31509   0.59174   0.93804   0.00000  Uiso   1.00
C517   C     0.31583   0.66211   0.91351   0.00000  Uiso   1.00
C518   C     0.30856   0.69246   0.85217   0.00000  Uiso   1.00
C519   C     0.29864   0.76600   0.75514   0.00000  Uiso   1.00
C520   C     0.30803   0.47694   0.93867   0.00000  Uiso   1.00
C521   C     0.25438   0.48297   0.99503   0.00000  Uiso   1.00
C522   C     0.20254   0.45430   0.01148   0.00000  Uiso   1.00
C523   C     0.15863   0.46571   0.06474   0.00000  Uiso   1.00
C524   C     0.37210   0.44360   0.96320   0.00000  Uiso   1.00
C525   C     0.41923   0.38182   0.95287   0.00000  Uiso   1.00
C526   C     0.47443   0.36007   0.97932   0.00000  Uiso   1.00
C527   C     0.30737   0.55305   0.90255   0.00000  Uiso   1.00
C528   C     0.30010   0.58330   0.84124   0.00000  Uiso   1.00
C529   C     0.30083   0.65370   0.81662   0.00000  Uiso   1.00
H530   H     0.32826   0.57829   0.03162   0.00000  Uiso   1.00
H531   H     0.22425   0.56306   0.11121   0.00000  Uiso   1.00
H532   H     0.44092   0.49059   0.05260   0.00000  Uiso   1.00
H533   H     0.32181   0.69204   0.94098   0.00000  Uiso   1.00
H534   H     0.10555   0.52908   0.18381   0.00000  Uiso   1.00
H535   H     0.56241   0.37629   0.06021   0.00000  Uiso   1.00
H536   H     0.31124   0.80108   0.82484   0.00000  Uiso   1.00
H537   H     0.30203   0.44681   0.91104   0.00000  Uiso   1.00
H538   H     0.19658   0.42436   0.98401   0.00000  Uiso   1.00
H539   H     0.41325   0.35189   0.92540   0.00000  Uiso   1.00
H540   H     0.29413   0.55334   0.81379   0.00000  Uiso   1.00
H541   H     0.08309   0.41650   0.08058   0.00000  Uiso   1.00
H542   H     0.53996   0.26372   0.95697   0.00000  Uiso   1.00
H543   H     0.28878   0.68851   0.72161   0.00000  Uiso   1.00
O544   O     0.02544   0.46037   0.18238   0.00000  Uiso   1.00
O545   O     0.62483   0.25993   0.02021   0.00000  Uiso   1.00
O546   O     0.29530   0.81725   0.71142   0.00000  Uiso   1.00
N547   N     0.11473   0.50568   0.14949   0.00000  Uiso   1.00
N548   N     0.54187   0.36282   0.03394   0.00000  Uiso   1.00
N549   N     0.30706   0.75996   0.81389   0.00000  Uiso   1.00
N550   N     0.10264   0.44510   0.09394   0.00000  Uiso   1.00
N551   N     0.52978   0.30225   0.97839   0.00000  Uiso   1.00
N552   N     0.29497   0.69939   0.75834   0.00000  Uiso   1.00
