data_job_05074
_audit_creation_date              2018-12-19
_audit_creation_method            'Materials Studio'
_symmetry_space_group_name_H-M    'P1'
_symmetry_Int_Tables_number       1
_symmetry_cell_setting            triclinic
loop_
_symmetry_equiv_pos_as_xyz
  x,y,z
_cell_length_a                    10.1087
_cell_length_b                    10.1087
_cell_length_c                    21.8361
_cell_angle_alpha                 90.0000
_cell_angle_beta                  90.0000
_cell_angle_gamma                 90.0000
loop_
_atom_site_label
_atom_site_type_symbol
_atom_site_fract_x
_atom_site_fract_y
_atom_site_fract_z
_atom_site_U_iso_or_equiv
_atom_site_adp_type
_atom_site_occupancy
C1     C     0.20040   0.72007   0.78454   0.00000  Uiso   1.00
C2     C     0.13660   0.79518   0.83741   0.00000  Uiso   1.00
C3     C     0.00177   0.80609   0.84825   0.00000  Uiso   1.00
C4     C     0.96327   0.87914   0.89905   0.00000  Uiso   1.00
C5     C     0.85004   0.98671   0.97527   0.00000  Uiso   1.00
C6     C     0.28735   0.82000   0.75112   0.00000  Uiso   1.00
C7     C     0.27926   0.85177   0.68940   0.00000  Uiso   1.00
C8     C     0.36768   0.94570   0.66757   0.00000  Uiso   1.00
C9     C     0.48854   0.09174   0.60981   0.00000  Uiso   1.00
C10    C     0.29473   0.62064   0.81372   0.00000  Uiso   1.00
C11    C     0.29288   0.48478   0.80461   0.00000  Uiso   1.00
C12    C     0.38754   0.41087   0.83547   0.00000  Uiso   1.00
C13    C     0.51986   0.24736   0.87490   0.00000  Uiso   1.00
C14    C     0.37181   0.83040   0.85551   0.00000  Uiso   1.00
C15    C     0.22971   0.85511   0.87596   0.00000  Uiso   1.00
C16    C     0.19141   0.92815   0.92677   0.00000  Uiso   1.00
C17    C     0.05654   0.93917   0.93767   0.00000  Uiso   1.00
C18    C     0.38044   0.87993   0.78967   0.00000  Uiso   1.00
C19    C     0.46890   0.97383   0.76792   0.00000  Uiso   1.00
C20    C     0.46095   0.00574   0.70619   0.00000  Uiso   1.00
C21    C     0.38783   0.68056   0.85226   0.00000  Uiso   1.00
C22    C     0.48252   0.60685   0.88314   0.00000  Uiso   1.00
C23    C     0.48081   0.47090   0.87409   0.00000  Uiso   1.00
H24    H     0.12793   0.67342   0.75453   0.00000  Uiso   1.00
H25    H     0.92975   0.75971   0.81840   0.00000  Uiso   1.00
H26    H     0.20721   0.80537   0.65958   0.00000  Uiso   1.00
H27    H     0.22082   0.43844   0.77478   0.00000  Uiso   1.00
H28    H     0.75109   0.88185   0.90620   0.00000  Uiso   1.00
H29    H     0.33617   0.97809   0.57132   0.00000  Uiso   1.00
H30    H     0.36487   0.20435   0.81423   0.00000  Uiso   1.00
H31    H     0.44430   0.87705   0.88552   0.00000  Uiso   1.00
H32    H     0.26348   0.97452   0.95659   0.00000  Uiso   1.00
H33    H     0.54094   0.02018   0.79777   0.00000  Uiso   1.00
H34    H     0.55455   0.65325   0.91296   0.00000  Uiso   1.00
H35    H     0.02195   0.05620   0.01836   0.00000  Uiso   1.00
H36    H     0.60704   0.15244   0.68348   0.00000  Uiso   1.00
H37    H     0.63573   0.37870   0.92639   0.00000  Uiso   1.00
O38    O     0.76186   0.02950   0.00666   0.00000  Uiso   1.00
O39    O     0.52948   0.15574   0.56730   0.00000  Uiso   1.00
O40    O     0.56712   0.14062   0.88600   0.00000  Uiso   1.00
N41    N     0.83965   0.90948   0.92285   0.00000  Uiso   1.00
N42    N     0.38665   0.99948   0.60976   0.00000  Uiso   1.00
N43    N     0.41351   0.27610   0.83685   0.00000  Uiso   1.00
N44    N     0.98540   0.00330   0.98321   0.00000  Uiso   1.00
N45    N     0.53240   0.09329   0.67011   0.00000  Uiso   1.00
N46    N     0.55926   0.36992   0.89720   0.00000  Uiso   1.00
C47    C     0.79960   0.27993   0.28454   0.00000  Uiso   1.00
C48    C     0.86340   0.20482   0.33741   0.00000  Uiso   1.00
C49    C     0.99823   0.19391   0.34825   0.00000  Uiso   1.00
C50    C     0.03673   0.12086   0.39905   0.00000  Uiso   1.00
C51    C     0.14996   0.01329   0.47527   0.00000  Uiso   1.00
C52    C     0.71265   0.18000   0.25112   0.00000  Uiso   1.00
C53    C     0.72074   0.14823   0.18940   0.00000  Uiso   1.00
C54    C     0.63232   0.05430   0.16757   0.00000  Uiso   1.00
C55    C     0.51146   0.90826   0.10981   0.00000  Uiso   1.00
C56    C     0.70527   0.37936   0.31372   0.00000  Uiso   1.00
C57    C     0.70712   0.51522   0.30461   0.00000  Uiso   1.00
C58    C     0.61246   0.58913   0.33547   0.00000  Uiso   1.00
C59    C     0.48014   0.75264   0.37490   0.00000  Uiso   1.00
C60    C     0.62819   0.16960   0.35551   0.00000  Uiso   1.00
C61    C     0.77029   0.14489   0.37596   0.00000  Uiso   1.00
C62    C     0.80859   0.07185   0.42677   0.00000  Uiso   1.00
C63    C     0.94346   0.06083   0.43767   0.00000  Uiso   1.00
C64    C     0.61956   0.12007   0.28967   0.00000  Uiso   1.00
C65    C     0.53110   0.02617   0.26792   0.00000  Uiso   1.00
C66    C     0.53905   0.99426   0.20619   0.00000  Uiso   1.00
C67    C     0.61217   0.31944   0.35226   0.00000  Uiso   1.00
C68    C     0.51748   0.39315   0.38314   0.00000  Uiso   1.00
C69    C     0.51919   0.52910   0.37409   0.00000  Uiso   1.00
H70    H     0.87207   0.32658   0.25453   0.00000  Uiso   1.00
H71    H     0.07025   0.24029   0.31840   0.00000  Uiso   1.00
H72    H     0.79279   0.19463   0.15958   0.00000  Uiso   1.00
H73    H     0.77918   0.56156   0.27478   0.00000  Uiso   1.00
H74    H     0.24891   0.11815   0.40620   0.00000  Uiso   1.00
H75    H     0.66383   0.02191   0.07132   0.00000  Uiso   1.00
H76    H     0.63513   0.79565   0.31423   0.00000  Uiso   1.00
H77    H     0.55570   0.12295   0.38552   0.00000  Uiso   1.00
H78    H     0.73652   0.02548   0.45659   0.00000  Uiso   1.00
H79    H     0.45906   0.97982   0.29777   0.00000  Uiso   1.00
H80    H     0.44545   0.34675   0.41296   0.00000  Uiso   1.00
H81    H     0.97805   0.94380   0.51836   0.00000  Uiso   1.00
H82    H     0.39296   0.84756   0.18348   0.00000  Uiso   1.00
H83    H     0.36427   0.62130   0.42639   0.00000  Uiso   1.00
O84    O     0.23814   0.97050   0.50666   0.00000  Uiso   1.00
O85    O     0.47052   0.84426   0.06730   0.00000  Uiso   1.00
O86    O     0.43288   0.85938   0.38600   0.00000  Uiso   1.00
N87    N     0.16035   0.09052   0.42285   0.00000  Uiso   1.00
N88    N     0.61335   0.00052   0.10976   0.00000  Uiso   1.00
N89    N     0.58649   0.72390   0.33685   0.00000  Uiso   1.00
N90    N     0.01460   0.99670   0.48321   0.00000  Uiso   1.00
N91    N     0.46760   0.90671   0.17011   0.00000  Uiso   1.00
N92    N     0.44074   0.63008   0.39720   0.00000  Uiso   1.00
C93    C     0.27993   0.20040   0.03454   0.00000  Uiso   1.00
C94    C     0.20482   0.13660   0.08741   0.00000  Uiso   1.00
C95    C     0.19391   0.00177   0.09825   0.00000  Uiso   1.00
C96    C     0.12086   0.96327   0.14905   0.00000  Uiso   1.00
C97    C     0.01329   0.85004   0.22527   0.00000  Uiso   1.00
C98    C     0.18000   0.28735   0.00112   0.00000  Uiso   1.00
C99    C     0.14823   0.27926   0.93940   0.00000  Uiso   1.00
C100   C     0.05430   0.36768   0.91757   0.00000  Uiso   1.00
C101   C     0.90826   0.48854   0.85981   0.00000  Uiso   1.00
C102   C     0.37936   0.29473   0.06372   0.00000  Uiso   1.00
C103   C     0.51522   0.29288   0.05461   0.00000  Uiso   1.00
C104   C     0.58913   0.38754   0.08547   0.00000  Uiso   1.00
C105   C     0.75264   0.51986   0.12490   0.00000  Uiso   1.00
C106   C     0.16960   0.37181   0.10551   0.00000  Uiso   1.00
C107   C     0.14489   0.22971   0.12596   0.00000  Uiso   1.00
C108   C     0.07185   0.19141   0.17677   0.00000  Uiso   1.00
C109   C     0.06083   0.05654   0.18767   0.00000  Uiso   1.00
C110   C     0.12007   0.38044   0.03967   0.00000  Uiso   1.00
C111   C     0.02617   0.46890   0.01792   0.00000  Uiso   1.00
C112   C     0.99426   0.46095   0.95619   0.00000  Uiso   1.00
C113   C     0.31944   0.38783   0.10226   0.00000  Uiso   1.00
C114   C     0.39315   0.48252   0.13314   0.00000  Uiso   1.00
C115   C     0.52910   0.48081   0.12409   0.00000  Uiso   1.00
H116   H     0.32658   0.12793   0.00453   0.00000  Uiso   1.00
H117   H     0.24029   0.92975   0.06840   0.00000  Uiso   1.00
H118   H     0.19463   0.20721   0.90958   0.00000  Uiso   1.00
H119   H     0.56156   0.22082   0.02478   0.00000  Uiso   1.00
H120   H     0.11815   0.75109   0.15620   0.00000  Uiso   1.00
H121   H     0.02191   0.33617   0.82132   0.00000  Uiso   1.00
H122   H     0.79565   0.36487   0.06423   0.00000  Uiso   1.00
H123   H     0.12295   0.44430   0.13552   0.00000  Uiso   1.00
H124   H     0.02548   0.26348   0.20659   0.00000  Uiso   1.00
H125   H     0.97982   0.54094   0.04777   0.00000  Uiso   1.00
H126   H     0.34675   0.55455   0.16296   0.00000  Uiso   1.00
H127   H     0.94380   0.02195   0.26836   0.00000  Uiso   1.00
H128   H     0.84756   0.60704   0.93348   0.00000  Uiso   1.00
H129   H     0.62130   0.63573   0.17639   0.00000  Uiso   1.00
O130   O     0.97050   0.76186   0.25666   0.00000  Uiso   1.00
O131   O     0.84426   0.52948   0.81730   0.00000  Uiso   1.00
O132   O     0.85938   0.56712   0.13600   0.00000  Uiso   1.00
N133   N     0.09052   0.83965   0.17285   0.00000  Uiso   1.00
N134   N     0.00052   0.38665   0.85976   0.00000  Uiso   1.00
N135   N     0.72390   0.41351   0.08685   0.00000  Uiso   1.00
N136   N     0.99670   0.98540   0.23321   0.00000  Uiso   1.00
N137   N     0.90671   0.53240   0.92011   0.00000  Uiso   1.00
N138   N     0.63008   0.55926   0.14720   0.00000  Uiso   1.00
C139   C     0.72007   0.79960   0.53454   0.00000  Uiso   1.00
C140   C     0.79518   0.86340   0.58741   0.00000  Uiso   1.00
C141   C     0.80609   0.99823   0.59825   0.00000  Uiso   1.00
C142   C     0.87914   0.03673   0.64905   0.00000  Uiso   1.00
C143   C     0.98671   0.14996   0.72527   0.00000  Uiso   1.00
C144   C     0.82000   0.71265   0.50112   0.00000  Uiso   1.00
C145   C     0.85177   0.72074   0.43940   0.00000  Uiso   1.00
C146   C     0.94570   0.63232   0.41757   0.00000  Uiso   1.00
C147   C     0.09174   0.51146   0.35981   0.00000  Uiso   1.00
C148   C     0.62064   0.70527   0.56372   0.00000  Uiso   1.00
C149   C     0.48478   0.70712   0.55461   0.00000  Uiso   1.00
C150   C     0.41087   0.61246   0.58547   0.00000  Uiso   1.00
C151   C     0.24736   0.48014   0.62490   0.00000  Uiso   1.00
C152   C     0.83040   0.62819   0.60551   0.00000  Uiso   1.00
C153   C     0.85511   0.77029   0.62596   0.00000  Uiso   1.00
C154   C     0.92815   0.80859   0.67677   0.00000  Uiso   1.00
C155   C     0.93917   0.94346   0.68767   0.00000  Uiso   1.00
C156   C     0.87993   0.61956   0.53967   0.00000  Uiso   1.00
C157   C     0.97383   0.53110   0.51792   0.00000  Uiso   1.00
C158   C     0.00574   0.53905   0.45619   0.00000  Uiso   1.00
C159   C     0.68056   0.61217   0.60226   0.00000  Uiso   1.00
C160   C     0.60685   0.51748   0.63314   0.00000  Uiso   1.00
C161   C     0.47090   0.51919   0.62409   0.00000  Uiso   1.00
H162   H     0.67342   0.87207   0.50453   0.00000  Uiso   1.00
H163   H     0.75971   0.07025   0.56840   0.00000  Uiso   1.00
H164   H     0.80537   0.79279   0.40958   0.00000  Uiso   1.00
H165   H     0.43844   0.77918   0.52478   0.00000  Uiso   1.00
H166   H     0.88185   0.24891   0.65620   0.00000  Uiso   1.00
H167   H     0.97809   0.66383   0.32132   0.00000  Uiso   1.00
H168   H     0.20435   0.63513   0.56423   0.00000  Uiso   1.00
H169   H     0.87705   0.55570   0.63552   0.00000  Uiso   1.00
H170   H     0.97452   0.73652   0.70659   0.00000  Uiso   1.00
H171   H     0.02018   0.45906   0.54777   0.00000  Uiso   1.00
H172   H     0.65325   0.44545   0.66296   0.00000  Uiso   1.00
H173   H     0.05620   0.97805   0.76836   0.00000  Uiso   1.00
H174   H     0.15244   0.39296   0.43348   0.00000  Uiso   1.00
H175   H     0.37870   0.36427   0.67639   0.00000  Uiso   1.00
O176   O     0.02950   0.23814   0.75666   0.00000  Uiso   1.00
O177   O     0.15574   0.47052   0.31730   0.00000  Uiso   1.00
O178   O     0.14062   0.43288   0.63600   0.00000  Uiso   1.00
N179   N     0.90948   0.16035   0.67285   0.00000  Uiso   1.00
N180   N     0.99948   0.61335   0.35976   0.00000  Uiso   1.00
N181   N     0.27610   0.58649   0.58685   0.00000  Uiso   1.00
N182   N     0.00330   0.01460   0.73321   0.00000  Uiso   1.00
N183   N     0.09329   0.46760   0.42011   0.00000  Uiso   1.00
N184   N     0.36992   0.44074   0.64720   0.00000  Uiso   1.00
