data_job_06443
_audit_creation_date              2018-12-19
_audit_creation_method            'Materials Studio'
_symmetry_space_group_name_H-M    'P1'
_symmetry_Int_Tables_number       1
_symmetry_cell_setting            triclinic
loop_
_symmetry_equiv_pos_as_xyz
  x,y,z
_cell_length_a                    18.4662
_cell_length_b                    18.3024
_cell_length_c                    18.0890
_cell_angle_alpha                 102.1210
_cell_angle_beta                  102.0620
_cell_angle_gamma                 101.8670
loop_
_atom_site_label
_atom_site_type_symbol
_atom_site_fract_x
_atom_site_fract_y
_atom_site_fract_z
_atom_site_U_iso_or_equiv
_atom_site_adp_type
_atom_site_occupancy
C1     C     0.24652   0.94380   0.49233   0.00000  Uiso   1.00
C2     C     0.33024   0.94771   0.52760   0.00000  Uiso   1.00
C3     C     0.39145   0.01296   0.54790   0.00000  Uiso   1.00
C4     C     0.46365   0.00463   0.57934   0.00000  Uiso   1.00
C5     C     0.59205   0.02150   0.63244   0.00000  Uiso   1.00
C6     C     0.22046   0.87982   0.41587   0.00000  Uiso   1.00
C7     C     0.18935   0.88800   0.34223   0.00000  Uiso   1.00
C8     C     0.16913   0.82252   0.27961   0.00000  Uiso   1.00
C9     C     0.12704   0.73399   0.15926   0.00000  Uiso   1.00
C10    C     0.20215   0.91420   0.54703   0.00000  Uiso   1.00
C11    C     0.15563   0.95128   0.58366   0.00000  Uiso   1.00
C12    C     0.11998   0.91474   0.63146   0.00000  Uiso   1.00
C13    C     0.04947   0.87958   0.71475   0.00000  Uiso   1.00
C14    C     0.26591   0.81297   0.51207   0.00000  Uiso   1.00
C15    C     0.34077   0.87664   0.53832   0.00000  Uiso   1.00
C16    C     0.41290   0.86821   0.56974   0.00000  Uiso   1.00
C17    C     0.47421   0.93344   0.59008   0.00000  Uiso   1.00
C18    C     0.23099   0.80876   0.42659   0.00000  Uiso   1.00
C19    C     0.21081   0.74325   0.36407   0.00000  Uiso   1.00
C20    C     0.17968   0.75133   0.29035   0.00000  Uiso   1.00
C21    C     0.21268   0.84314   0.55775   0.00000  Uiso   1.00
C22    C     0.17709   0.80653   0.60550   0.00000  Uiso   1.00
C23    C     0.13054   0.84354   0.64219   0.00000  Uiso   1.00
H24    H     0.23832   0.99912   0.48398   0.00000  Uiso   1.00
H25    H     0.38327   0.06794   0.53959   0.00000  Uiso   1.00
H26    H     0.18120   0.94300   0.33395   0.00000  Uiso   1.00
H27    H     0.14750   0.00627   0.57535   0.00000  Uiso   1.00
H28    H     0.54863   0.11290   0.60594   0.00000  Uiso   1.00
H29    H     0.12253   0.84945   0.17235   0.00000  Uiso   1.00
H30    H     0.05145   0.98286   0.68138   0.00000  Uiso   1.00
H31    H     0.27411   0.75764   0.52041   0.00000  Uiso   1.00
H32    H     0.42104   0.81321   0.57802   0.00000  Uiso   1.00
H33    H     0.21896   0.68827   0.37238   0.00000  Uiso   1.00
H34    H     0.18526   0.75154   0.61378   0.00000  Uiso   1.00
H35    H     0.57929   0.90615   0.63714   0.00000  Uiso   1.00
H36    H     0.15317   0.64270   0.20354   0.00000  Uiso   1.00
H37    H     0.08210   0.77611   0.71257   0.00000  Uiso   1.00
O38    O     0.65997   0.05043   0.65876   0.00000  Uiso   1.00
O39    O     0.10092   0.70479   0.08991   0.00000  Uiso   1.00
O40    O     0.00767   0.87983   0.75774   0.00000  Uiso   1.00
N41    N     0.53568   0.05662   0.60539   0.00000  Uiso   1.00
N42    N     0.13731   0.81031   0.20001   0.00000  Uiso   1.00
N43    N     0.07084   0.93503   0.67589   0.00000  Uiso   1.00
N44    N     0.55217   0.94537   0.62218   0.00000  Uiso   1.00
N45    N     0.15380   0.69906   0.21679   0.00000  Uiso   1.00
N46    N     0.08733   0.82378   0.69267   0.00000  Uiso   1.00
C47    C     0.48929   0.24612   0.94204   0.00000  Uiso   1.00
C48    C     0.52377   0.33053   0.94611   0.00000  Uiso   1.00
C49    C     0.54367   0.39241   0.01227   0.00000  Uiso   1.00
C50    C     0.57439   0.46517   0.00393   0.00000  Uiso   1.00
C51    C     0.62631   0.59465   0.02118   0.00000  Uiso   1.00
C52    C     0.41443   0.21989   0.87737   0.00000  Uiso   1.00
C53    C     0.34239   0.18873   0.88574   0.00000  Uiso   1.00
C54    C     0.28106   0.16835   0.81952   0.00000  Uiso   1.00
C55    C     0.16324   0.12600   0.73004   0.00000  Uiso   1.00
C56    C     0.54281   0.20110   0.91187   0.00000  Uiso   1.00
C57    C     0.57870   0.15413   0.94923   0.00000  Uiso   1.00
C58    C     0.62546   0.11792   0.91205   0.00000  Uiso   1.00
C59    C     0.70696   0.04640   0.87613   0.00000  Uiso   1.00
C60    C     0.50848   0.26531   0.80958   0.00000  Uiso   1.00
C61    C     0.53419   0.34094   0.87416   0.00000  Uiso   1.00
C62    C     0.56490   0.41363   0.86571   0.00000  Uiso   1.00
C63    C     0.58483   0.47561   0.93185   0.00000  Uiso   1.00
C64    C     0.42485   0.23031   0.80542   0.00000  Uiso   1.00
C65    C     0.36362   0.20996   0.73918   0.00000  Uiso   1.00
C66    C     0.29150   0.17879   0.74744   0.00000  Uiso   1.00
C67    C     0.55324   0.21152   0.83992   0.00000  Uiso   1.00
C68    C     0.59994   0.17536   0.80267   0.00000  Uiso   1.00
C69    C     0.63590   0.12835   0.83997   0.00000  Uiso   1.00
H70    H     0.48117   0.23801   0.99806   0.00000  Uiso   1.00
H71    H     0.53559   0.38432   0.06794   0.00000  Uiso   1.00
H72    H     0.33434   0.18067   0.94142   0.00000  Uiso   1.00
H73    H     0.57062   0.14608   0.00490   0.00000  Uiso   1.00
H74    H     0.60049   0.55113   0.11369   0.00000  Uiso   1.00
H75    H     0.17615   0.12170   0.84690   0.00000  Uiso   1.00
H76    H     0.67440   0.04876   0.98077   0.00000  Uiso   1.00
H77    H     0.51659   0.27342   0.75356   0.00000  Uiso   1.00
H78    H     0.57296   0.42168   0.81003   0.00000  Uiso   1.00
H79    H     0.37171   0.21803   0.68351   0.00000  Uiso   1.00
H80    H     0.60799   0.18344   0.74699   0.00000  Uiso   1.00
H81    H     0.63081   0.58146   0.90435   0.00000  Uiso   1.00
H82    H     0.20648   0.15202   0.63757   0.00000  Uiso   1.00
H83    H     0.70473   0.07909   0.77144   0.00000  Uiso   1.00
O84    O     0.65206   0.66319   0.05057   0.00000  Uiso   1.00
O85    O     0.09536   0.09978   0.70056   0.00000  Uiso   1.00
O86    O     0.74905   0.00409   0.87620   0.00000  Uiso   1.00
N87    N     0.59990   0.53792   0.05667   0.00000  Uiso   1.00
N88    N     0.20317   0.13644   0.80725   0.00000  Uiso   1.00
N89    N     0.66898   0.06823   0.93240   0.00000  Uiso   1.00
N90    N     0.61622   0.55424   0.94403   0.00000  Uiso   1.00
N91    N     0.21949   0.15276   0.69461   0.00000  Uiso   1.00
N92    N     0.68530   0.08455   0.81976   0.00000  Uiso   1.00
C93    C     0.94471   0.49100   0.24713   0.00000  Uiso   1.00
C94    C     0.94875   0.52601   0.33266   0.00000  Uiso   1.00
C95    C     0.01354   0.54604   0.39522   0.00000  Uiso   1.00
C96    C     0.00543   0.57726   0.46897   0.00000  Uiso   1.00
C97    C     0.02240   0.62994   0.60015   0.00000  Uiso   1.00
C98    C     0.88144   0.41557   0.22053   0.00000  Uiso   1.00
C99    C     0.88963   0.34276   0.18881   0.00000  Uiso   1.00
C100   C     0.82484   0.28101   0.16818   0.00000  Uiso   1.00
C101   C     0.73729   0.16225   0.12523   0.00000  Uiso   1.00
C102   C     0.91512   0.54500   0.20172   0.00000  Uiso   1.00
C103   C     0.95162   0.58100   0.15417   0.00000  Uiso   1.00
C104   C     0.91519   0.62821   0.11768   0.00000  Uiso   1.00
C105   C     0.87995   0.71040   0.04553   0.00000  Uiso   1.00
C106   C     0.81510   0.51082   0.26687   0.00000  Uiso   1.00
C107   C     0.87835   0.53676   0.34338   0.00000  Uiso   1.00
C108   C     0.87014   0.56796   0.41706   0.00000  Uiso   1.00
C109   C     0.93491   0.58804   0.47972   0.00000  Uiso   1.00
C110   C     0.81104   0.42633   0.23126   0.00000  Uiso   1.00
C111   C     0.74623   0.36468   0.21066   0.00000  Uiso   1.00
C112   C     0.75431   0.29179   0.17892   0.00000  Uiso   1.00
C113   C     0.84472   0.55576   0.21245   0.00000  Uiso   1.00
C114   C     0.80822   0.60292   0.17602   0.00000  Uiso   1.00
C115   C     0.84466   0.63899   0.12842   0.00000  Uiso   1.00
H116   H     0.99952   0.48262   0.23878   0.00000  Uiso   1.00
H117   H     0.06801   0.53769   0.38689   0.00000  Uiso   1.00
H118   H     0.94411   0.33445   0.18052   0.00000  Uiso   1.00
H119   H     0.00610   0.57265   0.14588   0.00000  Uiso   1.00
H120   H     0.11289   0.60348   0.55584   0.00000  Uiso   1.00
H121   H     0.85164   0.17492   0.12066   0.00000  Uiso   1.00
H122   H     0.98236   0.67722   0.04763   0.00000  Uiso   1.00
H123   H     0.76028   0.51919   0.27522   0.00000  Uiso   1.00
H124   H     0.81565   0.57628   0.42534   0.00000  Uiso   1.00
H125   H     0.69175   0.37303   0.21896   0.00000  Uiso   1.00
H126   H     0.75374   0.61124   0.18433   0.00000  Uiso   1.00
H127   H     0.90807   0.63480   0.58705   0.00000  Uiso   1.00
H128   H     0.64681   0.20624   0.15186   0.00000  Uiso   1.00
H129   H     0.77753   0.70854   0.07883   0.00000  Uiso   1.00
O130   O     0.05121   0.65601   0.66955   0.00000  Uiso   1.00
O131   O     0.70846   0.09376   0.09859   0.00000  Uiso   1.00
O132   O     0.87996   0.75277   0.00278   0.00000  Uiso   1.00
N133   N     0.05709   0.60303   0.54258   0.00000  Uiso   1.00
N134   N     0.81284   0.20235   0.13572   0.00000  Uiso   1.00
N135   N     0.93504   0.67195   0.06743   0.00000  Uiso   1.00
N136   N     0.94688   0.61988   0.55937   0.00000  Uiso   1.00
N137   N     0.70263   0.21920   0.15252   0.00000  Uiso   1.00
N138   N     0.82483   0.68880   0.08422   0.00000  Uiso   1.00
C139   C     0.74593   0.99047   0.44214   0.00000  Uiso   1.00
C140   C     0.82958   0.02521   0.44616   0.00000  Uiso   1.00
C141   C     0.89089   0.04526   0.51228   0.00000  Uiso   1.00
C142   C     0.96300   0.07621   0.50390   0.00000  Uiso   1.00
C143   C     0.09132   0.12852   0.52108   0.00000  Uiso   1.00
C144   C     0.71989   0.91492   0.37742   0.00000  Uiso   1.00
C145   C     0.68897   0.84223   0.38574   0.00000  Uiso   1.00
C146   C     0.66874   0.78034   0.31949   0.00000  Uiso   1.00
C147   C     0.62672   0.66142   0.22993   0.00000  Uiso   1.00
C148   C     0.70137   0.04452   0.41206   0.00000  Uiso   1.00
C149   C     0.65485   0.08079   0.44950   0.00000  Uiso   1.00
C150   C     0.61901   0.12799   0.41241   0.00000  Uiso   1.00
C151   C     0.54823   0.21030   0.37664   0.00000  Uiso   1.00
C152   C     0.76497   0.00979   0.30967   0.00000  Uiso   1.00
C153   C     0.83992   0.03570   0.37421   0.00000  Uiso   1.00
C154   C     0.91196   0.06664   0.36572   0.00000  Uiso   1.00
C155   C     0.97337   0.08673   0.43182   0.00000  Uiso   1.00
C156   C     0.73024   0.92541   0.30547   0.00000  Uiso   1.00
C157   C     0.71004   0.86361   0.23919   0.00000  Uiso   1.00
C158   C     0.67911   0.79085   0.24741   0.00000  Uiso   1.00
C159   C     0.71171   0.05501   0.34011   0.00000  Uiso   1.00
C160   C     0.67593   0.10217   0.30295   0.00000  Uiso   1.00
C161   C     0.62938   0.13851   0.34033   0.00000  Uiso   1.00
H162   H     0.73787   0.98229   0.49815   0.00000  Uiso   1.00
H163   H     0.88286   0.03712   0.56795   0.00000  Uiso   1.00
H164   H     0.68096   0.83413   0.44143   0.00000  Uiso   1.00
H165   H     0.64686   0.07265   0.50518   0.00000  Uiso   1.00
H166   H     0.04817   0.10251   0.61360   0.00000  Uiso   1.00
H167   H     0.62244   0.67449   0.34681   0.00000  Uiso   1.00
H168   H     0.55052   0.17746   0.48125   0.00000  Uiso   1.00
H169   H     0.77303   0.01797   0.25365   0.00000  Uiso   1.00
H170   H     0.91995   0.07475   0.31004   0.00000  Uiso   1.00
H171   H     0.71806   0.87176   0.18352   0.00000  Uiso   1.00
H172   H     0.68395   0.11028   0.24727   0.00000  Uiso   1.00
H173   H     0.07828   0.13305   0.40426   0.00000  Uiso   1.00
H174   H     0.65254   0.70503   0.13748   0.00000  Uiso   1.00
H175   H     0.58063   0.20800   0.27192   0.00000  Uiso   1.00
O176   O     0.15925   0.15447   0.55042   0.00000  Uiso   1.00
O177   O     0.60069   0.59293   0.20042   0.00000  Uiso   1.00
O178   O     0.50634   0.25281   0.37679   0.00000  Uiso   1.00
N179   N     0.03509   0.10192   0.55659   0.00000  Uiso   1.00
N180   N     0.63707   0.70174   0.30717   0.00000  Uiso   1.00
N181   N     0.56981   0.17196   0.43285   0.00000  Uiso   1.00
N182   N     0.05129   0.11835   0.44395   0.00000  Uiso   1.00
N183   N     0.65327   0.71818   0.19453   0.00000  Uiso   1.00
N184   N     0.58602   0.18840   0.32021   0.00000  Uiso   1.00
C185   C     0.98966   0.44347   0.74687   0.00000  Uiso   1.00
C186   C     0.02432   0.44755   0.83236   0.00000  Uiso   1.00
C187   C     0.04421   0.51293   0.89497   0.00000  Uiso   1.00
C188   C     0.07512   0.50474   0.96869   0.00000  Uiso   1.00
C189   C     0.12730   0.52186   0.09983   0.00000  Uiso   1.00
C190   C     0.91488   0.37966   0.72028   0.00000  Uiso   1.00
C191   C     0.84275   0.38797   0.68864   0.00000  Uiso   1.00
C192   C     0.78153   0.32263   0.66801   0.00000  Uiso   1.00
C193   C     0.66381   0.23435   0.62509   0.00000  Uiso   1.00
C194   C     0.04314   0.41356   0.70138   0.00000  Uiso   1.00
C195   C     0.07885   0.45036   0.65382   0.00000  Uiso   1.00
C196   C     0.12560   0.41355   0.61725   0.00000  Uiso   1.00
C197   C     0.20702   0.37790   0.54499   0.00000  Uiso   1.00
C198   C     0.00919   0.31264   0.76646   0.00000  Uiso   1.00
C199   C     0.03493   0.37648   0.84300   0.00000  Uiso   1.00
C200   C     0.06582   0.36819   0.91665   0.00000  Uiso   1.00
C201   C     0.08575   0.43355   0.97935   0.00000  Uiso   1.00
C202   C     0.92549   0.30860   0.73093   0.00000  Uiso   1.00
C203   C     0.86436   0.24323   0.71032   0.00000  Uiso   1.00
C204   C     0.79216   0.25144   0.67867   0.00000  Uiso   1.00
C205   C     0.05376   0.34250   0.71202   0.00000  Uiso   1.00
C206   C     0.10046   0.30561   0.67551   0.00000  Uiso   1.00
C207   C     0.13623   0.34236   0.62792   0.00000  Uiso   1.00
H208   H     0.98140   0.49880   0.73858   0.00000  Uiso   1.00
H209   H     0.03598   0.56792   0.88671   0.00000  Uiso   1.00
H210   H     0.83456   0.44297   0.68041   0.00000  Uiso   1.00
H211   H     0.07062   0.50535   0.64560   0.00000  Uiso   1.00
H212   H     0.10116   0.61321   0.05564   0.00000  Uiso   1.00
H213   H     0.67645   0.34975   0.62062   0.00000  Uiso   1.00
H214   H     0.17423   0.48129   0.54722   0.00000  Uiso   1.00
H215   H     0.01745   0.25731   0.77474   0.00000  Uiso   1.00
H216   H     0.07402   0.31319   0.92487   0.00000  Uiso   1.00
H217   H     0.87259   0.18824   0.71856   0.00000  Uiso   1.00
H218   H     0.10866   0.25062   0.68376   0.00000  Uiso   1.00
H219   H     0.13203   0.40646   0.08661   0.00000  Uiso   1.00
H220   H     0.70732   0.14300   0.65158   0.00000  Uiso   1.00
H221   H     0.20510   0.27454   0.57819   0.00000  Uiso   1.00
O222   O     0.15313   0.55093   0.16923   0.00000  Uiso   1.00
O223   O     0.59594   0.20529   0.59848   0.00000  Uiso   1.00
O224   O     0.24901   0.37787   0.50219   0.00000  Uiso   1.00
N225   N     0.10068   0.55688   0.04232   0.00000  Uiso   1.00
N226   N     0.70360   0.31057   0.63562   0.00000  Uiso   1.00
N227   N     0.16896   0.43354   0.56698   0.00000  Uiso   1.00
N228   N     0.11729   0.44563   0.05899   0.00000  Uiso   1.00
N229   N     0.72021   0.19932   0.65228   0.00000  Uiso   1.00
N230   N     0.18557   0.32229   0.58364   0.00000  Uiso   1.00
C231   C     0.44494   0.74698   0.99249   0.00000  Uiso   1.00
C232   C     0.44887   0.83148   0.02785   0.00000  Uiso   1.00
C233   C     0.51356   0.89321   0.04814   0.00000  Uiso   1.00
C234   C     0.50535   0.96611   0.07965   0.00000  Uiso   1.00
C235   C     0.52215   0.09570   0.13287   0.00000  Uiso   1.00
C236   C     0.38155   0.72070   0.91607   0.00000  Uiso   1.00
C237   C     0.38965   0.68928   0.84239   0.00000  Uiso   1.00
C238   C     0.32477   0.66891   0.77982   0.00000  Uiso   1.00
C239   C     0.23705   0.62647   0.65951   0.00000  Uiso   1.00
C240   C     0.41557   0.70223   0.04718   0.00000  Uiso   1.00
C241   C     0.45226   0.65526   0.08372   0.00000  Uiso   1.00
C242   C     0.41602   0.61932   0.13152   0.00000  Uiso   1.00
C243   C     0.38112   0.54819   0.21478   0.00000  Uiso   1.00
C244   C     0.31532   0.76665   0.01238   0.00000  Uiso   1.00
C245   C     0.37846   0.84217   0.03864   0.00000  Uiso   1.00
C246   C     0.37016   0.91498   0.07014   0.00000  Uiso   1.00
C247   C     0.43483   0.97681   0.09048   0.00000  Uiso   1.00
C248   C     0.31115   0.73139   0.92687   0.00000  Uiso   1.00
C249   C     0.24624   0.71105   0.86439   0.00000  Uiso   1.00
C250   C     0.25424   0.67962   0.79064   0.00000  Uiso   1.00
C251   C     0.34517   0.71292   0.05798   0.00000  Uiso   1.00
C252   C     0.30886   0.67703   0.10573   0.00000  Uiso   1.00
C253   C     0.34549   0.63002   0.14234   0.00000  Uiso   1.00
H254   H     0.49974   0.73865   0.98408   0.00000  Uiso   1.00
H255   H     0.56803   0.88492   0.03976   0.00000  Uiso   1.00
H256   H     0.44413   0.68102   0.83405   0.00000  Uiso   1.00
H257   H     0.50674   0.64700   0.07535   0.00000  Uiso   1.00
H258   H     0.61268   0.05180   0.10624   0.00000  Uiso   1.00
H259   H     0.35143   0.62183   0.67249   0.00000  Uiso   1.00
H260   H     0.48345   0.55010   0.18131   0.00000  Uiso   1.00
H261   H     0.26051   0.77497   0.02078   0.00000  Uiso   1.00
H262   H     0.31567   0.92323   0.07849   0.00000  Uiso   1.00
H263   H     0.19177   0.71933   0.87277   0.00000  Uiso   1.00
H264   H     0.25438   0.68531   0.11407   0.00000  Uiso   1.00
H265   H     0.40786   0.08290   0.13767   0.00000  Uiso   1.00
H266   H     0.14660   0.65292   0.70391   0.00000  Uiso   1.00
H267   H     0.27863   0.58120   0.21274   0.00000  Uiso   1.00
O268   O     0.55086   0.16423   0.15923   0.00000  Uiso   1.00
O269   O     0.20811   0.60011   0.59016   0.00000  Uiso   1.00
O270   O     0.38133   0.50601   0.25773   0.00000  Uiso   1.00
N271   N     0.55691   0.03877   0.10573   0.00000  Uiso   1.00
N272   N     0.31266   0.63679   0.70019   0.00000  Uiso   1.00
N273   N     0.43608   0.56971   0.17589   0.00000  Uiso   1.00
N274   N     0.44670   0.05551   0.12264   0.00000  Uiso   1.00
N275   N     0.20245   0.65352   0.71711   0.00000  Uiso   1.00
N276   N     0.32587   0.58644   0.19280   0.00000  Uiso   1.00
