data_job_06870
_audit_creation_date              2018-12-19
_audit_creation_method            'Materials Studio'
_symmetry_space_group_name_H-M    'P1'
_symmetry_Int_Tables_number       1
_symmetry_cell_setting            triclinic
loop_
_symmetry_equiv_pos_as_xyz
  x,y,z
_cell_length_a                    17.2255
_cell_length_b                    23.6736
_cell_length_c                    24.6206
_cell_angle_alpha                 113.7000
_cell_angle_beta                  79.3924
_cell_angle_gamma                 74.0992
loop_
_atom_site_label
_atom_site_type_symbol
_atom_site_fract_x
_atom_site_fract_y
_atom_site_fract_z
_atom_site_U_iso_or_equiv
_atom_site_adp_type
_atom_site_occupancy
C1     C     0.38632   0.73226   0.63911   0.00000  Uiso   1.00
C2     C     0.46004   0.66482   0.61176   0.00000  Uiso   1.00
C3     C     0.54620   0.65167   0.58766   0.00000  Uiso   1.00
C4     C     0.60374   0.58672   0.56482   0.00000  Uiso   1.00
C5     C     0.72243   0.48958   0.52213   0.00000  Uiso   1.00
C6     C     0.32587   0.72008   0.60160   0.00000  Uiso   1.00
C7     C     0.29920   0.75340   0.56896   0.00000  Uiso   1.00
C8     C     0.24377   0.73497   0.53758   0.00000  Uiso   1.00
C9     C     0.15410   0.72366   0.47914   0.00000  Uiso   1.00
C10    C     0.33807   0.74886   0.70556   0.00000  Uiso   1.00
C11    C     0.32165   0.80640   0.76034   0.00000  Uiso   1.00
C12    C     0.27648   0.81222   0.81649   0.00000  Uiso   1.00
C13    C     0.20576   0.84561   0.91948   0.00000  Uiso   1.00
C14    C     0.33528   0.64028   0.64142   0.00000  Uiso   1.00
C15    C     0.43232   0.61486   0.61301   0.00000  Uiso   1.00
C16    C     0.48974   0.54991   0.59021   0.00000  Uiso   1.00
C17    C     0.57597   0.53667   0.56608   0.00000  Uiso   1.00
C18    C     0.29814   0.67012   0.60285   0.00000  Uiso   1.00
C19    C     0.24274   0.65164   0.57151   0.00000  Uiso   1.00
C20    C     0.21600   0.68492   0.53883   0.00000  Uiso   1.00
C21    C     0.31035   0.69890   0.70682   0.00000  Uiso   1.00
C22    C     0.26519   0.70464   0.76289   0.00000  Uiso   1.00
C23    C     0.24871   0.76217   0.81775   0.00000  Uiso   1.00
H24    H     0.40790   0.77116   0.63814   0.00000  Uiso   1.00
H25    H     0.56763   0.69035   0.58669   0.00000  Uiso   1.00
H26    H     0.32066   0.79207   0.56800   0.00000  Uiso   1.00
H27    H     0.34311   0.84505   0.75935   0.00000  Uiso   1.00
H28    H     0.73250   0.57871   0.53019   0.00000  Uiso   1.00
H29    H     0.21172   0.79321   0.49079   0.00000  Uiso   1.00
H30    H     0.25907   0.90495   0.89430   0.00000  Uiso   1.00
H31    H     0.31369   0.60139   0.64240   0.00000  Uiso   1.00
H32    H     0.46826   0.51126   0.59119   0.00000  Uiso   1.00
H33    H     0.22129   0.61298   0.57250   0.00000  Uiso   1.00
H34    H     0.24375   0.66596   0.76385   0.00000  Uiso   1.00
H35    H     0.65185   0.43335   0.53383   0.00000  Uiso   1.00
H36    H     0.13107   0.64786   0.49444   0.00000  Uiso   1.00
H37    H     0.17841   0.75959   0.89795   0.00000  Uiso   1.00
O38    O     0.79555   0.44980   0.49823   0.00000  Uiso   1.00
O39    O     0.11230   0.73123   0.44656   0.00000  Uiso   1.00
O40    O     0.17442   0.87782   0.97594   0.00000  Uiso   1.00
N41    N     0.69231   0.55688   0.53809   0.00000  Uiso   1.00
N42    N     0.20542   0.75741   0.50125   0.00000  Uiso   1.00
N43    N     0.24966   0.86189   0.87849   0.00000  Uiso   1.00
N44    N     0.64891   0.47866   0.54005   0.00000  Uiso   1.00
N45    N     0.16203   0.67920   0.50321   0.00000  Uiso   1.00
N46    N     0.20627   0.78367   0.88045   0.00000  Uiso   1.00
C47    C     0.99443   0.32763   0.09554   0.00000  Uiso   1.00
C48    C     0.03624   0.37164   0.08173   0.00000  Uiso   1.00
C49    C     0.07755   0.40604   0.11777   0.00000  Uiso   1.00
C50    C     0.11159   0.44359   0.09721   0.00000  Uiso   1.00
C51    C     0.17755   0.51149   0.08410   0.00000  Uiso   1.00
C52    C     0.90165   0.35585   0.09905   0.00000  Uiso   1.00
C53    C     0.82980   0.37696   0.14964   0.00000  Uiso   1.00
C54    C     0.75054   0.40120   0.14366   0.00000  Uiso   1.00
C55    C     0.60755   0.44454   0.15741   0.00000  Uiso   1.00
C56    C     0.03646   0.25919   0.03692   0.00000  Uiso   1.00
C57    C     0.07794   0.19903   0.03528   0.00000  Uiso   1.00
C58    C     0.11216   0.14189   0.97699   0.00000  Uiso   1.00
C59    C     0.17849   0.03515   0.89428   0.00000  Uiso   1.00
C60    C     0.98142   0.33313   0.99496   0.00000  Uiso   1.00
C61    C     0.02917   0.37462   0.02710   0.00000  Uiso   1.00
C62    C     0.06316   0.41212   0.00648   0.00000  Uiso   1.00
C63    C     0.10451   0.44657   0.04248   0.00000  Uiso   1.00
C64    C     0.89458   0.35883   0.04442   0.00000  Uiso   1.00
C65    C     0.81541   0.38304   0.03836   0.00000  Uiso   1.00
C66    C     0.74346   0.40419   0.08893   0.00000  Uiso   1.00
C67    C     0.02940   0.26217   0.98229   0.00000  Uiso   1.00
C68    C     0.06355   0.20511   0.92399   0.00000  Uiso   1.00
C69    C     0.10508   0.14488   0.92226   0.00000  Uiso   1.00
H70    H     0.99992   0.32531   0.13808   0.00000  Uiso   1.00
H71    H     0.08300   0.40373   0.16005   0.00000  Uiso   1.00
H72    H     0.83529   0.37464   0.19191   0.00000  Uiso   1.00
H73    H     0.08340   0.19674   0.07757   0.00000  Uiso   1.00
H74    H     0.17196   0.49200   0.16033   0.00000  Uiso   1.00
H75    H     0.64966   0.43065   0.22751   0.00000  Uiso   1.00
H76    H     0.17283   0.05551   0.98639   0.00000  Uiso   1.00
H77    H     0.97591   0.33545   0.95242   0.00000  Uiso   1.00
H78    H     0.05768   0.41442   0.96420   0.00000  Uiso   1.00
H79    H     0.80997   0.38534   0.99607   0.00000  Uiso   1.00
H80    H     0.05807   0.20744   0.88172   0.00000  Uiso   1.00
H81    H     0.15141   0.50068   0.00137   0.00000  Uiso   1.00
H82    H     0.62910   0.43933   0.06855   0.00000  Uiso   1.00
H83    H     0.15228   0.06419   0.82743   0.00000  Uiso   1.00
O84    O     0.21588   0.54812   0.09196   0.00000  Uiso   1.00
O85    O     0.53064   0.46763   0.18009   0.00000  Uiso   1.00
O86    O     0.21704   0.97545   0.86375   0.00000  Uiso   1.00
N87    N     0.15592   0.48319   0.12129   0.00000  Uiso   1.00
N88    N     0.66759   0.42585   0.18411   0.00000  Uiso   1.00
N89    N     0.15670   0.07512   0.95868   0.00000  Uiso   1.00
N90    N     0.14486   0.48786   0.03576   0.00000  Uiso   1.00
N91    N     0.65653   0.43052   0.09857   0.00000  Uiso   1.00
N92    N     0.14564   0.07979   0.87315   0.00000  Uiso   1.00
C93    C     0.01884   0.85598   0.19318   0.00000  Uiso   1.00
C94    C     0.03560   0.87210   0.25535   0.00000  Uiso   1.00
C95    C     0.10450   0.83373   0.26371   0.00000  Uiso   1.00
C96    C     0.10833   0.85703   0.32428   0.00000  Uiso   1.00
C97    C     0.14390   0.87299   0.41316   0.00000  Uiso   1.00
C98    C     0.92960   0.85434   0.20423   0.00000  Uiso   1.00
C99    C     0.90939   0.80102   0.16961   0.00000  Uiso   1.00
C100   C     0.82398   0.80938   0.18715   0.00000  Uiso   1.00
C101   C     0.69498   0.79777   0.19665   0.00000  Uiso   1.00
C102   C     0.01200   0.91663   0.18349   0.00000  Uiso   1.00
C103   C     0.06104   0.91569   0.13141   0.00000  Uiso   1.00
C104   C     0.04499   0.97649   0.13148   0.00000  Uiso   1.00
C105   C     0.04392   0.06160   0.10876   0.00000  Uiso   1.00
C106   C     0.90311   0.96562   0.28589   0.00000  Uiso   1.00
C107   C     0.97274   0.93165   0.30570   0.00000  Uiso   1.00
C108   C     0.97647   0.95502   0.36628   0.00000  Uiso   1.00
C109   C     0.04536   0.91669   0.37473   0.00000  Uiso   1.00
C110   C     0.86675   0.91388   0.25459   0.00000  Uiso   1.00
C111   C     0.78135   0.92232   0.27218   0.00000  Uiso   1.00
C112   C     0.76101   0.86903   0.23760   0.00000  Uiso   1.00
C113   C     0.94914   0.97618   0.23384   0.00000  Uiso   1.00
C114   C     0.93301   0.03699   0.23399   0.00000  Uiso   1.00
C115   C     0.98202   0.03614   0.18193   0.00000  Uiso   1.00
H116   H     0.06777   0.80962   0.15397   0.00000  Uiso   1.00
H117   H     0.15313   0.78764   0.22473   0.00000  Uiso   1.00
H118   H     0.95804   0.75495   0.13064   0.00000  Uiso   1.00
H119   H     0.10968   0.86960   0.09245   0.00000  Uiso   1.00
H120   H     0.22003   0.78952   0.32538   0.00000  Uiso   1.00
H121   H     0.80868   0.72060   0.12698   0.00000  Uiso   1.00
H122   H     0.12842   0.96236   0.04645   0.00000  Uiso   1.00
H123   H     0.85417   0.01198   0.32510   0.00000  Uiso   1.00
H124   H     0.92781   0.00111   0.40524   0.00000  Uiso   1.00
H125   H     0.73273   0.96841   0.31115   0.00000  Uiso   1.00
H126   H     0.88436   0.08306   0.27297   0.00000  Uiso   1.00
H127   H     0.03715   0.96278   0.47189   0.00000  Uiso   1.00
H128   H     0.62580   0.89385   0.27349   0.00000  Uiso   1.00
H129   H     0.94555   0.13561   0.19296   0.00000  Uiso   1.00
O130   O     0.18087   0.86534   0.44828   0.00000  Uiso   1.00
O131   O     0.64120   0.77491   0.18798   0.00000  Uiso   1.00
O132   O     0.06070   0.09209   0.08232   0.00000  Uiso   1.00
N133   N     0.16689   0.83180   0.34886   0.00000  Uiso   1.00
N134   N     0.78230   0.76735   0.16338   0.00000  Uiso   1.00
N135   N     0.08123   0.99337   0.08808   0.00000  Uiso   1.00
N136   N     0.06849   0.92503   0.42770   0.00000  Uiso   1.00
N137   N     0.68390   0.86058   0.24221   0.00000  Uiso   1.00
N138   N     0.98282   0.08660   0.16692   0.00000  Uiso   1.00
C139   C     0.50446   0.10395   0.32597   0.00000  Uiso   1.00
C140   C     0.54047   0.07807   0.36737   0.00000  Uiso   1.00
C141   C     0.59926   0.09573   0.39516   0.00000  Uiso   1.00
C142   C     0.62421   0.06657   0.43134   0.00000  Uiso   1.00
C143   C     0.68506   0.03329   0.49443   0.00000  Uiso   1.00
C144   C     0.40735   0.13456   0.35677   0.00000  Uiso   1.00
C145   C     0.35423   0.19971   0.37563   0.00000  Uiso   1.00
C146   C     0.26712   0.21810   0.40287   0.00000  Uiso   1.00
C147   C     0.12129   0.27250   0.44945   0.00000  Uiso   1.00
C148   C     0.52428   0.04221   0.26395   0.00000  Uiso   1.00
C149   C     0.56945   0.02971   0.20477   0.00000  Uiso   1.00
C150   C     0.58077   0.97035   0.15386   0.00000  Uiso   1.00
C151   C     0.61649   0.88136   0.05632   0.00000  Uiso   1.00
C152   C     0.44421   0.02076   0.34081   0.00000  Uiso   1.00
C153   C     0.50774   0.03289   0.37543   0.00000  Uiso   1.00
C154   C     0.53261   0.00369   0.41157   0.00000  Uiso   1.00
C155   C     0.59144   0.02130   0.43941   0.00000  Uiso   1.00
C156   C     0.37462   0.08938   0.36482   0.00000  Uiso   1.00
C157   C     0.28757   0.10767   0.39204   0.00000  Uiso   1.00
C158   C     0.23433   0.17283   0.41094   0.00000  Uiso   1.00
C159   C     0.49155   0.99702   0.27200   0.00000  Uiso   1.00
C160   C     0.50279   0.93767   0.22118   0.00000  Uiso   1.00
C161   C     0.54798   0.92508   0.16193   0.00000  Uiso   1.00
H162   H     0.52993   0.13913   0.31970   0.00000  Uiso   1.00
H163   H     0.62457   0.13071   0.38892   0.00000  Uiso   1.00
H164   H     0.37957   0.23467   0.36938   0.00000  Uiso   1.00
H165   H     0.59476   0.06469   0.19855   0.00000  Uiso   1.00
H166   H     0.71503   0.10146   0.46924   0.00000  Uiso   1.00
H167   H     0.19844   0.32066   0.42802   0.00000  Uiso   1.00
H168   H     0.65221   0.96223   0.06778   0.00000  Uiso   1.00
H169   H     0.41873   0.98558   0.34708   0.00000  Uiso   1.00
H170   H     0.50727   0.96872   0.41780   0.00000  Uiso   1.00
H171   H     0.26227   0.07269   0.39826   0.00000  Uiso   1.00
H172   H     0.47746   0.90271   0.22743   0.00000  Uiso   1.00
H173   H     0.61983   0.96999   0.49268   0.00000  Uiso   1.00
H174   H     0.10323   0.18919   0.45146   0.00000  Uiso   1.00
H175   H     0.55701   0.83076   0.09122   0.00000  Uiso   1.00
O176   O     0.72766   0.02742   0.52701   0.00000  Uiso   1.00
O177   O     0.04990   0.31500   0.47292   0.00000  Uiso   1.00
O178   O     0.64525   0.84475   0.00030   0.00000  Uiso   1.00
N179   N     0.68049   0.07282   0.46504   0.00000  Uiso   1.00
N180   N     0.19750   0.27776   0.42651   0.00000  Uiso   1.00
N181   N     0.62172   0.94267   0.08972   0.00000  Uiso   1.00
N182   N     0.62926   0.00207   0.47765   0.00000  Uiso   1.00
N183   N     0.14627   0.20702   0.43913   0.00000  Uiso   1.00
N184   N     0.57050   0.87193   0.10233   0.00000  Uiso   1.00
C185   C     0.60402   0.24229   0.89421   0.00000  Uiso   1.00
C186   C     0.56065   0.31763   0.93764   0.00000  Uiso   1.00
C187   C     0.60215   0.36136   0.95474   0.00000  Uiso   1.00
C188   C     0.55102   0.42847   0.99493   0.00000  Uiso   1.00
C189   C     0.49728   0.54204   0.05896   0.00000  Uiso   1.00
C190   C     0.56579   0.22746   0.84135   0.00000  Uiso   1.00
C191   C     0.61163   0.19536   0.77750   0.00000  Uiso   1.00
C192   C     0.56483   0.18656   0.73664   0.00000  Uiso   1.00
C193   C     0.51907   0.16009   0.65117   0.00000  Uiso   1.00
C194   C     0.57281   0.21016   0.93170   0.00000  Uiso   1.00
C195   C     0.62454   0.16351   0.94381   0.00000  Uiso   1.00
C196   C     0.58365   0.14013   0.97901   0.00000  Uiso   1.00
C197   C     0.54879   0.08681   0.03383   0.00000  Uiso   1.00
C198   C     0.43940   0.28372   0.93517   0.00000  Uiso   1.00
C199   C     0.47123   0.34013   0.95988   0.00000  Uiso   1.00
C200   C     0.42003   0.40719   0.00006   0.00000  Uiso   1.00
C201   C     0.46145   0.45101   0.01723   0.00000  Uiso   1.00
C202   C     0.47638   0.24996   0.86360   0.00000  Uiso   1.00
C203   C     0.42950   0.24120   0.82282   0.00000  Uiso   1.00
C204   C     0.47525   0.20910   0.75892   0.00000  Uiso   1.00
C205   C     0.48340   0.23267   0.95395   0.00000  Uiso   1.00
C206   C     0.44241   0.20935   0.98913   0.00000  Uiso   1.00
C207   C     0.49407   0.16267   0.00129   0.00000  Uiso   1.00
H208   H     0.67363   0.22477   0.87689   0.00000  Uiso   1.00
H209   H     0.67135   0.34392   0.93751   0.00000  Uiso   1.00
H210   H     0.68082   0.17795   0.76030   0.00000  Uiso   1.00
H211   H     0.69373   0.14610   0.92659   0.00000  Uiso   1.00
H212   H     0.62939   0.48596   0.01452   0.00000  Uiso   1.00
H213   H     0.64936   0.13597   0.64085   0.00000  Uiso   1.00
H214   H     0.67659   0.06882   0.99150   0.00000  Uiso   1.00
H215   H     0.36979   0.30124   0.95249   0.00000  Uiso   1.00
H216   H     0.35083   0.42459   0.01727   0.00000  Uiso   1.00
H217   H     0.36031   0.25862   0.84005   0.00000  Uiso   1.00
H218   H     0.37322   0.22677   0.00634   0.00000  Uiso   1.00
H219   H     0.36925   0.55143   0.07925   0.00000  Uiso   1.00
H220   H     0.38922   0.20144   0.70558   0.00000  Uiso   1.00
H221   H     0.41645   0.13429   0.05623   0.00000  Uiso   1.00
O222   O     0.49233   0.59846   0.08812   0.00000  Uiso   1.00
O223   O     0.51854   0.13929   0.59788   0.00000  Uiso   1.00
O224   O     0.55426   0.05119   0.05793   0.00000  Uiso   1.00
N225   N     0.57077   0.48444   0.02088   0.00000  Uiso   1.00
N226   N     0.58944   0.15723   0.67152   0.00000  Uiso   1.00
N227   N     0.61490   0.09443   0.99933   0.00000  Uiso   1.00
N228   N     0.43079   0.51967   0.05571   0.00000  Uiso   1.00
N229   N     0.44946   0.19246   0.70635   0.00000  Uiso   1.00
N230   N     0.47491   0.12967   0.03417   0.00000  Uiso   1.00
C231   C     0.85171   0.73597   0.72590   0.00000  Uiso   1.00
C232   C     0.91269   0.68656   0.65900   0.00000  Uiso   1.00
C233   C     0.99486   0.64130   0.64263   0.00000  Uiso   1.00
C234   C     0.04040   0.60039   0.57884   0.00000  Uiso   1.00
C235   C     0.14045   0.52300   0.48192   0.00000  Uiso   1.00
C236   C     0.77028   0.72173   0.73077   0.00000  Uiso   1.00
C237   C     0.73271   0.70605   0.77475   0.00000  Uiso   1.00
C238   C     0.65835   0.69475   0.77137   0.00000  Uiso   1.00
C239   C     0.53728   0.67201   0.78590   0.00000  Uiso   1.00
C240   C     0.82745   0.80499   0.73023   0.00000  Uiso   1.00
C241   C     0.83793   0.85933   0.77377   0.00000  Uiso   1.00
C242   C     0.81169   0.91814   0.76995   0.00000  Uiso   1.00
C243   C     0.77939   0.02467   0.78365   0.00000  Uiso   1.00
C244   C     0.78646   0.74382   0.64171   0.00000  Uiso   1.00
C245   C     0.87724   0.69082   0.61327   0.00000  Uiso   1.00
C246   C     0.92267   0.64998   0.54948   0.00000  Uiso   1.00
C247   C     0.00489   0.60466   0.53302   0.00000  Uiso   1.00
C248   C     0.73484   0.72599   0.68504   0.00000  Uiso   1.00
C249   C     0.66052   0.71472   0.68160   0.00000  Uiso   1.00
C250   C     0.62285   0.69902   0.72556   0.00000  Uiso   1.00
C251   C     0.79201   0.80926   0.68450   0.00000  Uiso   1.00
C252   C     0.76574   0.86800   0.68062   0.00000  Uiso   1.00
C253   C     0.77618   0.92241   0.72414   0.00000  Uiso   1.00
H254   H     0.87930   0.73266   0.76150   0.00000  Uiso   1.00
H255   H     0.02226   0.63801   0.67804   0.00000  Uiso   1.00
H256   H     0.76015   0.70276   0.81014   0.00000  Uiso   1.00
H257   H     0.86536   0.85601   0.80915   0.00000  Uiso   1.00
H258   H     0.16512   0.53494   0.56533   0.00000  Uiso   1.00
H259   H     0.61242   0.67149   0.84388   0.00000  Uiso   1.00
H260   H     0.83427   0.99465   0.84182   0.00000  Uiso   1.00
H261   H     0.75887   0.74713   0.60610   0.00000  Uiso   1.00
H262   H     0.89522   0.65328   0.51410   0.00000  Uiso   1.00
H263   H     0.63311   0.71803   0.64620   0.00000  Uiso   1.00
H264   H     0.73832   0.87128   0.64522   0.00000  Uiso   1.00
H265   H     0.06201   0.54734   0.43228   0.00000  Uiso   1.00
H266   H     0.50930   0.68388   0.71083   0.00000  Uiso   1.00
H267   H     0.73116   0.00704   0.70876   0.00000  Uiso   1.00
O268   O     0.20543   0.47913   0.44109   0.00000  Uiso   1.00
O269   O     0.48030   0.65828   0.80655   0.00000  Uiso   1.00
O270   O     0.77137   0.08225   0.80383   0.00000  Uiso   1.00
N271   N     0.12215   0.55075   0.54664   0.00000  Uiso   1.00
N272   N     0.60541   0.67840   0.80706   0.00000  Uiso   1.00
N273   N     0.81281   0.98053   0.80514   0.00000  Uiso   1.00
N274   N     0.06667   0.55742   0.47505   0.00000  Uiso   1.00
N275   N     0.54993   0.68507   0.73547   0.00000  Uiso   1.00
N276   N     0.75732   0.98720   0.73355   0.00000  Uiso   1.00
C277   C     0.66712   0.21845   0.34675   0.00000  Uiso   1.00
C278   C     0.58959   0.28313   0.39165   0.00000  Uiso   1.00
C279   C     0.51039   0.28768   0.42266   0.00000  Uiso   1.00
C280   C     0.44775   0.35149   0.46173   0.00000  Uiso   1.00
C281   C     0.32494   0.44323   0.53028   0.00000  Uiso   1.00
C282   C     0.73973   0.22370   0.37324   0.00000  Uiso   1.00
C283   C     0.78676   0.17828   0.38877   0.00000  Uiso   1.00
C284   C     0.85052   0.19204   0.41233   0.00000  Uiso   1.00
C285   C     0.96085   0.19150   0.45226   0.00000  Uiso   1.00
C286   C     0.69233   0.22061   0.28513   0.00000  Uiso   1.00
C287   C     0.69953   0.17257   0.22657   0.00000  Uiso   1.00
C288   C     0.72341   0.18373   0.17594   0.00000  Uiso   1.00
C289   C     0.76014   0.17838   0.07907   0.00000  Uiso   1.00
C290   C     0.69674   0.32366   0.36098   0.00000  Uiso   1.00
C291   C     0.60568   0.34028   0.39937   0.00000  Uiso   1.00
C292   C     0.54315   0.40409   0.43840   0.00000  Uiso   1.00
C293   C     0.46387   0.40874   0.46946   0.00000  Uiso   1.00
C294   C     0.75582   0.28084   0.38097   0.00000  Uiso   1.00
C295   C     0.81953   0.29468   0.40451   0.00000  Uiso   1.00
C296   C     0.86664   0.24929   0.42007   0.00000  Uiso   1.00
C297   C     0.70842   0.27775   0.29285   0.00000  Uiso   1.00
C298   C     0.73230   0.28898   0.24231   0.00000  Uiso   1.00
C299   C     0.73953   0.24098   0.18368   0.00000  Uiso   1.00
H300   H     0.65460   0.17395   0.34074   0.00000  Uiso   1.00
H301   H     0.49796   0.24345   0.41667   0.00000  Uiso   1.00
H302   H     0.77430   0.13405   0.38278   0.00000  Uiso   1.00
H303   H     0.68708   0.12836   0.22061   0.00000  Uiso   1.00
H304   H     0.33141   0.34570   0.50429   0.00000  Uiso   1.00
H305   H     0.91411   0.11502   0.43280   0.00000  Uiso   1.00
H306   H     0.73018   0.10300   0.09083   0.00000  Uiso   1.00
H307   H     0.70926   0.36815   0.36699   0.00000  Uiso   1.00
H308   H     0.55562   0.44831   0.44437   0.00000  Uiso   1.00
H309   H     0.83196   0.33891   0.41047   0.00000  Uiso   1.00
H310   H     0.74474   0.33321   0.24830   0.00000  Uiso   1.00
H311   H     0.37821   0.51197   0.52677   0.00000  Uiso   1.00
H312   H     0.96091   0.28129   0.45527   0.00000  Uiso   1.00
H313   H     0.77698   0.26928   0.11331   0.00000  Uiso   1.00
O314   O     0.25276   0.47806   0.56597   0.00000  Uiso   1.00
O315   O     0.01725   0.17541   0.47216   0.00000  Uiso   1.00
O316   O     0.77594   0.15965   0.02351   0.00000  Uiso   1.00
N317   N     0.36350   0.37383   0.49895   0.00000  Uiso   1.00
N318   N     0.90828   0.15816   0.43212   0.00000  Uiso   1.00
N319   N     0.73635   0.14692   0.11240   0.00000  Uiso   1.00
N320   N     0.38868   0.46330   0.51104   0.00000  Uiso   1.00
N321   N     0.93346   0.24763   0.44422   0.00000  Uiso   1.00
N322   N     0.76153   0.23639   0.12450   0.00000  Uiso   1.00
C323   C     0.90921   0.65902   0.85632   0.00000  Uiso   1.00
C324   C     0.88141   0.62971   0.89781   0.00000  Uiso   1.00
C325   C     0.82552   0.59682   0.89148   0.00000  Uiso   1.00
C326   C     0.80823   0.57368   0.93412   0.00000  Uiso   1.00
C327   C     0.75944   0.52671   0.99133   0.00000  Uiso   1.00
C328   C     0.00676   0.62658   0.83008   0.00000  Uiso   1.00
C329   C     0.05626   0.59106   0.76680   0.00000  Uiso   1.00
C330   C     0.14450   0.56529   0.75244   0.00000  Uiso   1.00
C331   C     0.29031   0.51350   0.70449   0.00000  Uiso   1.00
C332   C     0.88652   0.73268   0.90069   0.00000  Uiso   1.00
C333   C     0.83493   0.78638   0.89678   0.00000  Uiso   1.00
C334   C     0.82195   0.84995   0.94186   0.00000  Uiso   1.00
C335   C     0.78106   0.96290   0.00356   0.00000  Uiso   1.00
C336   C     0.97789   0.67641   0.94332   0.00000  Uiso   1.00
C337   C     0.91872   0.63916   0.94506   0.00000  Uiso   1.00
C338   C     0.90151   0.61607   0.98772   0.00000  Uiso   1.00
C339   C     0.84560   0.58315   0.98146   0.00000  Uiso   1.00
C340   C     0.04407   0.63602   0.87733   0.00000  Uiso   1.00
C341   C     0.13225   0.61031   0.86305   0.00000  Uiso   1.00
C342   C     0.18187   0.57476   0.79977   0.00000  Uiso   1.00
C343   C     0.92383   0.74213   0.94795   0.00000  Uiso   1.00
C344   C     0.91092   0.80563   0.99303   0.00000  Uiso   1.00
C345   C     0.85932   0.85942   0.98920   0.00000  Uiso   1.00
H346   H     0.88017   0.65166   0.81953   0.00000  Uiso   1.00
H347   H     0.79667   0.58951   0.85490   0.00000  Uiso   1.00
H348   H     0.02737   0.58376   0.73025   0.00000  Uiso   1.00
H349   H     0.80608   0.77905   0.86021   0.00000  Uiso   1.00
H350   H     0.72057   0.52475   0.91493   0.00000  Uiso   1.00
H351   H     0.20703   0.51265   0.65210   0.00000  Uiso   1.00
H352   H     0.74038   0.92446   0.92615   0.00000  Uiso   1.00
H353   H     0.00694   0.68377   0.98011   0.00000  Uiso   1.00
H354   H     0.93039   0.62339   0.02429   0.00000  Uiso   1.00
H355   H     0.16110   0.61763   0.89963   0.00000  Uiso   1.00
H356   H     0.93980   0.81292   0.02959   0.00000  Uiso   1.00
H357   H     0.82911   0.55225   0.05241   0.00000  Uiso   1.00
H358   H     0.31557   0.54014   0.78957   0.00000  Uiso   1.00
H359   H     0.84892   0.95195   0.06362   0.00000  Uiso   1.00
O360   O     0.72222   0.49818   0.00982   0.00000  Uiso   1.00
O361   O     0.36043   0.48231   0.66499   0.00000  Uiso   1.00
O362   O     0.74820   0.02259   0.02454   0.00000  Uiso   1.00
N363   N     0.75661   0.53952   0.94123   0.00000  Uiso   1.00
N364   N     0.21141   0.52819   0.69550   0.00000  Uiso   1.00
N365   N     0.77516   0.91320   0.95170   0.00000  Uiso   1.00
N366   N     0.81501   0.55432   0.01521   0.00000  Uiso   1.00
N367   N     0.26982   0.54299   0.76947   0.00000  Uiso   1.00
N368   N     0.83356   0.92800   0.02568   0.00000  Uiso   1.00
C369   C     0.96986   0.08212   0.75530   0.00000  Uiso   1.00
C370   C     0.97130   0.02789   0.69425   0.00000  Uiso   1.00
C371   C     0.90723   0.03280   0.66746   0.00000  Uiso   1.00
C372   C     0.92069   0.97769   0.61146   0.00000  Uiso   1.00
C373   C     0.91156   0.90231   0.52093   0.00000  Uiso   1.00
C374   C     0.05054   0.09522   0.73855   0.00000  Uiso   1.00
C375   C     0.05309   0.15673   0.74903   0.00000  Uiso   1.00
C376   C     0.13326   0.15829   0.73033   0.00000  Uiso   1.00
C377   C     0.24715   0.18744   0.70863   0.00000  Uiso   1.00
C378   C     0.98221   0.05020   0.79757   0.00000  Uiso   1.00
C379   C     0.92731   0.07387   0.85768   0.00000  Uiso   1.00
C380   C     0.94996   0.03753   0.88867   0.00000  Uiso   1.00
C381   C     0.95775   0.99679   0.95860   0.00000  Uiso   1.00
C382   C     0.10771   0.97552   0.70347   0.00000  Uiso   1.00
C383   C     0.04618   0.96999   0.66610   0.00000  Uiso   1.00
C384   C     0.05974   0.91486   0.61012   0.00000  Uiso   1.00
C385   C     0.99570   0.91968   0.58326   0.00000  Uiso   1.00
C386   C     0.12542   0.03732   0.71040   0.00000  Uiso   1.00
C387   C     0.20560   0.03879   0.69169   0.00000  Uiso   1.00
C388   C     0.20827   0.10028   0.70213   0.00000  Uiso   1.00
C389   C     0.05708   0.99230   0.76942   0.00000  Uiso   1.00
C390   C     0.07982   0.95592   0.80033   0.00000  Uiso   1.00
C391   C     0.02497   0.97953   0.86047   0.00000  Uiso   1.00
H392   H     0.91157   0.12720   0.77722   0.00000  Uiso   1.00
H393   H     0.84930   0.07762   0.68926   0.00000  Uiso   1.00
H394   H     0.99514   0.20153   0.77082   0.00000  Uiso   1.00
H395   H     0.86938   0.11868   0.87945   0.00000  Uiso   1.00
H396   H     0.81329   0.99713   0.57932   0.00000  Uiso   1.00
H397   H     0.12080   0.25840   0.75131   0.00000  Uiso   1.00
H398   H     0.85561   0.08369   0.98038   0.00000  Uiso   1.00
H399   H     0.16601   0.93044   0.68155   0.00000  Uiso   1.00
H400   H     0.11769   0.87006   0.58835   0.00000  Uiso   1.00
H401   H     0.26353   0.99397   0.66991   0.00000  Uiso   1.00
H402   H     0.13777   0.91112   0.77853   0.00000  Uiso   1.00
H403   H     0.03113   0.82866   0.49741   0.00000  Uiso   1.00
H404   H     0.33864   0.08993   0.66941   0.00000  Uiso   1.00
H405   H     0.07345   0.91523   0.89847   0.00000  Uiso   1.00
O406   O     0.88584   0.87673   0.47877   0.00000  Uiso   1.00
O407   O     0.28928   0.21951   0.70443   0.00000  Uiso   1.00
O408   O     0.94136   0.99030   0.00495   0.00000  Uiso   1.00
N409   N     0.87118   0.96576   0.57284   0.00000  Uiso   1.00
N410   N     0.15868   0.21003   0.73364   0.00000  Uiso   1.00
N411   N     0.91076   0.04671   0.94780   0.00000  Uiso   1.00
N412   N     0.98840   0.87511   0.52877   0.00000  Uiso   1.00
N413   N     0.27590   0.11938   0.68956   0.00000  Uiso   1.00
N414   N     0.02798   0.95606   0.90372   0.00000  Uiso   1.00
C415   C     0.46226   0.88596   0.60448   0.00000  Uiso   1.00
C416   C     0.41854   0.92345   0.57352   0.00000  Uiso   1.00
C417   C     0.35442   0.91295   0.54888   0.00000  Uiso   1.00
C418   C     0.32274   0.95239   0.52254   0.00000  Uiso   1.00
C419   C     0.25011   0.00326   0.47468   0.00000  Uiso   1.00
C420   C     0.55787   0.85597   0.56800   0.00000  Uiso   1.00
C421   C     0.61090   0.78874   0.53872   0.00000  Uiso   1.00
C422   C     0.69653   0.77137   0.50774   0.00000  Uiso   1.00
C423   C     0.84023   0.71748   0.45134   0.00000  Uiso   1.00
C424   C     0.44998   0.93924   0.66991   0.00000  Uiso   1.00
C425   C     0.41231   0.94200   0.72632   0.00000  Uiso   1.00
C426   C     0.40711   0.99473   0.78114   0.00000  Uiso   1.00
C427   C     0.38328   0.07011   0.88297   0.00000  Uiso   1.00
C428   C     0.52004   0.97467   0.60154   0.00000  Uiso   1.00
C429   C     0.44992   0.97164   0.57192   0.00000  Uiso   1.00
C430   C     0.41834   0.01110   0.54562   0.00000  Uiso   1.00
C431   C     0.35418   0.00066   0.52094   0.00000  Uiso   1.00
C432   C     0.58926   0.90416   0.56640   0.00000  Uiso   1.00
C433   C     0.67483   0.88689   0.53546   0.00000  Uiso   1.00
C434   C     0.72797   0.81964   0.50613   0.00000  Uiso   1.00
C435   C     0.48136   0.98742   0.66831   0.00000  Uiso   1.00
C436   C     0.47623   0.04015   0.72306   0.00000  Uiso   1.00
C437   C     0.43855   0.04300   0.77954   0.00000  Uiso   1.00
H438   H     0.43784   0.84844   0.60573   0.00000  Uiso   1.00
H439   H     0.33015   0.87565   0.55012   0.00000  Uiso   1.00
H440   H     0.58660   0.75146   0.53997   0.00000  Uiso   1.00
H441   H     0.38803   0.90470   0.72754   0.00000  Uiso   1.00
H442   H     0.22463   0.92706   0.48774   0.00000  Uiso   1.00
H443   H     0.76537   0.66519   0.46635   0.00000  Uiso   1.00
H444   H     0.34665   0.98833   0.86188   0.00000  Uiso   1.00
H445   H     0.54448   0.01219   0.60029   0.00000  Uiso   1.00
H446   H     0.44264   0.04839   0.54438   0.00000  Uiso   1.00
H447   H     0.69909   0.92419   0.53423   0.00000  Uiso   1.00
H448   H     0.50052   0.07743   0.72180   0.00000  Uiso   1.00
H449   H     0.31593   0.06725   0.48308   0.00000  Uiso   1.00
H450   H     0.85667   0.80539   0.46170   0.00000  Uiso   1.00
H451   H     0.43795   0.12852   0.85722   0.00000  Uiso   1.00
O452   O     0.20138   0.01800   0.44871   0.00000  Uiso   1.00
O453   O     0.91082   0.67444   0.42066   0.00000  Uiso   1.00
O454   O     0.36146   0.09839   0.93959   0.00000  Uiso   1.00
N455   N     0.26008   0.95509   0.49433   0.00000  Uiso   1.00
N456   N     0.76564   0.71026   0.47432   0.00000  Uiso   1.00
N457   N     0.37419   0.01236   0.84411   0.00000  Uiso   1.00
N458   N     0.30920   0.03053   0.49182   0.00000  Uiso   1.00
N459   N     0.81477   0.78570   0.47182   0.00000  Uiso   1.00
N460   N     0.42331   0.08780   0.84160   0.00000  Uiso   1.00
C461   C     0.30325   0.81492   0.09199   0.00000  Uiso   1.00
C462   C     0.30462   0.74476   0.05668   0.00000  Uiso   1.00
C463   C     0.23375   0.72919   0.04993   0.00000  Uiso   1.00
C464   C     0.24841   0.66198   0.01591   0.00000  Uiso   1.00
C465   C     0.23797   0.56060   0.96511   0.00000  Uiso   1.00
C466   C     0.34516   0.81414   0.14125   0.00000  Uiso   1.00
C467   C     0.30837   0.85692   0.20560   0.00000  Uiso   1.00
C468   C     0.35716   0.84812   0.24277   0.00000  Uiso   1.00
C469   C     0.40968   0.85450   0.32326   0.00000  Uiso   1.00
C470   C     0.36417   0.82304   0.04488   0.00000  Uiso   1.00
C471   C     0.34338   0.87331   0.02821   0.00000  Uiso   1.00
C472   C     0.40818   0.87201   0.98425   0.00000  Uiso   1.00
C473   C     0.49021   0.89221   0.91511   0.00000  Uiso   1.00
C474   C     0.45531   0.72325   0.04359   0.00000  Uiso   1.00
C475   C     0.38722   0.69497   0.03039   0.00000  Uiso   1.00
C476   C     0.40198   0.62776   0.99637   0.00000  Uiso   1.00
C477   C     0.33115   0.61209   0.98957   0.00000  Uiso   1.00
C478   C     0.42775   0.76435   0.11496   0.00000  Uiso   1.00
C479   C     0.47661   0.75549   0.15205   0.00000  Uiso   1.00
C480   C     0.43990   0.79824   0.21644   0.00000  Uiso   1.00
C481   C     0.44676   0.77325   0.01858   0.00000  Uiso   1.00
C482   C     0.51161   0.77188   0.97465   0.00000  Uiso   1.00
C483   C     0.49092   0.82213   0.95791   0.00000  Uiso   1.00
H484   H     0.23895   0.85369   0.11246   0.00000  Uiso   1.00
H485   H     0.16984   0.76774   0.07028   0.00000  Uiso   1.00
H486   H     0.24446   0.89545   0.22593   0.00000  Uiso   1.00
H487   H     0.27946   0.91183   0.04856   0.00000  Uiso   1.00
H488   H     0.12964   0.65048   0.01195   0.00000  Uiso   1.00
H489   H     0.28699   0.91979   0.34013   0.00000  Uiso   1.00
H490   H     0.36079   0.95433   0.96612   0.00000  Uiso   1.00
H491   H     0.51961   0.68448   0.02312   0.00000  Uiso   1.00
H492   H     0.46591   0.58924   0.97603   0.00000  Uiso   1.00
H493   H     0.54052   0.71696   0.13168   0.00000  Uiso   1.00
H494   H     0.57552   0.73334   0.95431   0.00000  Uiso   1.00
H495   H     0.36994   0.50560   0.93545   0.00000  Uiso   1.00
H496   H     0.52728   0.77492   0.26364   0.00000  Uiso   1.00
H497   H     0.60108   0.80946   0.88962   0.00000  Uiso   1.00
O498   O     0.20939   0.51844   0.94436   0.00000  Uiso   1.00
O499   O     0.41583   0.87177   0.37492   0.00000  Uiso   1.00
O500   O     0.51265   0.91709   0.88422   0.00000  Uiso   1.00
N501   N     0.19357   0.62945   0.00039   0.00000  Uiso   1.00
N502   N     0.34067   0.88124   0.30723   0.00000  Uiso   1.00
N503   N     0.40967   0.91354   0.95757   0.00000  Uiso   1.00
N504   N     0.32287   0.55150   0.95923   0.00000  Uiso   1.00
N505   N     0.46997   0.80328   0.26607   0.00000  Uiso   1.00
N506   N     0.53897   0.83559   0.91641   0.00000  Uiso   1.00
C507   C     0.21107   0.36795   0.22030   0.00000  Uiso   1.00
C508   C     0.13049   0.40426   0.27808   0.00000  Uiso   1.00
C509   C     0.05807   0.45718   0.28998   0.00000  Uiso   1.00
C510   C     0.99112   0.48356   0.34550   0.00000  Uiso   1.00
C511   C     0.86520   0.54387   0.42884   0.00000  Uiso   1.00
C512   C     0.28505   0.37297   0.24519   0.00000  Uiso   1.00
C513   C     0.34257   0.39958   0.22943   0.00000  Uiso   1.00
C514   C     0.40573   0.39961   0.25726   0.00000  Uiso   1.00
C515   C     0.51980   0.41130   0.28950   0.00000  Uiso   1.00
C516   C     0.22445   0.29423   0.19070   0.00000  Uiso   1.00
C517   C     0.23105   0.25462   0.12912   0.00000  Uiso   1.00
C518   C     0.24322   0.18835   0.11108   0.00000  Uiso   1.00
C519   C     0.26320   0.07778   0.05872   0.00000  Uiso   1.00
C520   C     0.22096   0.32068   0.29775   0.00000  Uiso   1.00
C521   C     0.13587   0.37859   0.32015   0.00000  Uiso   1.00
C522   C     0.06901   0.40489   0.37567   0.00000  Uiso   1.00
C523   C     0.99649   0.45784   0.38765   0.00000  Uiso   1.00
C524   C     0.29042   0.34730   0.28726   0.00000  Uiso   1.00
C525   C     0.35351   0.34729   0.31512   0.00000  Uiso   1.00
C526   C     0.41111   0.37389   0.29941   0.00000  Uiso   1.00
C527   C     0.22982   0.26856   0.23277   0.00000  Uiso   1.00
C528   C     0.24199   0.20233   0.21482   0.00000  Uiso   1.00
C529   C     0.24860   0.16263   0.15322   0.00000  Uiso   1.00
H530   H     0.20690   0.38793   0.18754   0.00000  Uiso   1.00
H531   H     0.05394   0.47704   0.25741   0.00000  Uiso   1.00
H532   H     0.33840   0.41944   0.19687   0.00000  Uiso   1.00
H533   H     0.22690   0.27450   0.09658   0.00000  Uiso   1.00
H534   H     0.88674   0.56452   0.35344   0.00000  Uiso   1.00
H535   H     0.48657   0.44304   0.22576   0.00000  Uiso   1.00
H536   H     0.25144   0.13743   0.01428   0.00000  Uiso   1.00
H537   H     0.22514   0.30070   0.33050   0.00000  Uiso   1.00
H538   H     0.07318   0.38502   0.40822   0.00000  Uiso   1.00
H539   H     0.35765   0.32742   0.34767   0.00000  Uiso   1.00
H540   H     0.24614   0.18248   0.24739   0.00000  Uiso   1.00
H541   H     0.90236   0.48984   0.47584   0.00000  Uiso   1.00
H542   H     0.50219   0.36836   0.34815   0.00000  Uiso   1.00
H543   H     0.26705   0.06274   0.13668   0.00000  Uiso   1.00
O544   O     0.79427   0.58424   0.46319   0.00000  Uiso   1.00
O545   O     0.58122   0.42485   0.29567   0.00000  Uiso   1.00
O546   O     0.27273   0.02389   0.01822   0.00000  Uiso   1.00
N547   N     0.91126   0.53537   0.37157   0.00000  Uiso   1.00
N548   N     0.47206   0.42180   0.25221   0.00000  Uiso   1.00
N549   N     0.25225   0.13607   0.05449   0.00000  Uiso   1.00
N550   N     0.91967   0.49518   0.43743   0.00000  Uiso   1.00
N551   N     0.48046   0.38161   0.31807   0.00000  Uiso   1.00
N552   N     0.26066   0.09588   0.12035   0.00000  Uiso   1.00
