data_job_04867
_audit_creation_date              2018-12-19
_audit_creation_method            'Materials Studio'
_symmetry_space_group_name_H-M    'P1'
_symmetry_Int_Tables_number       1
_symmetry_cell_setting            triclinic
loop_
_symmetry_equiv_pos_as_xyz
  x,y,z
_cell_length_a                    12.0491
_cell_length_b                    12.0491
_cell_length_c                    64.5433
_cell_angle_alpha                 90.0000
_cell_angle_beta                  90.0000
_cell_angle_gamma                 120.0000
loop_
_atom_site_label
_atom_site_type_symbol
_atom_site_fract_x
_atom_site_fract_y
_atom_site_fract_z
_atom_site_U_iso_or_equiv
_atom_site_adp_type
_atom_site_occupancy
C1     C     0.80537   0.43872   0.50319   0.00000  Uiso   1.00
C2     C     0.85329   0.38807   0.52063   0.00000  Uiso   1.00
C3     C     0.87090   0.42859   0.54111   0.00000  Uiso   1.00
C4     C     0.91552   0.37039   0.55470   0.00000  Uiso   1.00
C5     C     0.98603   0.30629   0.58279   0.00000  Uiso   1.00
C6     C     0.90779   0.48565   0.48636   0.00000  Uiso   1.00
C7     C     0.97121   0.60820   0.47801   0.00000  Uiso   1.00
C8     C     0.06170   0.63213   0.46275   0.00000  Uiso   1.00
C9     C     0.21675   0.71950   0.43762   0.00000  Uiso   1.00
C10    C     0.68789   0.32224   0.49418   0.00000  Uiso   1.00
C11    C     0.56640   0.30741   0.49240   0.00000  Uiso   1.00
C12    C     0.47175   0.19377   0.48372   0.00000  Uiso   1.00
C13    C     0.28537   0.02742   0.47073   0.00000  Uiso   1.00
C14    C     0.85331   0.26332   0.49093   0.00000  Uiso   1.00
C15    C     0.87933   0.29280   0.51397   0.00000  Uiso   1.00
C16    C     0.92393   0.23452   0.52754   0.00000  Uiso   1.00
C17    C     0.94160   0.27494   0.54803   0.00000  Uiso   1.00
C18    C     0.93383   0.39038   0.47970   0.00000  Uiso   1.00
C19    C     0.02424   0.41414   0.46444   0.00000  Uiso   1.00
C20    C     0.08778   0.53669   0.45608   0.00000  Uiso   1.00
C21    C     0.71392   0.22697   0.48752   0.00000  Uiso   1.00
C22    C     0.61944   0.11334   0.47883   0.00000  Uiso   1.00
C23    C     0.49784   0.09833   0.47704   0.00000  Uiso   1.00
H24    H     0.78510   0.51290   0.50838   0.00000  Uiso   1.00
H25    H     0.85075   0.50233   0.54626   0.00000  Uiso   1.00
H26    H     0.95103   0.68190   0.48317   0.00000  Uiso   1.00
H27    H     0.54629   0.38115   0.49756   0.00000  Uiso   1.00
H28    H     0.93505   0.44863   0.58531   0.00000  Uiso   1.00
H29    H     0.14647   0.82726   0.45229   0.00000  Uiso   1.00
H30    H     0.29300   0.19307   0.48263   0.00000  Uiso   1.00
H31    H     0.87358   0.18914   0.48574   0.00000  Uiso   1.00
H32    H     0.94407   0.16080   0.52238   0.00000  Uiso   1.00
H33    H     0.04436   0.34038   0.45929   0.00000  Uiso   1.00
H34    H     0.63962   0.03963   0.47368   0.00000  Uiso   1.00
H35    H     0.01081   0.17144   0.56593   0.00000  Uiso   1.00
H36    H     0.22222   0.55008   0.43290   0.00000  Uiso   1.00
H37    H     0.36875   0.91588   0.46325   0.00000  Uiso   1.00
O38    O     0.01775   0.29726   0.60013   0.00000  Uiso   1.00
O39    O     0.29510   0.79401   0.42560   0.00000  Uiso   1.00
O40    O     0.17537   0.96197   0.46541   0.00000  Uiso   1.00
N41    N     0.94318   0.38726   0.57572   0.00000  Uiso   1.00
N42    N     0.14086   0.74127   0.45135   0.00000  Uiso   1.00
N43    N     0.34294   0.14837   0.47972   0.00000  Uiso   1.00
N44    N     0.98394   0.23811   0.56529   0.00000  Uiso   1.00
N45    N     0.18162   0.59212   0.44092   0.00000  Uiso   1.00
N46    N     0.38371   0.99921   0.46929   0.00000  Uiso   1.00
C47    C     0.56128   0.36665   0.16986   0.00000  Uiso   1.00
C48    C     0.61193   0.46522   0.18730   0.00000  Uiso   1.00
C49    C     0.57141   0.44231   0.20777   0.00000  Uiso   1.00
C50    C     0.62961   0.54513   0.22137   0.00000  Uiso   1.00
C51    C     0.69371   0.67974   0.24946   0.00000  Uiso   1.00
C52    C     0.51435   0.42214   0.15302   0.00000  Uiso   1.00
C53    C     0.39180   0.36300   0.14468   0.00000  Uiso   1.00
C54    C     0.36787   0.42956   0.12942   0.00000  Uiso   1.00
C55    C     0.28050   0.49726   0.10429   0.00000  Uiso   1.00
C56    C     0.67776   0.36565   0.16084   0.00000  Uiso   1.00
C57    C     0.69259   0.25900   0.15907   0.00000  Uiso   1.00
C58    C     0.80623   0.27798   0.15039   0.00000  Uiso   1.00
C59    C     0.97258   0.25795   0.13740   0.00000  Uiso   1.00
C60    C     0.73668   0.58999   0.15759   0.00000  Uiso   1.00
C61    C     0.70720   0.58653   0.18064   0.00000  Uiso   1.00
C62    C     0.76548   0.68941   0.19420   0.00000  Uiso   1.00
C63    C     0.72506   0.66666   0.21469   0.00000  Uiso   1.00
C64    C     0.60962   0.54345   0.14636   0.00000  Uiso   1.00
C65    C     0.58586   0.61010   0.13111   0.00000  Uiso   1.00
C66    C     0.46331   0.55109   0.12274   0.00000  Uiso   1.00
C67    C     0.77303   0.48696   0.15418   0.00000  Uiso   1.00
C68    C     0.88666   0.50610   0.14550   0.00000  Uiso   1.00
C69    C     0.90167   0.39951   0.14371   0.00000  Uiso   1.00
H70    H     0.48710   0.27221   0.17504   0.00000  Uiso   1.00
H71    H     0.49767   0.34842   0.21292   0.00000  Uiso   1.00
H72    H     0.31810   0.26912   0.14984   0.00000  Uiso   1.00
H73    H     0.61885   0.16514   0.16422   0.00000  Uiso   1.00
H74    H     0.55137   0.48642   0.25198   0.00000  Uiso   1.00
H75    H     0.17274   0.31920   0.11895   0.00000  Uiso   1.00
H76    H     0.80693   0.09992   0.14929   0.00000  Uiso   1.00
H77    H     0.81086   0.68444   0.15241   0.00000  Uiso   1.00
H78    H     0.83920   0.78328   0.18904   0.00000  Uiso   1.00
H79    H     0.65962   0.70398   0.12596   0.00000  Uiso   1.00
H80    H     0.96037   0.59999   0.14035   0.00000  Uiso   1.00
H81    H     0.82856   0.83937   0.23260   0.00000  Uiso   1.00
H82    H     0.44992   0.67215   0.09957   0.00000  Uiso   1.00
H83    H     0.08412   0.45287   0.12991   0.00000  Uiso   1.00
O84    O     0.70274   0.72049   0.26680   0.00000  Uiso   1.00
O85    O     0.20599   0.50109   0.09227   0.00000  Uiso   1.00
O86    O     0.03803   0.21340   0.13208   0.00000  Uiso   1.00
N87    N     0.61274   0.55592   0.24239   0.00000  Uiso   1.00
N88    N     0.25873   0.39959   0.11802   0.00000  Uiso   1.00
N89    N     0.85163   0.19457   0.14638   0.00000  Uiso   1.00
N90    N     0.76189   0.74584   0.23196   0.00000  Uiso   1.00
N91    N     0.40788   0.58950   0.10759   0.00000  Uiso   1.00
N92    N     0.00079   0.38449   0.13595   0.00000  Uiso   1.00
C93    C     0.63335   0.19463   0.83652   0.00000  Uiso   1.00
C94    C     0.53478   0.14671   0.85397   0.00000  Uiso   1.00
C95    C     0.55769   0.12910   0.87444   0.00000  Uiso   1.00
C96    C     0.45487   0.08448   0.88803   0.00000  Uiso   1.00
C97    C     0.32026   0.01397   0.91613   0.00000  Uiso   1.00
C98    C     0.57786   0.09221   0.81969   0.00000  Uiso   1.00
C99    C     0.63700   0.02879   0.81134   0.00000  Uiso   1.00
C100   C     0.57044   0.93830   0.79608   0.00000  Uiso   1.00
C101   C     0.50274   0.78325   0.77095   0.00000  Uiso   1.00
C102   C     0.63435   0.31211   0.82751   0.00000  Uiso   1.00
C103   C     0.74100   0.43360   0.82573   0.00000  Uiso   1.00
C104   C     0.72202   0.52825   0.81705   0.00000  Uiso   1.00
C105   C     0.74205   0.71463   0.80406   0.00000  Uiso   1.00
C106   C     0.41001   0.14669   0.82426   0.00000  Uiso   1.00
C107   C     0.41347   0.12067   0.84730   0.00000  Uiso   1.00
C108   C     0.31059   0.07607   0.86087   0.00000  Uiso   1.00
C109   C     0.33334   0.05840   0.88136   0.00000  Uiso   1.00
C110   C     0.45655   0.06617   0.81303   0.00000  Uiso   1.00
C111   C     0.38990   0.97576   0.79778   0.00000  Uiso   1.00
C112   C     0.44891   0.91222   0.78941   0.00000  Uiso   1.00
C113   C     0.51304   0.28608   0.82085   0.00000  Uiso   1.00
C114   C     0.49390   0.38056   0.81217   0.00000  Uiso   1.00
C115   C     0.60049   0.50216   0.81038   0.00000  Uiso   1.00
H116   H     0.72779   0.21490   0.84171   0.00000  Uiso   1.00
H117   H     0.65158   0.14925   0.87959   0.00000  Uiso   1.00
H118   H     0.73088   0.04897   0.81650   0.00000  Uiso   1.00
H119   H     0.83486   0.45371   0.83089   0.00000  Uiso   1.00
H120   H     0.51358   0.06495   0.91864   0.00000  Uiso   1.00
H121   H     0.68080   0.85353   0.78562   0.00000  Uiso   1.00
H122   H     0.90008   0.70700   0.81596   0.00000  Uiso   1.00
H123   H     0.31556   0.12642   0.81907   0.00000  Uiso   1.00
H124   H     0.21672   0.05593   0.85571   0.00000  Uiso   1.00
H125   H     0.29602   0.95564   0.79262   0.00000  Uiso   1.00
H126   H     0.40001   0.36038   0.80701   0.00000  Uiso   1.00
H127   H     0.16063   0.98919   0.89926   0.00000  Uiso   1.00
H128   H     0.32785   0.77778   0.76624   0.00000  Uiso   1.00
H129   H     0.54713   0.63125   0.79658   0.00000  Uiso   1.00
O130   O     0.27951   0.98225   0.93346   0.00000  Uiso   1.00
O131   O     0.49891   0.70490   0.75893   0.00000  Uiso   1.00
O132   O     0.78660   0.82463   0.79874   0.00000  Uiso   1.00
N133   N     0.44408   0.05682   0.90906   0.00000  Uiso   1.00
N134   N     0.60041   0.85914   0.78469   0.00000  Uiso   1.00
N135   N     0.80543   0.65706   0.81305   0.00000  Uiso   1.00
N136   N     0.25416   0.01606   0.89863   0.00000  Uiso   1.00
N137   N     0.41050   0.81838   0.77426   0.00000  Uiso   1.00
N138   N     0.61551   0.61629   0.80262   0.00000  Uiso   1.00
C139   C     0.19463   0.56128   0.00319   0.00000  Uiso   1.00
C140   C     0.14671   0.61193   0.02063   0.00000  Uiso   1.00
C141   C     0.12910   0.57141   0.04111   0.00000  Uiso   1.00
C142   C     0.08448   0.62961   0.05470   0.00000  Uiso   1.00
C143   C     0.01397   0.69371   0.08279   0.00000  Uiso   1.00
C144   C     0.09221   0.51435   0.98636   0.00000  Uiso   1.00
C145   C     0.02879   0.39180   0.97801   0.00000  Uiso   1.00
C146   C     0.93830   0.36787   0.96275   0.00000  Uiso   1.00
C147   C     0.78325   0.28050   0.93762   0.00000  Uiso   1.00
C148   C     0.31211   0.67776   0.99418   0.00000  Uiso   1.00
C149   C     0.43360   0.69259   0.99240   0.00000  Uiso   1.00
C150   C     0.52825   0.80623   0.98372   0.00000  Uiso   1.00
C151   C     0.71463   0.97258   0.97073   0.00000  Uiso   1.00
C152   C     0.14669   0.73668   0.99093   0.00000  Uiso   1.00
C153   C     0.12067   0.70720   0.01397   0.00000  Uiso   1.00
C154   C     0.07607   0.76548   0.02754   0.00000  Uiso   1.00
C155   C     0.05840   0.72506   0.04803   0.00000  Uiso   1.00
C156   C     0.06617   0.60962   0.97970   0.00000  Uiso   1.00
C157   C     0.97576   0.58586   0.96444   0.00000  Uiso   1.00
C158   C     0.91222   0.46331   0.95608   0.00000  Uiso   1.00
C159   C     0.28608   0.77303   0.98752   0.00000  Uiso   1.00
C160   C     0.38056   0.88666   0.97883   0.00000  Uiso   1.00
C161   C     0.50216   0.90167   0.97704   0.00000  Uiso   1.00
H162   H     0.21490   0.48710   0.00838   0.00000  Uiso   1.00
H163   H     0.14925   0.49767   0.04626   0.00000  Uiso   1.00
H164   H     0.04897   0.31810   0.98317   0.00000  Uiso   1.00
H165   H     0.45371   0.61885   0.99756   0.00000  Uiso   1.00
H166   H     0.06495   0.55137   0.08531   0.00000  Uiso   1.00
H167   H     0.85353   0.17274   0.95229   0.00000  Uiso   1.00
H168   H     0.70700   0.80693   0.98263   0.00000  Uiso   1.00
H169   H     0.12642   0.81086   0.98574   0.00000  Uiso   1.00
H170   H     0.05593   0.83920   0.02238   0.00000  Uiso   1.00
H171   H     0.95564   0.65962   0.95929   0.00000  Uiso   1.00
H172   H     0.36038   0.96037   0.97368   0.00000  Uiso   1.00
H173   H     0.98919   0.82856   0.06593   0.00000  Uiso   1.00
H174   H     0.77778   0.44992   0.93290   0.00000  Uiso   1.00
H175   H     0.63125   0.08412   0.96325   0.00000  Uiso   1.00
O176   O     0.98225   0.70274   0.10013   0.00000  Uiso   1.00
O177   O     0.70490   0.20599   0.92560   0.00000  Uiso   1.00
O178   O     0.82463   0.03803   0.96541   0.00000  Uiso   1.00
N179   N     0.05682   0.61274   0.07572   0.00000  Uiso   1.00
N180   N     0.85914   0.25873   0.95135   0.00000  Uiso   1.00
N181   N     0.65706   0.85163   0.97972   0.00000  Uiso   1.00
N182   N     0.01606   0.76189   0.06529   0.00000  Uiso   1.00
N183   N     0.81838   0.40788   0.94092   0.00000  Uiso   1.00
N184   N     0.61629   0.00079   0.96929   0.00000  Uiso   1.00
C185   C     0.43872   0.63335   0.66986   0.00000  Uiso   1.00
C186   C     0.38807   0.53478   0.68730   0.00000  Uiso   1.00
C187   C     0.42859   0.55769   0.70777   0.00000  Uiso   1.00
C188   C     0.37039   0.45487   0.72137   0.00000  Uiso   1.00
C189   C     0.30629   0.32026   0.74946   0.00000  Uiso   1.00
C190   C     0.48565   0.57786   0.65302   0.00000  Uiso   1.00
C191   C     0.60820   0.63700   0.64468   0.00000  Uiso   1.00
C192   C     0.63213   0.57044   0.62942   0.00000  Uiso   1.00
C193   C     0.71950   0.50274   0.60429   0.00000  Uiso   1.00
C194   C     0.32224   0.63435   0.66084   0.00000  Uiso   1.00
C195   C     0.30741   0.74100   0.65907   0.00000  Uiso   1.00
C196   C     0.19377   0.72202   0.65039   0.00000  Uiso   1.00
C197   C     0.02742   0.74205   0.63740   0.00000  Uiso   1.00
C198   C     0.26332   0.41001   0.65759   0.00000  Uiso   1.00
C199   C     0.29280   0.41347   0.68064   0.00000  Uiso   1.00
C200   C     0.23452   0.31059   0.69420   0.00000  Uiso   1.00
C201   C     0.27494   0.33334   0.71469   0.00000  Uiso   1.00
C202   C     0.39038   0.45655   0.64636   0.00000  Uiso   1.00
C203   C     0.41414   0.38990   0.63111   0.00000  Uiso   1.00
C204   C     0.53669   0.44891   0.62274   0.00000  Uiso   1.00
C205   C     0.22697   0.51304   0.65418   0.00000  Uiso   1.00
C206   C     0.11334   0.49390   0.64550   0.00000  Uiso   1.00
C207   C     0.09833   0.60049   0.64371   0.00000  Uiso   1.00
H208   H     0.51290   0.72779   0.67504   0.00000  Uiso   1.00
H209   H     0.50233   0.65158   0.71292   0.00000  Uiso   1.00
H210   H     0.68190   0.73088   0.64984   0.00000  Uiso   1.00
H211   H     0.38115   0.83486   0.66422   0.00000  Uiso   1.00
H212   H     0.44863   0.51358   0.75198   0.00000  Uiso   1.00
H213   H     0.82726   0.68080   0.61895   0.00000  Uiso   1.00
H214   H     0.19307   0.90008   0.64929   0.00000  Uiso   1.00
H215   H     0.18914   0.31556   0.65241   0.00000  Uiso   1.00
H216   H     0.16080   0.21672   0.68904   0.00000  Uiso   1.00
H217   H     0.34038   0.29602   0.62596   0.00000  Uiso   1.00
H218   H     0.03963   0.40001   0.64035   0.00000  Uiso   1.00
H219   H     0.17144   0.16063   0.73260   0.00000  Uiso   1.00
H220   H     0.55008   0.32785   0.59957   0.00000  Uiso   1.00
H221   H     0.91588   0.54713   0.62991   0.00000  Uiso   1.00
O222   O     0.29726   0.27951   0.76680   0.00000  Uiso   1.00
O223   O     0.79401   0.49891   0.59227   0.00000  Uiso   1.00
O224   O     0.96197   0.78660   0.63208   0.00000  Uiso   1.00
N225   N     0.38726   0.44408   0.74239   0.00000  Uiso   1.00
N226   N     0.74127   0.60041   0.61802   0.00000  Uiso   1.00
N227   N     0.14837   0.80543   0.64638   0.00000  Uiso   1.00
N228   N     0.23811   0.25416   0.73196   0.00000  Uiso   1.00
N229   N     0.59212   0.41050   0.60759   0.00000  Uiso   1.00
N230   N     0.99921   0.61551   0.63595   0.00000  Uiso   1.00
C231   C     0.36665   0.80537   0.33652   0.00000  Uiso   1.00
C232   C     0.46522   0.85329   0.35397   0.00000  Uiso   1.00
C233   C     0.44231   0.87090   0.37444   0.00000  Uiso   1.00
C234   C     0.54513   0.91552   0.38803   0.00000  Uiso   1.00
C235   C     0.67974   0.98603   0.41613   0.00000  Uiso   1.00
C236   C     0.42214   0.90779   0.31969   0.00000  Uiso   1.00
C237   C     0.36300   0.97121   0.31134   0.00000  Uiso   1.00
C238   C     0.42956   0.06170   0.29608   0.00000  Uiso   1.00
C239   C     0.49726   0.21675   0.27095   0.00000  Uiso   1.00
C240   C     0.36565   0.68789   0.32751   0.00000  Uiso   1.00
C241   C     0.25900   0.56640   0.32573   0.00000  Uiso   1.00
C242   C     0.27798   0.47175   0.31705   0.00000  Uiso   1.00
C243   C     0.25795   0.28537   0.30406   0.00000  Uiso   1.00
C244   C     0.58999   0.85331   0.32426   0.00000  Uiso   1.00
C245   C     0.58653   0.87933   0.34730   0.00000  Uiso   1.00
C246   C     0.68941   0.92393   0.36087   0.00000  Uiso   1.00
C247   C     0.66666   0.94160   0.38136   0.00000  Uiso   1.00
C248   C     0.54345   0.93383   0.31303   0.00000  Uiso   1.00
C249   C     0.61010   0.02424   0.29778   0.00000  Uiso   1.00
C250   C     0.55109   0.08778   0.28941   0.00000  Uiso   1.00
C251   C     0.48696   0.71392   0.32085   0.00000  Uiso   1.00
C252   C     0.50610   0.61944   0.31217   0.00000  Uiso   1.00
C253   C     0.39951   0.49784   0.31038   0.00000  Uiso   1.00
H254   H     0.27221   0.78510   0.34171   0.00000  Uiso   1.00
H255   H     0.34842   0.85075   0.37959   0.00000  Uiso   1.00
H256   H     0.26912   0.95103   0.31650   0.00000  Uiso   1.00
H257   H     0.16514   0.54629   0.33089   0.00000  Uiso   1.00
H258   H     0.48642   0.93505   0.41864   0.00000  Uiso   1.00
H259   H     0.31920   0.14647   0.28562   0.00000  Uiso   1.00
H260   H     0.09992   0.29300   0.31596   0.00000  Uiso   1.00
H261   H     0.68444   0.87358   0.31907   0.00000  Uiso   1.00
H262   H     0.78328   0.94407   0.35571   0.00000  Uiso   1.00
H263   H     0.70398   0.04436   0.29262   0.00000  Uiso   1.00
H264   H     0.59999   0.63962   0.30701   0.00000  Uiso   1.00
H265   H     0.83937   0.01081   0.39926   0.00000  Uiso   1.00
H266   H     0.67215   0.22222   0.26624   0.00000  Uiso   1.00
H267   H     0.45287   0.36875   0.29658   0.00000  Uiso   1.00
O268   O     0.72049   0.01775   0.43346   0.00000  Uiso   1.00
O269   O     0.50109   0.29510   0.25893   0.00000  Uiso   1.00
O270   O     0.21340   0.17537   0.29874   0.00000  Uiso   1.00
N271   N     0.55592   0.94318   0.40906   0.00000  Uiso   1.00
N272   N     0.39959   0.14086   0.28469   0.00000  Uiso   1.00
N273   N     0.19457   0.34294   0.31305   0.00000  Uiso   1.00
N274   N     0.74584   0.98394   0.39863   0.00000  Uiso   1.00
N275   N     0.58950   0.18162   0.27426   0.00000  Uiso   1.00
N276   N     0.38449   0.38371   0.30262   0.00000  Uiso   1.00
C277   C     0.43872   0.80537   0.16348   0.00000  Uiso   1.00
C278   C     0.38807   0.85329   0.14603   0.00000  Uiso   1.00
C279   C     0.42859   0.87090   0.12556   0.00000  Uiso   1.00
C280   C     0.37039   0.91552   0.11197   0.00000  Uiso   1.00
C281   C     0.30629   0.98603   0.08387   0.00000  Uiso   1.00
C282   C     0.48565   0.90779   0.18031   0.00000  Uiso   1.00
C283   C     0.60820   0.97121   0.18866   0.00000  Uiso   1.00
C284   C     0.63213   0.06170   0.20392   0.00000  Uiso   1.00
C285   C     0.71950   0.21675   0.22905   0.00000  Uiso   1.00
C286   C     0.32224   0.68789   0.17249   0.00000  Uiso   1.00
C287   C     0.30741   0.56640   0.17427   0.00000  Uiso   1.00
C288   C     0.19377   0.47175   0.18295   0.00000  Uiso   1.00
C289   C     0.02742   0.28537   0.19594   0.00000  Uiso   1.00
C290   C     0.26332   0.85331   0.17574   0.00000  Uiso   1.00
C291   C     0.29280   0.87933   0.15270   0.00000  Uiso   1.00
C292   C     0.23452   0.92393   0.13913   0.00000  Uiso   1.00
C293   C     0.27494   0.94160   0.11864   0.00000  Uiso   1.00
C294   C     0.39038   0.93383   0.18697   0.00000  Uiso   1.00
C295   C     0.41414   0.02424   0.20222   0.00000  Uiso   1.00
C296   C     0.53669   0.08778   0.21059   0.00000  Uiso   1.00
C297   C     0.22697   0.71392   0.17915   0.00000  Uiso   1.00
C298   C     0.11334   0.61944   0.18783   0.00000  Uiso   1.00
C299   C     0.09833   0.49784   0.18962   0.00000  Uiso   1.00
H300   H     0.51290   0.78510   0.15829   0.00000  Uiso   1.00
H301   H     0.50233   0.85075   0.12041   0.00000  Uiso   1.00
H302   H     0.68190   0.95103   0.18350   0.00000  Uiso   1.00
H303   H     0.38115   0.54629   0.16911   0.00000  Uiso   1.00
H304   H     0.44863   0.93505   0.08136   0.00000  Uiso   1.00
H305   H     0.82726   0.14647   0.21438   0.00000  Uiso   1.00
H306   H     0.19307   0.29300   0.18404   0.00000  Uiso   1.00
H307   H     0.18914   0.87358   0.18093   0.00000  Uiso   1.00
H308   H     0.16080   0.94407   0.14429   0.00000  Uiso   1.00
H309   H     0.34038   0.04436   0.20738   0.00000  Uiso   1.00
H310   H     0.03963   0.63962   0.19299   0.00000  Uiso   1.00
H311   H     0.17144   0.01081   0.10074   0.00000  Uiso   1.00
H312   H     0.55008   0.22222   0.23376   0.00000  Uiso   1.00
H313   H     0.91588   0.36875   0.20342   0.00000  Uiso   1.00
O314   O     0.29726   0.01775   0.06654   0.00000  Uiso   1.00
O315   O     0.79401   0.29510   0.24107   0.00000  Uiso   1.00
O316   O     0.96197   0.17537   0.20126   0.00000  Uiso   1.00
N317   N     0.38726   0.94318   0.09094   0.00000  Uiso   1.00
N318   N     0.74127   0.14086   0.21531   0.00000  Uiso   1.00
N319   N     0.14837   0.34294   0.18695   0.00000  Uiso   1.00
N320   N     0.23811   0.98394   0.10137   0.00000  Uiso   1.00
N321   N     0.59212   0.18162   0.22574   0.00000  Uiso   1.00
N322   N     0.99921   0.38371   0.19738   0.00000  Uiso   1.00
C323   C     0.36665   0.56128   0.49681   0.00000  Uiso   1.00
C324   C     0.46522   0.61193   0.47937   0.00000  Uiso   1.00
C325   C     0.44231   0.57141   0.45889   0.00000  Uiso   1.00
C326   C     0.54513   0.62961   0.44530   0.00000  Uiso   1.00
C327   C     0.67974   0.69371   0.41721   0.00000  Uiso   1.00
C328   C     0.42214   0.51435   0.51364   0.00000  Uiso   1.00
C329   C     0.36300   0.39180   0.52199   0.00000  Uiso   1.00
C330   C     0.42956   0.36787   0.53725   0.00000  Uiso   1.00
C331   C     0.49726   0.28050   0.56238   0.00000  Uiso   1.00
C332   C     0.36565   0.67776   0.50582   0.00000  Uiso   1.00
C333   C     0.25900   0.69259   0.50760   0.00000  Uiso   1.00
C334   C     0.27798   0.80623   0.51628   0.00000  Uiso   1.00
C335   C     0.25795   0.97258   0.52927   0.00000  Uiso   1.00
C336   C     0.58999   0.73668   0.50907   0.00000  Uiso   1.00
C337   C     0.58653   0.70720   0.48603   0.00000  Uiso   1.00
C338   C     0.68941   0.76548   0.47246   0.00000  Uiso   1.00
C339   C     0.66666   0.72506   0.45197   0.00000  Uiso   1.00
C340   C     0.54345   0.60962   0.52030   0.00000  Uiso   1.00
C341   C     0.61010   0.58586   0.53556   0.00000  Uiso   1.00
C342   C     0.55109   0.46331   0.54392   0.00000  Uiso   1.00
C343   C     0.48696   0.77303   0.51248   0.00000  Uiso   1.00
C344   C     0.50610   0.88666   0.52117   0.00000  Uiso   1.00
C345   C     0.39951   0.90167   0.52296   0.00000  Uiso   1.00
H346   H     0.27221   0.48710   0.49162   0.00000  Uiso   1.00
H347   H     0.34842   0.49767   0.45374   0.00000  Uiso   1.00
H348   H     0.26912   0.31810   0.51683   0.00000  Uiso   1.00
H349   H     0.16514   0.61885   0.50244   0.00000  Uiso   1.00
H350   H     0.48642   0.55137   0.41469   0.00000  Uiso   1.00
H351   H     0.31920   0.17274   0.54771   0.00000  Uiso   1.00
H352   H     0.09992   0.80693   0.51737   0.00000  Uiso   1.00
H353   H     0.68444   0.81086   0.51426   0.00000  Uiso   1.00
H354   H     0.78328   0.83920   0.47762   0.00000  Uiso   1.00
H355   H     0.70398   0.65962   0.54071   0.00000  Uiso   1.00
H356   H     0.59999   0.96037   0.52632   0.00000  Uiso   1.00
H357   H     0.83937   0.82856   0.43407   0.00000  Uiso   1.00
H358   H     0.67215   0.44992   0.56710   0.00000  Uiso   1.00
H359   H     0.45287   0.08412   0.53675   0.00000  Uiso   1.00
O360   O     0.72049   0.70274   0.39987   0.00000  Uiso   1.00
O361   O     0.50109   0.20599   0.57440   0.00000  Uiso   1.00
O362   O     0.21340   0.03803   0.53459   0.00000  Uiso   1.00
N363   N     0.55592   0.61274   0.42428   0.00000  Uiso   1.00
N364   N     0.39959   0.25873   0.54865   0.00000  Uiso   1.00
N365   N     0.19457   0.85163   0.52028   0.00000  Uiso   1.00
N366   N     0.74584   0.76189   0.43471   0.00000  Uiso   1.00
N367   N     0.58950   0.40788   0.55908   0.00000  Uiso   1.00
N368   N     0.38449   0.00079   0.53071   0.00000  Uiso   1.00
C369   C     0.19463   0.63335   0.83014   0.00000  Uiso   1.00
C370   C     0.14671   0.53478   0.81270   0.00000  Uiso   1.00
C371   C     0.12910   0.55769   0.79223   0.00000  Uiso   1.00
C372   C     0.08448   0.45487   0.77863   0.00000  Uiso   1.00
C373   C     0.01397   0.32026   0.75054   0.00000  Uiso   1.00
C374   C     0.09221   0.57786   0.84698   0.00000  Uiso   1.00
C375   C     0.02879   0.63700   0.85532   0.00000  Uiso   1.00
C376   C     0.93830   0.57044   0.87058   0.00000  Uiso   1.00
C377   C     0.78325   0.50274   0.89571   0.00000  Uiso   1.00
C378   C     0.31211   0.63435   0.83916   0.00000  Uiso   1.00
C379   C     0.43360   0.74100   0.84093   0.00000  Uiso   1.00
C380   C     0.52825   0.72202   0.84961   0.00000  Uiso   1.00
C381   C     0.71463   0.74205   0.86260   0.00000  Uiso   1.00
C382   C     0.14669   0.41001   0.84241   0.00000  Uiso   1.00
C383   C     0.12067   0.41347   0.81936   0.00000  Uiso   1.00
C384   C     0.07607   0.31059   0.80580   0.00000  Uiso   1.00
C385   C     0.05840   0.33334   0.78531   0.00000  Uiso   1.00
C386   C     0.06617   0.45655   0.85364   0.00000  Uiso   1.00
C387   C     0.97576   0.38990   0.86889   0.00000  Uiso   1.00
C388   C     0.91222   0.44891   0.87726   0.00000  Uiso   1.00
C389   C     0.28608   0.51304   0.84582   0.00000  Uiso   1.00
C390   C     0.38056   0.49390   0.85450   0.00000  Uiso   1.00
C391   C     0.50216   0.60049   0.85629   0.00000  Uiso   1.00
H392   H     0.21490   0.72779   0.82496   0.00000  Uiso   1.00
H393   H     0.14925   0.65158   0.78708   0.00000  Uiso   1.00
H394   H     0.04897   0.73088   0.85016   0.00000  Uiso   1.00
H395   H     0.45371   0.83486   0.83578   0.00000  Uiso   1.00
H396   H     0.06495   0.51358   0.74802   0.00000  Uiso   1.00
H397   H     0.85353   0.68080   0.88105   0.00000  Uiso   1.00
H398   H     0.70700   0.90008   0.85071   0.00000  Uiso   1.00
H399   H     0.12642   0.31556   0.84759   0.00000  Uiso   1.00
H400   H     0.05593   0.21672   0.81096   0.00000  Uiso   1.00
H401   H     0.95564   0.29602   0.87404   0.00000  Uiso   1.00
H402   H     0.36038   0.40001   0.85965   0.00000  Uiso   1.00
H403   H     0.98919   0.16063   0.76740   0.00000  Uiso   1.00
H404   H     0.77778   0.32785   0.90043   0.00000  Uiso   1.00
H405   H     0.63125   0.54713   0.87009   0.00000  Uiso   1.00
O406   O     0.98225   0.27951   0.73320   0.00000  Uiso   1.00
O407   O     0.70490   0.49891   0.90773   0.00000  Uiso   1.00
O408   O     0.82463   0.78660   0.86792   0.00000  Uiso   1.00
N409   N     0.05682   0.44408   0.75761   0.00000  Uiso   1.00
N410   N     0.85914   0.60041   0.88198   0.00000  Uiso   1.00
N411   N     0.65706   0.80543   0.85362   0.00000  Uiso   1.00
N412   N     0.01606   0.25416   0.76804   0.00000  Uiso   1.00
N413   N     0.81838   0.41050   0.89241   0.00000  Uiso   1.00
N414   N     0.61629   0.61551   0.86405   0.00000  Uiso   1.00
C415   C     0.56128   0.19463   0.66348   0.00000  Uiso   1.00
C416   C     0.61193   0.14671   0.64603   0.00000  Uiso   1.00
C417   C     0.57141   0.12910   0.62556   0.00000  Uiso   1.00
C418   C     0.62961   0.08448   0.61197   0.00000  Uiso   1.00
C419   C     0.69371   0.01397   0.58387   0.00000  Uiso   1.00
C420   C     0.51435   0.09221   0.68031   0.00000  Uiso   1.00
C421   C     0.39180   0.02879   0.68866   0.00000  Uiso   1.00
C422   C     0.36787   0.93830   0.70392   0.00000  Uiso   1.00
C423   C     0.28050   0.78325   0.72905   0.00000  Uiso   1.00
C424   C     0.67776   0.31211   0.67249   0.00000  Uiso   1.00
C425   C     0.69259   0.43360   0.67427   0.00000  Uiso   1.00
C426   C     0.80623   0.52825   0.68295   0.00000  Uiso   1.00
C427   C     0.97258   0.71463   0.69594   0.00000  Uiso   1.00
C428   C     0.73668   0.14669   0.67574   0.00000  Uiso   1.00
C429   C     0.70720   0.12067   0.65270   0.00000  Uiso   1.00
C430   C     0.76548   0.07607   0.63913   0.00000  Uiso   1.00
C431   C     0.72506   0.05840   0.61864   0.00000  Uiso   1.00
C432   C     0.60962   0.06617   0.68697   0.00000  Uiso   1.00
C433   C     0.58586   0.97576   0.70222   0.00000  Uiso   1.00
C434   C     0.46331   0.91222   0.71059   0.00000  Uiso   1.00
C435   C     0.77303   0.28608   0.67915   0.00000  Uiso   1.00
C436   C     0.88666   0.38056   0.68783   0.00000  Uiso   1.00
C437   C     0.90167   0.50216   0.68962   0.00000  Uiso   1.00
H438   H     0.48710   0.21490   0.65829   0.00000  Uiso   1.00
H439   H     0.49767   0.14925   0.62041   0.00000  Uiso   1.00
H440   H     0.31810   0.04897   0.68350   0.00000  Uiso   1.00
H441   H     0.61885   0.45371   0.66911   0.00000  Uiso   1.00
H442   H     0.55137   0.06495   0.58136   0.00000  Uiso   1.00
H443   H     0.17274   0.85353   0.71438   0.00000  Uiso   1.00
H444   H     0.80693   0.70700   0.68404   0.00000  Uiso   1.00
H445   H     0.81086   0.12642   0.68093   0.00000  Uiso   1.00
H446   H     0.83920   0.05593   0.64429   0.00000  Uiso   1.00
H447   H     0.65962   0.95564   0.70738   0.00000  Uiso   1.00
H448   H     0.96037   0.36038   0.69299   0.00000  Uiso   1.00
H449   H     0.82856   0.98919   0.60074   0.00000  Uiso   1.00
H450   H     0.44992   0.77778   0.73376   0.00000  Uiso   1.00
H451   H     0.08412   0.63125   0.70342   0.00000  Uiso   1.00
O452   O     0.70274   0.98225   0.56654   0.00000  Uiso   1.00
O453   O     0.20599   0.70490   0.74107   0.00000  Uiso   1.00
O454   O     0.03803   0.82463   0.70126   0.00000  Uiso   1.00
N455   N     0.61274   0.05682   0.59094   0.00000  Uiso   1.00
N456   N     0.25873   0.85914   0.71531   0.00000  Uiso   1.00
N457   N     0.85163   0.65706   0.68695   0.00000  Uiso   1.00
N458   N     0.76189   0.01606   0.60137   0.00000  Uiso   1.00
N459   N     0.40788   0.81838   0.72574   0.00000  Uiso   1.00
N460   N     0.00079   0.61629   0.69738   0.00000  Uiso   1.00
C461   C     0.63335   0.43872   0.99681   0.00000  Uiso   1.00
C462   C     0.53478   0.38807   0.97937   0.00000  Uiso   1.00
C463   C     0.55769   0.42859   0.95889   0.00000  Uiso   1.00
C464   C     0.45487   0.37039   0.94530   0.00000  Uiso   1.00
C465   C     0.32026   0.30629   0.91721   0.00000  Uiso   1.00
C466   C     0.57786   0.48565   0.01364   0.00000  Uiso   1.00
C467   C     0.63700   0.60820   0.02199   0.00000  Uiso   1.00
C468   C     0.57044   0.63213   0.03725   0.00000  Uiso   1.00
C469   C     0.50274   0.71950   0.06238   0.00000  Uiso   1.00
C470   C     0.63435   0.32224   0.00582   0.00000  Uiso   1.00
C471   C     0.74100   0.30741   0.00760   0.00000  Uiso   1.00
C472   C     0.72202   0.19377   0.01628   0.00000  Uiso   1.00
C473   C     0.74205   0.02742   0.02927   0.00000  Uiso   1.00
C474   C     0.41001   0.26332   0.00907   0.00000  Uiso   1.00
C475   C     0.41347   0.29280   0.98603   0.00000  Uiso   1.00
C476   C     0.31059   0.23452   0.97246   0.00000  Uiso   1.00
C477   C     0.33334   0.27494   0.95197   0.00000  Uiso   1.00
C478   C     0.45655   0.39038   0.02030   0.00000  Uiso   1.00
C479   C     0.38990   0.41414   0.03556   0.00000  Uiso   1.00
C480   C     0.44891   0.53669   0.04392   0.00000  Uiso   1.00
C481   C     0.51304   0.22697   0.01248   0.00000  Uiso   1.00
C482   C     0.49390   0.11334   0.02117   0.00000  Uiso   1.00
C483   C     0.60049   0.09833   0.02296   0.00000  Uiso   1.00
H484   H     0.72779   0.51290   0.99162   0.00000  Uiso   1.00
H485   H     0.65158   0.50233   0.95374   0.00000  Uiso   1.00
H486   H     0.73088   0.68190   0.01683   0.00000  Uiso   1.00
H487   H     0.83486   0.38115   0.00244   0.00000  Uiso   1.00
H488   H     0.51358   0.44863   0.91469   0.00000  Uiso   1.00
H489   H     0.68080   0.82726   0.04771   0.00000  Uiso   1.00
H490   H     0.90008   0.19307   0.01737   0.00000  Uiso   1.00
H491   H     0.31556   0.18914   0.01426   0.00000  Uiso   1.00
H492   H     0.21672   0.16080   0.97762   0.00000  Uiso   1.00
H493   H     0.29602   0.34038   0.04071   0.00000  Uiso   1.00
H494   H     0.40001   0.03963   0.02632   0.00000  Uiso   1.00
H495   H     0.16063   0.17144   0.93407   0.00000  Uiso   1.00
H496   H     0.32785   0.55008   0.06710   0.00000  Uiso   1.00
H497   H     0.54713   0.91588   0.03675   0.00000  Uiso   1.00
O498   O     0.27951   0.29726   0.89987   0.00000  Uiso   1.00
O499   O     0.49891   0.79401   0.07440   0.00000  Uiso   1.00
O500   O     0.78660   0.96197   0.03459   0.00000  Uiso   1.00
N501   N     0.44408   0.38726   0.92428   0.00000  Uiso   1.00
N502   N     0.60041   0.74127   0.04865   0.00000  Uiso   1.00
N503   N     0.80543   0.14837   0.02028   0.00000  Uiso   1.00
N504   N     0.25416   0.23811   0.93471   0.00000  Uiso   1.00
N505   N     0.41050   0.59212   0.05908   0.00000  Uiso   1.00
N506   N     0.61551   0.99921   0.03071   0.00000  Uiso   1.00
C507   C     0.80537   0.36665   0.33014   0.00000  Uiso   1.00
C508   C     0.85329   0.46522   0.31270   0.00000  Uiso   1.00
C509   C     0.87090   0.44231   0.29223   0.00000  Uiso   1.00
C510   C     0.91552   0.54513   0.27863   0.00000  Uiso   1.00
C511   C     0.98603   0.67974   0.25054   0.00000  Uiso   1.00
C512   C     0.90779   0.42214   0.34698   0.00000  Uiso   1.00
C513   C     0.97121   0.36300   0.35532   0.00000  Uiso   1.00
C514   C     0.06170   0.42956   0.37058   0.00000  Uiso   1.00
C515   C     0.21675   0.49726   0.39571   0.00000  Uiso   1.00
C516   C     0.68789   0.36565   0.33916   0.00000  Uiso   1.00
C517   C     0.56640   0.25900   0.34093   0.00000  Uiso   1.00
C518   C     0.47175   0.27798   0.34961   0.00000  Uiso   1.00
C519   C     0.28537   0.25795   0.36260   0.00000  Uiso   1.00
C520   C     0.85331   0.58999   0.34241   0.00000  Uiso   1.00
C521   C     0.87933   0.58653   0.31936   0.00000  Uiso   1.00
C522   C     0.92393   0.68941   0.30580   0.00000  Uiso   1.00
C523   C     0.94160   0.66666   0.28531   0.00000  Uiso   1.00
C524   C     0.93383   0.54345   0.35364   0.00000  Uiso   1.00
C525   C     0.02424   0.61010   0.36889   0.00000  Uiso   1.00
C526   C     0.08778   0.55109   0.37726   0.00000  Uiso   1.00
C527   C     0.71392   0.48696   0.34582   0.00000  Uiso   1.00
C528   C     0.61944   0.50610   0.35450   0.00000  Uiso   1.00
C529   C     0.49784   0.39951   0.35629   0.00000  Uiso   1.00
H530   H     0.78510   0.27221   0.32496   0.00000  Uiso   1.00
H531   H     0.85075   0.34842   0.28708   0.00000  Uiso   1.00
H532   H     0.95103   0.26912   0.35016   0.00000  Uiso   1.00
H533   H     0.54629   0.16514   0.33578   0.00000  Uiso   1.00
H534   H     0.93505   0.48642   0.24802   0.00000  Uiso   1.00
H535   H     0.14647   0.31920   0.38105   0.00000  Uiso   1.00
H536   H     0.29300   0.09992   0.35071   0.00000  Uiso   1.00
H537   H     0.87358   0.68444   0.34759   0.00000  Uiso   1.00
H538   H     0.94407   0.78328   0.31096   0.00000  Uiso   1.00
H539   H     0.04436   0.70398   0.37404   0.00000  Uiso   1.00
H540   H     0.63962   0.59999   0.35965   0.00000  Uiso   1.00
H541   H     0.01081   0.83937   0.26740   0.00000  Uiso   1.00
H542   H     0.22222   0.67215   0.40043   0.00000  Uiso   1.00
H543   H     0.36875   0.45287   0.37009   0.00000  Uiso   1.00
O544   O     0.01775   0.72049   0.23320   0.00000  Uiso   1.00
O545   O     0.29510   0.50109   0.40773   0.00000  Uiso   1.00
O546   O     0.17537   0.21340   0.36792   0.00000  Uiso   1.00
N547   N     0.94318   0.55592   0.25761   0.00000  Uiso   1.00
N548   N     0.14086   0.39959   0.38198   0.00000  Uiso   1.00
N549   N     0.34294   0.19457   0.35362   0.00000  Uiso   1.00
N550   N     0.98394   0.74584   0.26804   0.00000  Uiso   1.00
N551   N     0.18162   0.58950   0.39241   0.00000  Uiso   1.00
N552   N     0.38371   0.38449   0.36405   0.00000  Uiso   1.00
