data_job_00098
_audit_creation_date              2018-12-19
_audit_creation_method            'Materials Studio'
_symmetry_space_group_name_H-M    'P1'
_symmetry_Int_Tables_number       1
_symmetry_cell_setting            triclinic
loop_
_symmetry_equiv_pos_as_xyz
  x,y,z
_cell_length_a                    15.9788
_cell_length_b                    18.6563
_cell_length_c                    15.6223
_cell_angle_alpha                 90.0000
_cell_angle_beta                  90.0000
_cell_angle_gamma                 90.0000
loop_
_atom_site_label
_atom_site_type_symbol
_atom_site_fract_x
_atom_site_fract_y
_atom_site_fract_z
_atom_site_U_iso_or_equiv
_atom_site_adp_type
_atom_site_occupancy
C1     C     0.16601   0.14253   0.61437   0.00000  Uiso   1.00
C2     C     0.15738   0.09738   0.53347   0.00000  Uiso   1.00
C3     C     0.11595   0.03221   0.52737   0.00000  Uiso   1.00
C4     C     0.11510   0.99929   0.44767   0.00000  Uiso   1.00
C5     C     0.09576   0.92443   0.33287   0.00000  Uiso   1.00
C6     C     0.25968   0.15348   0.62772   0.00000  Uiso   1.00
C7     C     0.30427   0.13548   0.70087   0.00000  Uiso   1.00
C8     C     0.38953   0.14980   0.70050   0.00000  Uiso   1.00
C9     C     0.52902   0.16208   0.73205   0.00000  Uiso   1.00
C10    C     0.13043   0.21609   0.59234   0.00000  Uiso   1.00
C11    C     0.06636   0.25074   0.63575   0.00000  Uiso   1.00
C12    C     0.04282   0.31779   0.60560   0.00000  Uiso   1.00
C13    C     0.98163   0.42728   0.58222   0.00000  Uiso   1.00
C14    C     0.23816   0.19999   0.48366   0.00000  Uiso   1.00
C15    C     0.19657   0.12859   0.46248   0.00000  Uiso   1.00
C16    C     0.19578   0.09578   0.38276   0.00000  Uiso   1.00
C17    C     0.15435   0.03056   0.37654   0.00000  Uiso   1.00
C18    C     0.29887   0.18469   0.55673   0.00000  Uiso   1.00
C19    C     0.38409   0.19905   0.55626   0.00000  Uiso   1.00
C20    C     0.42880   0.18107   0.62938   0.00000  Uiso   1.00
C21    C     0.16962   0.24730   0.52134   0.00000  Uiso   1.00
C22    C     0.14618   0.31431   0.49113   0.00000  Uiso   1.00
C23    C     0.08208   0.34906   0.53448   0.00000  Uiso   1.00
H24    H     0.13551   0.11823   0.66964   0.00000  Uiso   1.00
H25    H     0.08564   0.00807   0.58233   0.00000  Uiso   1.00
H26    H     0.27392   0.11133   0.75580   0.00000  Uiso   1.00
H27    H     0.03605   0.22658   0.69068   0.00000  Uiso   1.00
H28    H     0.04765   0.89968   0.45423   0.00000  Uiso   1.00
H29    H     0.44466   0.11744   0.82001   0.00000  Uiso   1.00
H30    H     0.94306   0.36046   0.68271   0.00000  Uiso   1.00
H31    H     0.26868   0.22429   0.42839   0.00000  Uiso   1.00
H32    H     0.22611   0.11994   0.32784   0.00000  Uiso   1.00
H33    H     0.41440   0.22321   0.50131   0.00000  Uiso   1.00
H34    H     0.17652   0.33845   0.43619   0.00000  Uiso   1.00
H35    H     0.16167   0.99048   0.24767   0.00000  Uiso   1.00
H36    H     0.55867   0.20824   0.61346   0.00000  Uiso   1.00
H37    H     0.05707   0.45126   0.47615   0.00000  Uiso   1.00
O38    O     0.07428   0.87451   0.28916   0.00000  Uiso   1.00
O39    O     0.59513   0.16022   0.76906   0.00000  Uiso   1.00
O40    O     0.93704   0.47905   0.58892   0.00000  Uiso   1.00
N41    N     0.08031   0.93538   0.41941   0.00000  Uiso   1.00
N42    N     0.45149   0.13896   0.76139   0.00000  Uiso   1.00
N43    N     0.98255   0.36617   0.63304   0.00000  Uiso   1.00
N44    N     0.14166   0.98424   0.30827   0.00000  Uiso   1.00
N45    N     0.51284   0.18782   0.65024   0.00000  Uiso   1.00
N46    N     0.04390   0.41503   0.52189   0.00000  Uiso   1.00
C47    C     0.33399   0.85747   0.61437   0.00000  Uiso   1.00
C48    C     0.34262   0.90262   0.53347   0.00000  Uiso   1.00
C49    C     0.38405   0.96779   0.52737   0.00000  Uiso   1.00
C50    C     0.38490   0.00071   0.44767   0.00000  Uiso   1.00
C51    C     0.40424   0.07557   0.33287   0.00000  Uiso   1.00
C52    C     0.24032   0.84652   0.62772   0.00000  Uiso   1.00
C53    C     0.19573   0.86452   0.70087   0.00000  Uiso   1.00
C54    C     0.11047   0.85020   0.70050   0.00000  Uiso   1.00
C55    C     0.97098   0.83792   0.73205   0.00000  Uiso   1.00
C56    C     0.36957   0.78391   0.59234   0.00000  Uiso   1.00
C57    C     0.43364   0.74926   0.63575   0.00000  Uiso   1.00
C58    C     0.45718   0.68221   0.60560   0.00000  Uiso   1.00
C59    C     0.51837   0.57272   0.58222   0.00000  Uiso   1.00
C60    C     0.26184   0.80001   0.48366   0.00000  Uiso   1.00
C61    C     0.30343   0.87141   0.46248   0.00000  Uiso   1.00
C62    C     0.30422   0.90422   0.38276   0.00000  Uiso   1.00
C63    C     0.34565   0.96944   0.37654   0.00000  Uiso   1.00
C64    C     0.20113   0.81531   0.55673   0.00000  Uiso   1.00
C65    C     0.11591   0.80095   0.55626   0.00000  Uiso   1.00
C66    C     0.07120   0.81893   0.62938   0.00000  Uiso   1.00
C67    C     0.33038   0.75270   0.52134   0.00000  Uiso   1.00
C68    C     0.35382   0.68569   0.49113   0.00000  Uiso   1.00
C69    C     0.41792   0.65094   0.53448   0.00000  Uiso   1.00
H70    H     0.36449   0.88177   0.66964   0.00000  Uiso   1.00
H71    H     0.41436   0.99193   0.58233   0.00000  Uiso   1.00
H72    H     0.22608   0.88867   0.75580   0.00000  Uiso   1.00
H73    H     0.46395   0.77342   0.69068   0.00000  Uiso   1.00
H74    H     0.45235   0.10032   0.45423   0.00000  Uiso   1.00
H75    H     0.05534   0.88256   0.82001   0.00000  Uiso   1.00
H76    H     0.55694   0.63954   0.68271   0.00000  Uiso   1.00
H77    H     0.23132   0.77571   0.42839   0.00000  Uiso   1.00
H78    H     0.27389   0.88006   0.32784   0.00000  Uiso   1.00
H79    H     0.08560   0.77679   0.50131   0.00000  Uiso   1.00
H80    H     0.32348   0.66155   0.43619   0.00000  Uiso   1.00
H81    H     0.33833   0.00952   0.24767   0.00000  Uiso   1.00
H82    H     0.94133   0.79176   0.61346   0.00000  Uiso   1.00
H83    H     0.44293   0.54874   0.47615   0.00000  Uiso   1.00
O84    O     0.42572   0.12549   0.28916   0.00000  Uiso   1.00
O85    O     0.90487   0.83978   0.76906   0.00000  Uiso   1.00
O86    O     0.56296   0.52095   0.58892   0.00000  Uiso   1.00
N87    N     0.41969   0.06462   0.41941   0.00000  Uiso   1.00
N88    N     0.04851   0.86104   0.76139   0.00000  Uiso   1.00
N89    N     0.51745   0.63383   0.63304   0.00000  Uiso   1.00
N90    N     0.35834   0.01576   0.30827   0.00000  Uiso   1.00
N91    N     0.98716   0.81218   0.65024   0.00000  Uiso   1.00
N92    N     0.45610   0.58497   0.52189   0.00000  Uiso   1.00
C93    C     0.33399   0.64253   0.88563   0.00000  Uiso   1.00
C94    C     0.34262   0.59738   0.96653   0.00000  Uiso   1.00
C95    C     0.38405   0.53221   0.97263   0.00000  Uiso   1.00
C96    C     0.38490   0.49929   0.05233   0.00000  Uiso   1.00
C97    C     0.40424   0.42443   0.16713   0.00000  Uiso   1.00
C98    C     0.24032   0.65348   0.87228   0.00000  Uiso   1.00
C99    C     0.19573   0.63548   0.79913   0.00000  Uiso   1.00
C100   C     0.11047   0.64980   0.79950   0.00000  Uiso   1.00
C101   C     0.97098   0.66208   0.76795   0.00000  Uiso   1.00
C102   C     0.36957   0.71609   0.90766   0.00000  Uiso   1.00
C103   C     0.43364   0.75074   0.86425   0.00000  Uiso   1.00
C104   C     0.45718   0.81779   0.89440   0.00000  Uiso   1.00
C105   C     0.51837   0.92728   0.91778   0.00000  Uiso   1.00
C106   C     0.26184   0.69999   0.01634   0.00000  Uiso   1.00
C107   C     0.30343   0.62859   0.03752   0.00000  Uiso   1.00
C108   C     0.30422   0.59578   0.11724   0.00000  Uiso   1.00
C109   C     0.34565   0.53056   0.12346   0.00000  Uiso   1.00
C110   C     0.20113   0.68469   0.94327   0.00000  Uiso   1.00
C111   C     0.11591   0.69905   0.94374   0.00000  Uiso   1.00
C112   C     0.07120   0.68107   0.87062   0.00000  Uiso   1.00
C113   C     0.33038   0.74730   0.97866   0.00000  Uiso   1.00
C114   C     0.35382   0.81431   0.00887   0.00000  Uiso   1.00
C115   C     0.41792   0.84906   0.96552   0.00000  Uiso   1.00
H116   H     0.36449   0.61823   0.83036   0.00000  Uiso   1.00
H117   H     0.41436   0.50807   0.91767   0.00000  Uiso   1.00
H118   H     0.22608   0.61133   0.74420   0.00000  Uiso   1.00
H119   H     0.46395   0.72658   0.80932   0.00000  Uiso   1.00
H120   H     0.45235   0.39968   0.04577   0.00000  Uiso   1.00
H121   H     0.05534   0.61744   0.67999   0.00000  Uiso   1.00
H122   H     0.55694   0.86046   0.81729   0.00000  Uiso   1.00
H123   H     0.23132   0.72429   0.07161   0.00000  Uiso   1.00
H124   H     0.27389   0.61994   0.17216   0.00000  Uiso   1.00
H125   H     0.08560   0.72321   0.99869   0.00000  Uiso   1.00
H126   H     0.32348   0.83845   0.06381   0.00000  Uiso   1.00
H127   H     0.33833   0.49048   0.25233   0.00000  Uiso   1.00
H128   H     0.94133   0.70824   0.88654   0.00000  Uiso   1.00
H129   H     0.44293   0.95126   0.02385   0.00000  Uiso   1.00
O130   O     0.42572   0.37451   0.21084   0.00000  Uiso   1.00
O131   O     0.90487   0.66022   0.73094   0.00000  Uiso   1.00
O132   O     0.56296   0.97905   0.91108   0.00000  Uiso   1.00
N133   N     0.41969   0.43538   0.08059   0.00000  Uiso   1.00
N134   N     0.04851   0.63896   0.73861   0.00000  Uiso   1.00
N135   N     0.51745   0.86617   0.86696   0.00000  Uiso   1.00
N136   N     0.35834   0.48424   0.19173   0.00000  Uiso   1.00
N137   N     0.98716   0.68782   0.84976   0.00000  Uiso   1.00
N138   N     0.45610   0.91503   0.97811   0.00000  Uiso   1.00
C139   C     0.16601   0.35747   0.88563   0.00000  Uiso   1.00
C140   C     0.15738   0.40262   0.96653   0.00000  Uiso   1.00
C141   C     0.11595   0.46779   0.97263   0.00000  Uiso   1.00
C142   C     0.11510   0.50071   0.05233   0.00000  Uiso   1.00
C143   C     0.09576   0.57557   0.16713   0.00000  Uiso   1.00
C144   C     0.25968   0.34652   0.87228   0.00000  Uiso   1.00
C145   C     0.30427   0.36452   0.79913   0.00000  Uiso   1.00
C146   C     0.38953   0.35020   0.79950   0.00000  Uiso   1.00
C147   C     0.52902   0.33792   0.76795   0.00000  Uiso   1.00
C148   C     0.13043   0.28391   0.90766   0.00000  Uiso   1.00
C149   C     0.06636   0.24926   0.86425   0.00000  Uiso   1.00
C150   C     0.04282   0.18221   0.89440   0.00000  Uiso   1.00
C151   C     0.98163   0.07272   0.91778   0.00000  Uiso   1.00
C152   C     0.23816   0.30001   0.01634   0.00000  Uiso   1.00
C153   C     0.19657   0.37141   0.03752   0.00000  Uiso   1.00
C154   C     0.19578   0.40422   0.11724   0.00000  Uiso   1.00
C155   C     0.15435   0.46944   0.12346   0.00000  Uiso   1.00
C156   C     0.29887   0.31531   0.94327   0.00000  Uiso   1.00
C157   C     0.38409   0.30095   0.94374   0.00000  Uiso   1.00
C158   C     0.42880   0.31893   0.87062   0.00000  Uiso   1.00
C159   C     0.16962   0.25270   0.97866   0.00000  Uiso   1.00
C160   C     0.14618   0.18569   0.00887   0.00000  Uiso   1.00
C161   C     0.08208   0.15094   0.96552   0.00000  Uiso   1.00
H162   H     0.13551   0.38177   0.83036   0.00000  Uiso   1.00
H163   H     0.08564   0.49193   0.91767   0.00000  Uiso   1.00
H164   H     0.27392   0.38867   0.74420   0.00000  Uiso   1.00
H165   H     0.03605   0.27342   0.80932   0.00000  Uiso   1.00
H166   H     0.04765   0.60032   0.04577   0.00000  Uiso   1.00
H167   H     0.44466   0.38256   0.67999   0.00000  Uiso   1.00
H168   H     0.94306   0.13954   0.81729   0.00000  Uiso   1.00
H169   H     0.26868   0.27571   0.07161   0.00000  Uiso   1.00
H170   H     0.22611   0.38006   0.17216   0.00000  Uiso   1.00
H171   H     0.41440   0.27679   0.99869   0.00000  Uiso   1.00
H172   H     0.17652   0.16155   0.06381   0.00000  Uiso   1.00
H173   H     0.16167   0.50952   0.25233   0.00000  Uiso   1.00
H174   H     0.55867   0.29176   0.88654   0.00000  Uiso   1.00
H175   H     0.05707   0.04874   0.02385   0.00000  Uiso   1.00
O176   O     0.07428   0.62549   0.21084   0.00000  Uiso   1.00
O177   O     0.59513   0.33978   0.73094   0.00000  Uiso   1.00
O178   O     0.93704   0.02095   0.91108   0.00000  Uiso   1.00
N179   N     0.08031   0.56462   0.08059   0.00000  Uiso   1.00
N180   N     0.45149   0.36104   0.73861   0.00000  Uiso   1.00
N181   N     0.98255   0.13383   0.86696   0.00000  Uiso   1.00
N182   N     0.14166   0.51576   0.19173   0.00000  Uiso   1.00
N183   N     0.51284   0.31218   0.84976   0.00000  Uiso   1.00
N184   N     0.04390   0.08497   0.97811   0.00000  Uiso   1.00
C185   C     0.83399   0.85747   0.38563   0.00000  Uiso   1.00
C186   C     0.84262   0.90262   0.46653   0.00000  Uiso   1.00
C187   C     0.88405   0.96779   0.47263   0.00000  Uiso   1.00
C188   C     0.88490   0.00071   0.55233   0.00000  Uiso   1.00
C189   C     0.90424   0.07557   0.66713   0.00000  Uiso   1.00
C190   C     0.74032   0.84652   0.37228   0.00000  Uiso   1.00
C191   C     0.69573   0.86452   0.29913   0.00000  Uiso   1.00
C192   C     0.61047   0.85020   0.29950   0.00000  Uiso   1.00
C193   C     0.47098   0.83792   0.26795   0.00000  Uiso   1.00
C194   C     0.86957   0.78391   0.40766   0.00000  Uiso   1.00
C195   C     0.93364   0.74926   0.36425   0.00000  Uiso   1.00
C196   C     0.95718   0.68221   0.39440   0.00000  Uiso   1.00
C197   C     0.01837   0.57272   0.41778   0.00000  Uiso   1.00
C198   C     0.76184   0.80001   0.51634   0.00000  Uiso   1.00
C199   C     0.80343   0.87141   0.53752   0.00000  Uiso   1.00
C200   C     0.80422   0.90422   0.61724   0.00000  Uiso   1.00
C201   C     0.84565   0.96944   0.62346   0.00000  Uiso   1.00
C202   C     0.70113   0.81531   0.44327   0.00000  Uiso   1.00
C203   C     0.61591   0.80095   0.44374   0.00000  Uiso   1.00
C204   C     0.57120   0.81893   0.37062   0.00000  Uiso   1.00
C205   C     0.83038   0.75270   0.47866   0.00000  Uiso   1.00
C206   C     0.85382   0.68569   0.50887   0.00000  Uiso   1.00
C207   C     0.91792   0.65094   0.46552   0.00000  Uiso   1.00
H208   H     0.86449   0.88177   0.33036   0.00000  Uiso   1.00
H209   H     0.91436   0.99193   0.41767   0.00000  Uiso   1.00
H210   H     0.72608   0.88867   0.24420   0.00000  Uiso   1.00
H211   H     0.96395   0.77342   0.30932   0.00000  Uiso   1.00
H212   H     0.95235   0.10032   0.54577   0.00000  Uiso   1.00
H213   H     0.55534   0.88256   0.17999   0.00000  Uiso   1.00
H214   H     0.05694   0.63954   0.31729   0.00000  Uiso   1.00
H215   H     0.73132   0.77571   0.57161   0.00000  Uiso   1.00
H216   H     0.77389   0.88006   0.67216   0.00000  Uiso   1.00
H217   H     0.58560   0.77679   0.49869   0.00000  Uiso   1.00
H218   H     0.82348   0.66155   0.56381   0.00000  Uiso   1.00
H219   H     0.83833   0.00952   0.75233   0.00000  Uiso   1.00
H220   H     0.44133   0.79176   0.38654   0.00000  Uiso   1.00
H221   H     0.94293   0.54874   0.52385   0.00000  Uiso   1.00
O222   O     0.92572   0.12549   0.71084   0.00000  Uiso   1.00
O223   O     0.40487   0.83978   0.23094   0.00000  Uiso   1.00
O224   O     0.06296   0.52095   0.41108   0.00000  Uiso   1.00
N225   N     0.91969   0.06462   0.58059   0.00000  Uiso   1.00
N226   N     0.54851   0.86104   0.23861   0.00000  Uiso   1.00
N227   N     0.01745   0.63383   0.36696   0.00000  Uiso   1.00
N228   N     0.85834   0.01576   0.69173   0.00000  Uiso   1.00
N229   N     0.48716   0.81218   0.34976   0.00000  Uiso   1.00
N230   N     0.95610   0.58497   0.47811   0.00000  Uiso   1.00
C231   C     0.66601   0.14253   0.38563   0.00000  Uiso   1.00
C232   C     0.65738   0.09738   0.46653   0.00000  Uiso   1.00
C233   C     0.61595   0.03221   0.47263   0.00000  Uiso   1.00
C234   C     0.61510   0.99929   0.55233   0.00000  Uiso   1.00
C235   C     0.59576   0.92443   0.66713   0.00000  Uiso   1.00
C236   C     0.75968   0.15348   0.37228   0.00000  Uiso   1.00
C237   C     0.80427   0.13548   0.29913   0.00000  Uiso   1.00
C238   C     0.88953   0.14980   0.29950   0.00000  Uiso   1.00
C239   C     0.02902   0.16208   0.26795   0.00000  Uiso   1.00
C240   C     0.63043   0.21609   0.40766   0.00000  Uiso   1.00
C241   C     0.56636   0.25074   0.36425   0.00000  Uiso   1.00
C242   C     0.54282   0.31779   0.39440   0.00000  Uiso   1.00
C243   C     0.48163   0.42728   0.41778   0.00000  Uiso   1.00
C244   C     0.73816   0.19999   0.51634   0.00000  Uiso   1.00
C245   C     0.69657   0.12859   0.53752   0.00000  Uiso   1.00
C246   C     0.69578   0.09578   0.61724   0.00000  Uiso   1.00
C247   C     0.65435   0.03056   0.62346   0.00000  Uiso   1.00
C248   C     0.79887   0.18469   0.44327   0.00000  Uiso   1.00
C249   C     0.88409   0.19905   0.44374   0.00000  Uiso   1.00
C250   C     0.92880   0.18107   0.37062   0.00000  Uiso   1.00
C251   C     0.66962   0.24730   0.47866   0.00000  Uiso   1.00
C252   C     0.64618   0.31431   0.50887   0.00000  Uiso   1.00
C253   C     0.58208   0.34906   0.46552   0.00000  Uiso   1.00
H254   H     0.63551   0.11823   0.33036   0.00000  Uiso   1.00
H255   H     0.58564   0.00807   0.41767   0.00000  Uiso   1.00
H256   H     0.77392   0.11133   0.24420   0.00000  Uiso   1.00
H257   H     0.53605   0.22658   0.30932   0.00000  Uiso   1.00
H258   H     0.54765   0.89968   0.54577   0.00000  Uiso   1.00
H259   H     0.94466   0.11744   0.17999   0.00000  Uiso   1.00
H260   H     0.44306   0.36046   0.31729   0.00000  Uiso   1.00
H261   H     0.76868   0.22429   0.57161   0.00000  Uiso   1.00
H262   H     0.72611   0.11994   0.67216   0.00000  Uiso   1.00
H263   H     0.91440   0.22321   0.49869   0.00000  Uiso   1.00
H264   H     0.67652   0.33845   0.56381   0.00000  Uiso   1.00
H265   H     0.66167   0.99048   0.75233   0.00000  Uiso   1.00
H266   H     0.05867   0.20824   0.38654   0.00000  Uiso   1.00
H267   H     0.55707   0.45126   0.52385   0.00000  Uiso   1.00
O268   O     0.57428   0.87451   0.71084   0.00000  Uiso   1.00
O269   O     0.09513   0.16022   0.23094   0.00000  Uiso   1.00
O270   O     0.43704   0.47905   0.41108   0.00000  Uiso   1.00
N271   N     0.58031   0.93538   0.58059   0.00000  Uiso   1.00
N272   N     0.95149   0.13896   0.23861   0.00000  Uiso   1.00
N273   N     0.48255   0.36617   0.36696   0.00000  Uiso   1.00
N274   N     0.64166   0.98424   0.69173   0.00000  Uiso   1.00
N275   N     0.01284   0.18782   0.34976   0.00000  Uiso   1.00
N276   N     0.54390   0.41503   0.47811   0.00000  Uiso   1.00
C277   C     0.66601   0.35747   0.11437   0.00000  Uiso   1.00
C278   C     0.65738   0.40262   0.03347   0.00000  Uiso   1.00
C279   C     0.61595   0.46779   0.02737   0.00000  Uiso   1.00
C280   C     0.61510   0.50071   0.94767   0.00000  Uiso   1.00
C281   C     0.59576   0.57557   0.83287   0.00000  Uiso   1.00
C282   C     0.75968   0.34652   0.12772   0.00000  Uiso   1.00
C283   C     0.80427   0.36452   0.20087   0.00000  Uiso   1.00
C284   C     0.88953   0.35020   0.20050   0.00000  Uiso   1.00
C285   C     0.02902   0.33792   0.23205   0.00000  Uiso   1.00
C286   C     0.63043   0.28391   0.09234   0.00000  Uiso   1.00
C287   C     0.56636   0.24926   0.13575   0.00000  Uiso   1.00
C288   C     0.54282   0.18221   0.10560   0.00000  Uiso   1.00
C289   C     0.48163   0.07272   0.08222   0.00000  Uiso   1.00
C290   C     0.73816   0.30001   0.98366   0.00000  Uiso   1.00
C291   C     0.69657   0.37141   0.96248   0.00000  Uiso   1.00
C292   C     0.69578   0.40422   0.88276   0.00000  Uiso   1.00
C293   C     0.65435   0.46944   0.87654   0.00000  Uiso   1.00
C294   C     0.79887   0.31531   0.05673   0.00000  Uiso   1.00
C295   C     0.88409   0.30095   0.05626   0.00000  Uiso   1.00
C296   C     0.92880   0.31893   0.12938   0.00000  Uiso   1.00
C297   C     0.66962   0.25270   0.02134   0.00000  Uiso   1.00
C298   C     0.64618   0.18569   0.99113   0.00000  Uiso   1.00
C299   C     0.58208   0.15094   0.03448   0.00000  Uiso   1.00
H300   H     0.63551   0.38177   0.16964   0.00000  Uiso   1.00
H301   H     0.58564   0.49193   0.08233   0.00000  Uiso   1.00
H302   H     0.77392   0.38867   0.25580   0.00000  Uiso   1.00
H303   H     0.53605   0.27342   0.19068   0.00000  Uiso   1.00
H304   H     0.54765   0.60032   0.95423   0.00000  Uiso   1.00
H305   H     0.94466   0.38256   0.32001   0.00000  Uiso   1.00
H306   H     0.44306   0.13954   0.18271   0.00000  Uiso   1.00
H307   H     0.76868   0.27571   0.92839   0.00000  Uiso   1.00
H308   H     0.72611   0.38006   0.82784   0.00000  Uiso   1.00
H309   H     0.91440   0.27679   0.00131   0.00000  Uiso   1.00
H310   H     0.67652   0.16155   0.93619   0.00000  Uiso   1.00
H311   H     0.66167   0.50952   0.74767   0.00000  Uiso   1.00
H312   H     0.05867   0.29176   0.11346   0.00000  Uiso   1.00
H313   H     0.55707   0.04874   0.97615   0.00000  Uiso   1.00
O314   O     0.57428   0.62549   0.78916   0.00000  Uiso   1.00
O315   O     0.09513   0.33978   0.26906   0.00000  Uiso   1.00
O316   O     0.43704   0.02095   0.08892   0.00000  Uiso   1.00
N317   N     0.58031   0.56462   0.91941   0.00000  Uiso   1.00
N318   N     0.95149   0.36104   0.26139   0.00000  Uiso   1.00
N319   N     0.48255   0.13383   0.13304   0.00000  Uiso   1.00
N320   N     0.64166   0.51576   0.80827   0.00000  Uiso   1.00
N321   N     0.01284   0.31218   0.15024   0.00000  Uiso   1.00
N322   N     0.54390   0.08497   0.02189   0.00000  Uiso   1.00
C323   C     0.83399   0.64253   0.11437   0.00000  Uiso   1.00
C324   C     0.84262   0.59738   0.03347   0.00000  Uiso   1.00
C325   C     0.88405   0.53221   0.02737   0.00000  Uiso   1.00
C326   C     0.88490   0.49929   0.94767   0.00000  Uiso   1.00
C327   C     0.90424   0.42443   0.83287   0.00000  Uiso   1.00
C328   C     0.74032   0.65348   0.12772   0.00000  Uiso   1.00
C329   C     0.69573   0.63548   0.20087   0.00000  Uiso   1.00
C330   C     0.61047   0.64980   0.20050   0.00000  Uiso   1.00
C331   C     0.47098   0.66208   0.23205   0.00000  Uiso   1.00
C332   C     0.86957   0.71609   0.09234   0.00000  Uiso   1.00
C333   C     0.93364   0.75074   0.13575   0.00000  Uiso   1.00
C334   C     0.95718   0.81779   0.10560   0.00000  Uiso   1.00
C335   C     0.01837   0.92728   0.08222   0.00000  Uiso   1.00
C336   C     0.76184   0.69999   0.98366   0.00000  Uiso   1.00
C337   C     0.80343   0.62859   0.96248   0.00000  Uiso   1.00
C338   C     0.80422   0.59578   0.88276   0.00000  Uiso   1.00
C339   C     0.84565   0.53056   0.87654   0.00000  Uiso   1.00
C340   C     0.70113   0.68469   0.05673   0.00000  Uiso   1.00
C341   C     0.61591   0.69905   0.05626   0.00000  Uiso   1.00
C342   C     0.57120   0.68107   0.12938   0.00000  Uiso   1.00
C343   C     0.83038   0.74730   0.02134   0.00000  Uiso   1.00
C344   C     0.85382   0.81431   0.99113   0.00000  Uiso   1.00
C345   C     0.91792   0.84906   0.03448   0.00000  Uiso   1.00
H346   H     0.86449   0.61823   0.16964   0.00000  Uiso   1.00
H347   H     0.91436   0.50807   0.08233   0.00000  Uiso   1.00
H348   H     0.72608   0.61133   0.25580   0.00000  Uiso   1.00
H349   H     0.96395   0.72658   0.19068   0.00000  Uiso   1.00
H350   H     0.95235   0.39968   0.95423   0.00000  Uiso   1.00
H351   H     0.55534   0.61744   0.32001   0.00000  Uiso   1.00
H352   H     0.05694   0.86046   0.18271   0.00000  Uiso   1.00
H353   H     0.73132   0.72429   0.92839   0.00000  Uiso   1.00
H354   H     0.77389   0.61994   0.82784   0.00000  Uiso   1.00
H355   H     0.58560   0.72321   0.00131   0.00000  Uiso   1.00
H356   H     0.82348   0.83845   0.93619   0.00000  Uiso   1.00
H357   H     0.83833   0.49048   0.74767   0.00000  Uiso   1.00
H358   H     0.44133   0.70824   0.11346   0.00000  Uiso   1.00
H359   H     0.94293   0.95126   0.97615   0.00000  Uiso   1.00
O360   O     0.92572   0.37451   0.78916   0.00000  Uiso   1.00
O361   O     0.40487   0.66022   0.26906   0.00000  Uiso   1.00
O362   O     0.06296   0.97905   0.08892   0.00000  Uiso   1.00
N363   N     0.91969   0.43538   0.91941   0.00000  Uiso   1.00
N364   N     0.54851   0.63896   0.26139   0.00000  Uiso   1.00
N365   N     0.01745   0.86617   0.13304   0.00000  Uiso   1.00
N366   N     0.85834   0.48424   0.80827   0.00000  Uiso   1.00
N367   N     0.48716   0.68782   0.15024   0.00000  Uiso   1.00
N368   N     0.95610   0.91503   0.02189   0.00000  Uiso   1.00
