data_job_01429
_audit_creation_date              2018-12-19
_audit_creation_method            'Materials Studio'
_symmetry_space_group_name_H-M    'P1'
_symmetry_Int_Tables_number       1
_symmetry_cell_setting            triclinic
loop_
_symmetry_equiv_pos_as_xyz
  x,y,z
_cell_length_a                    25.1775
_cell_length_b                    25.1775
_cell_length_c                    7.5681
_cell_angle_alpha                 90.0000
_cell_angle_beta                  90.0000
_cell_angle_gamma                 90.0000
loop_
_atom_site_label
_atom_site_type_symbol
_atom_site_fract_x
_atom_site_fract_y
_atom_site_fract_z
_atom_site_U_iso_or_equiv
_atom_site_adp_type
_atom_site_occupancy
C1     C     0.74441   0.59486   0.94643   0.00000  Uiso   1.00
C2     C     0.69437   0.58584   0.05590   0.00000  Uiso   1.00
C3     C     0.64294   0.58327   0.99049   0.00000  Uiso   1.00
C4     C     0.60256   0.57475   0.11217   0.00000  Uiso   1.00
C5     C     0.52323   0.56164   0.25470   0.00000  Uiso   1.00
C6     C     0.77151   0.64353   0.02549   0.00000  Uiso   1.00
C7     C     0.78495   0.68946   0.93449   0.00000  Uiso   1.00
C8     C     0.80952   0.72950   0.03057   0.00000  Uiso   1.00
C9     C     0.84999   0.80595   0.12585   0.00000  Uiso   1.00
C10    C     0.78088   0.54797   0.98572   0.00000  Uiso   1.00
C11    C     0.80221   0.51356   0.86127   0.00000  Uiso   1.00
C12    C     0.83468   0.47315   0.92387   0.00000  Uiso   1.00
C13    C     0.88970   0.40122   0.95739   0.00000  Uiso   1.00
C14    C     0.76416   0.58430   0.27887   0.00000  Uiso   1.00
C15    C     0.70510   0.58010   0.23647   0.00000  Uiso   1.00
C16    C     0.66479   0.57158   0.35829   0.00000  Uiso   1.00
C17    C     0.61331   0.56900   0.29306   0.00000  Uiso   1.00
C18    C     0.78224   0.63780   0.20605   0.00000  Uiso   1.00
C19    C     0.80680   0.67778   0.30229   0.00000  Uiso   1.00
C20    C     0.82027   0.72376   0.21146   0.00000  Uiso   1.00
C21    C     0.79161   0.54223   0.16628   0.00000  Uiso   1.00
C22    C     0.82406   0.50187   0.22908   0.00000  Uiso   1.00
C23    C     0.84543   0.46740   0.10476   0.00000  Uiso   1.00
H24    H     0.73606   0.59933   0.80586   0.00000  Uiso   1.00
H25    H     0.63466   0.58772   0.85074   0.00000  Uiso   1.00
H26    H     0.77665   0.69389   0.79475   0.00000  Uiso   1.00
H27    H     0.79391   0.51801   0.72156   0.00000  Uiso   1.00
H28    H     0.52696   0.57233   0.98015   0.00000  Uiso   1.00
H29    H     0.82638   0.79620   0.86208   0.00000  Uiso   1.00
H30    H     0.86276   0.42532   0.70772   0.00000  Uiso   1.00
H31    H     0.77251   0.57983   0.41945   0.00000  Uiso   1.00
H32    H     0.67310   0.56714   0.49801   0.00000  Uiso   1.00
H33    H     0.81509   0.67332   0.44202   0.00000  Uiso   1.00
H34    H     0.83235   0.49744   0.36882   0.00000  Uiso   1.00
H35    H     0.55816   0.55563   0.50549   0.00000  Uiso   1.00
H36    H     0.85758   0.77951   0.38742   0.00000  Uiso   1.00
H37    H     0.89396   0.40863   0.23306   0.00000  Uiso   1.00
O38    O     0.47650   0.55601   0.28344   0.00000  Uiso   1.00
O39    O     0.86934   0.84971   0.12852   0.00000  Uiso   1.00
O40    O     0.91707   0.36313   0.92601   0.00000  Uiso   1.00
N41    N     0.54794   0.57013   0.09300   0.00000  Uiso   1.00
N42    N     0.82787   0.77944   0.98262   0.00000  Uiso   1.00
N43    N     0.86191   0.43271   0.83830   0.00000  Uiso   1.00
N44    N     0.56473   0.56115   0.37569   0.00000  Uiso   1.00
N45    N     0.84466   0.77046   0.26530   0.00000  Uiso   1.00
N46    N     0.87869   0.42373   0.12098   0.00000  Uiso   1.00
C47    C     0.24441   0.09486   0.44643   0.00000  Uiso   1.00
C48    C     0.19437   0.08584   0.55590   0.00000  Uiso   1.00
C49    C     0.14294   0.08327   0.49049   0.00000  Uiso   1.00
C50    C     0.10256   0.07475   0.61217   0.00000  Uiso   1.00
C51    C     0.02323   0.06164   0.75470   0.00000  Uiso   1.00
C52    C     0.27151   0.14353   0.52549   0.00000  Uiso   1.00
C53    C     0.28495   0.18946   0.43449   0.00000  Uiso   1.00
C54    C     0.30952   0.22950   0.53057   0.00000  Uiso   1.00
C55    C     0.34999   0.30595   0.62585   0.00000  Uiso   1.00
C56    C     0.28088   0.04797   0.48572   0.00000  Uiso   1.00
C57    C     0.30221   0.01356   0.36127   0.00000  Uiso   1.00
C58    C     0.33468   0.97315   0.42387   0.00000  Uiso   1.00
C59    C     0.38970   0.90122   0.45739   0.00000  Uiso   1.00
C60    C     0.26416   0.08430   0.77887   0.00000  Uiso   1.00
C61    C     0.20510   0.08010   0.73647   0.00000  Uiso   1.00
C62    C     0.16479   0.07158   0.85829   0.00000  Uiso   1.00
C63    C     0.11331   0.06900   0.79306   0.00000  Uiso   1.00
C64    C     0.28224   0.13780   0.70605   0.00000  Uiso   1.00
C65    C     0.30680   0.17778   0.80229   0.00000  Uiso   1.00
C66    C     0.32027   0.22376   0.71146   0.00000  Uiso   1.00
C67    C     0.29161   0.04223   0.66628   0.00000  Uiso   1.00
C68    C     0.32406   0.00187   0.72908   0.00000  Uiso   1.00
C69    C     0.34543   0.96740   0.60476   0.00000  Uiso   1.00
H70    H     0.23606   0.09933   0.30586   0.00000  Uiso   1.00
H71    H     0.13466   0.08772   0.35074   0.00000  Uiso   1.00
H72    H     0.27665   0.19389   0.29475   0.00000  Uiso   1.00
H73    H     0.29391   0.01801   0.22156   0.00000  Uiso   1.00
H74    H     0.02696   0.07233   0.48015   0.00000  Uiso   1.00
H75    H     0.32638   0.29620   0.36208   0.00000  Uiso   1.00
H76    H     0.36276   0.92532   0.20772   0.00000  Uiso   1.00
H77    H     0.27251   0.07983   0.91945   0.00000  Uiso   1.00
H78    H     0.17310   0.06714   0.99801   0.00000  Uiso   1.00
H79    H     0.31509   0.17332   0.94202   0.00000  Uiso   1.00
H80    H     0.33235   0.99744   0.86882   0.00000  Uiso   1.00
H81    H     0.05816   0.05563   0.00549   0.00000  Uiso   1.00
H82    H     0.35758   0.27951   0.88742   0.00000  Uiso   1.00
H83    H     0.39396   0.90863   0.73306   0.00000  Uiso   1.00
O84    O     0.97650   0.05601   0.78344   0.00000  Uiso   1.00
O85    O     0.36934   0.34971   0.62852   0.00000  Uiso   1.00
O86    O     0.41707   0.86313   0.42601   0.00000  Uiso   1.00
N87    N     0.04794   0.07013   0.59300   0.00000  Uiso   1.00
N88    N     0.32787   0.27944   0.48262   0.00000  Uiso   1.00
N89    N     0.36191   0.93271   0.33830   0.00000  Uiso   1.00
N90    N     0.06473   0.06115   0.87569   0.00000  Uiso   1.00
N91    N     0.34466   0.27046   0.76530   0.00000  Uiso   1.00
N92    N     0.37869   0.92373   0.62098   0.00000  Uiso   1.00
C93    C     0.25559   0.40514   0.94643   0.00000  Uiso   1.00
C94    C     0.30563   0.41416   0.05590   0.00000  Uiso   1.00
C95    C     0.35706   0.41673   0.99049   0.00000  Uiso   1.00
C96    C     0.39744   0.42525   0.11217   0.00000  Uiso   1.00
C97    C     0.47677   0.43836   0.25470   0.00000  Uiso   1.00
C98    C     0.22849   0.35647   0.02549   0.00000  Uiso   1.00
C99    C     0.21505   0.31054   0.93449   0.00000  Uiso   1.00
C100   C     0.19048   0.27050   0.03057   0.00000  Uiso   1.00
C101   C     0.15001   0.19405   0.12585   0.00000  Uiso   1.00
C102   C     0.21912   0.45203   0.98572   0.00000  Uiso   1.00
C103   C     0.19779   0.48644   0.86127   0.00000  Uiso   1.00
C104   C     0.16532   0.52685   0.92387   0.00000  Uiso   1.00
C105   C     0.11030   0.59878   0.95739   0.00000  Uiso   1.00
C106   C     0.23584   0.41570   0.27887   0.00000  Uiso   1.00
C107   C     0.29490   0.41990   0.23647   0.00000  Uiso   1.00
C108   C     0.33521   0.42842   0.35829   0.00000  Uiso   1.00
C109   C     0.38669   0.43100   0.29306   0.00000  Uiso   1.00
C110   C     0.21776   0.36220   0.20605   0.00000  Uiso   1.00
C111   C     0.19320   0.32222   0.30229   0.00000  Uiso   1.00
C112   C     0.17973   0.27624   0.21146   0.00000  Uiso   1.00
C113   C     0.20839   0.45777   0.16628   0.00000  Uiso   1.00
C114   C     0.17594   0.49813   0.22908   0.00000  Uiso   1.00
C115   C     0.15457   0.53260   0.10476   0.00000  Uiso   1.00
H116   H     0.26394   0.40067   0.80586   0.00000  Uiso   1.00
H117   H     0.36534   0.41228   0.85074   0.00000  Uiso   1.00
H118   H     0.22335   0.30611   0.79475   0.00000  Uiso   1.00
H119   H     0.20609   0.48199   0.72156   0.00000  Uiso   1.00
H120   H     0.47304   0.42767   0.98015   0.00000  Uiso   1.00
H121   H     0.17362   0.20380   0.86208   0.00000  Uiso   1.00
H122   H     0.13724   0.57468   0.70772   0.00000  Uiso   1.00
H123   H     0.22749   0.42017   0.41945   0.00000  Uiso   1.00
H124   H     0.32690   0.43286   0.49801   0.00000  Uiso   1.00
H125   H     0.18491   0.32668   0.44202   0.00000  Uiso   1.00
H126   H     0.16765   0.50256   0.36882   0.00000  Uiso   1.00
H127   H     0.44184   0.44437   0.50549   0.00000  Uiso   1.00
H128   H     0.14242   0.22049   0.38742   0.00000  Uiso   1.00
H129   H     0.10604   0.59137   0.23306   0.00000  Uiso   1.00
O130   O     0.52350   0.44399   0.28344   0.00000  Uiso   1.00
O131   O     0.13066   0.15029   0.12852   0.00000  Uiso   1.00
O132   O     0.08293   0.63687   0.92601   0.00000  Uiso   1.00
N133   N     0.45206   0.42987   0.09300   0.00000  Uiso   1.00
N134   N     0.17213   0.22056   0.98262   0.00000  Uiso   1.00
N135   N     0.13809   0.56729   0.83830   0.00000  Uiso   1.00
N136   N     0.43527   0.43885   0.37569   0.00000  Uiso   1.00
N137   N     0.15534   0.22954   0.26530   0.00000  Uiso   1.00
N138   N     0.12131   0.57627   0.12098   0.00000  Uiso   1.00
C139   C     0.75559   0.90514   0.44643   0.00000  Uiso   1.00
C140   C     0.80563   0.91416   0.55590   0.00000  Uiso   1.00
C141   C     0.85706   0.91673   0.49049   0.00000  Uiso   1.00
C142   C     0.89744   0.92525   0.61217   0.00000  Uiso   1.00
C143   C     0.97677   0.93836   0.75470   0.00000  Uiso   1.00
C144   C     0.72849   0.85647   0.52549   0.00000  Uiso   1.00
C145   C     0.71505   0.81054   0.43449   0.00000  Uiso   1.00
C146   C     0.69048   0.77050   0.53057   0.00000  Uiso   1.00
C147   C     0.65001   0.69405   0.62585   0.00000  Uiso   1.00
C148   C     0.71912   0.95203   0.48572   0.00000  Uiso   1.00
C149   C     0.69779   0.98644   0.36127   0.00000  Uiso   1.00
C150   C     0.66532   0.02685   0.42387   0.00000  Uiso   1.00
C151   C     0.61030   0.09878   0.45739   0.00000  Uiso   1.00
C152   C     0.73584   0.91570   0.77887   0.00000  Uiso   1.00
C153   C     0.79490   0.91990   0.73647   0.00000  Uiso   1.00
C154   C     0.83521   0.92842   0.85829   0.00000  Uiso   1.00
C155   C     0.88669   0.93100   0.79306   0.00000  Uiso   1.00
C156   C     0.71776   0.86220   0.70605   0.00000  Uiso   1.00
C157   C     0.69320   0.82222   0.80229   0.00000  Uiso   1.00
C158   C     0.67973   0.77624   0.71146   0.00000  Uiso   1.00
C159   C     0.70839   0.95777   0.66628   0.00000  Uiso   1.00
C160   C     0.67594   0.99813   0.72908   0.00000  Uiso   1.00
C161   C     0.65457   0.03260   0.60476   0.00000  Uiso   1.00
H162   H     0.76394   0.90067   0.30586   0.00000  Uiso   1.00
H163   H     0.86534   0.91228   0.35074   0.00000  Uiso   1.00
H164   H     0.72335   0.80611   0.29475   0.00000  Uiso   1.00
H165   H     0.70609   0.98199   0.22156   0.00000  Uiso   1.00
H166   H     0.97304   0.92767   0.48015   0.00000  Uiso   1.00
H167   H     0.67362   0.70380   0.36208   0.00000  Uiso   1.00
H168   H     0.63724   0.07468   0.20772   0.00000  Uiso   1.00
H169   H     0.72749   0.92017   0.91945   0.00000  Uiso   1.00
H170   H     0.82690   0.93286   0.99801   0.00000  Uiso   1.00
H171   H     0.68491   0.82668   0.94202   0.00000  Uiso   1.00
H172   H     0.66765   0.00256   0.86882   0.00000  Uiso   1.00
H173   H     0.94184   0.94437   0.00549   0.00000  Uiso   1.00
H174   H     0.64242   0.72049   0.88742   0.00000  Uiso   1.00
H175   H     0.60604   0.09137   0.73306   0.00000  Uiso   1.00
O176   O     0.02350   0.94399   0.78344   0.00000  Uiso   1.00
O177   O     0.63066   0.65029   0.62852   0.00000  Uiso   1.00
O178   O     0.58293   0.13687   0.42601   0.00000  Uiso   1.00
N179   N     0.95206   0.92987   0.59300   0.00000  Uiso   1.00
N180   N     0.67213   0.72056   0.48262   0.00000  Uiso   1.00
N181   N     0.63809   0.06729   0.33830   0.00000  Uiso   1.00
N182   N     0.93527   0.93885   0.87569   0.00000  Uiso   1.00
N183   N     0.65534   0.72954   0.76530   0.00000  Uiso   1.00
N184   N     0.62131   0.07627   0.62098   0.00000  Uiso   1.00
C185   C     0.59486   0.25559   0.05357   0.00000  Uiso   1.00
C186   C     0.58584   0.30563   0.94410   0.00000  Uiso   1.00
C187   C     0.58327   0.35706   0.00951   0.00000  Uiso   1.00
C188   C     0.57475   0.39744   0.88783   0.00000  Uiso   1.00
C189   C     0.56164   0.47677   0.74530   0.00000  Uiso   1.00
C190   C     0.64353   0.22849   0.97451   0.00000  Uiso   1.00
C191   C     0.68946   0.21505   0.06551   0.00000  Uiso   1.00
C192   C     0.72950   0.19048   0.96943   0.00000  Uiso   1.00
C193   C     0.80595   0.15001   0.87415   0.00000  Uiso   1.00
C194   C     0.54797   0.21912   0.01428   0.00000  Uiso   1.00
C195   C     0.51356   0.19779   0.13873   0.00000  Uiso   1.00
C196   C     0.47315   0.16532   0.07613   0.00000  Uiso   1.00
C197   C     0.40122   0.11030   0.04261   0.00000  Uiso   1.00
C198   C     0.58430   0.23584   0.72113   0.00000  Uiso   1.00
C199   C     0.58010   0.29490   0.76353   0.00000  Uiso   1.00
C200   C     0.57158   0.33521   0.64171   0.00000  Uiso   1.00
C201   C     0.56900   0.38669   0.70694   0.00000  Uiso   1.00
C202   C     0.63780   0.21776   0.79395   0.00000  Uiso   1.00
C203   C     0.67778   0.19320   0.69771   0.00000  Uiso   1.00
C204   C     0.72376   0.17973   0.78854   0.00000  Uiso   1.00
C205   C     0.54223   0.20839   0.83372   0.00000  Uiso   1.00
C206   C     0.50187   0.17594   0.77092   0.00000  Uiso   1.00
C207   C     0.46740   0.15457   0.89524   0.00000  Uiso   1.00
H208   H     0.59933   0.26394   0.19414   0.00000  Uiso   1.00
H209   H     0.58772   0.36534   0.14926   0.00000  Uiso   1.00
H210   H     0.69389   0.22335   0.20525   0.00000  Uiso   1.00
H211   H     0.51801   0.20609   0.27844   0.00000  Uiso   1.00
H212   H     0.57233   0.47304   0.01985   0.00000  Uiso   1.00
H213   H     0.79620   0.17362   0.13792   0.00000  Uiso   1.00
H214   H     0.42532   0.13724   0.29228   0.00000  Uiso   1.00
H215   H     0.57983   0.22749   0.58055   0.00000  Uiso   1.00
H216   H     0.56714   0.32690   0.50199   0.00000  Uiso   1.00
H217   H     0.67332   0.18491   0.55798   0.00000  Uiso   1.00
H218   H     0.49744   0.16765   0.63118   0.00000  Uiso   1.00
H219   H     0.55563   0.44184   0.49451   0.00000  Uiso   1.00
H220   H     0.77951   0.14242   0.61258   0.00000  Uiso   1.00
H221   H     0.40863   0.10604   0.76694   0.00000  Uiso   1.00
O222   O     0.55601   0.52350   0.71656   0.00000  Uiso   1.00
O223   O     0.84971   0.13066   0.87148   0.00000  Uiso   1.00
O224   O     0.36313   0.08293   0.07399   0.00000  Uiso   1.00
N225   N     0.57013   0.45206   0.90700   0.00000  Uiso   1.00
N226   N     0.77944   0.17213   0.01738   0.00000  Uiso   1.00
N227   N     0.43271   0.13809   0.16170   0.00000  Uiso   1.00
N228   N     0.56115   0.43527   0.62431   0.00000  Uiso   1.00
N229   N     0.77046   0.15534   0.73470   0.00000  Uiso   1.00
N230   N     0.42373   0.12131   0.87902   0.00000  Uiso   1.00
C231   C     0.09486   0.75559   0.55357   0.00000  Uiso   1.00
C232   C     0.08584   0.80563   0.44410   0.00000  Uiso   1.00
C233   C     0.08327   0.85706   0.50951   0.00000  Uiso   1.00
C234   C     0.07475   0.89744   0.38783   0.00000  Uiso   1.00
C235   C     0.06164   0.97677   0.24530   0.00000  Uiso   1.00
C236   C     0.14353   0.72849   0.47451   0.00000  Uiso   1.00
C237   C     0.18946   0.71505   0.56551   0.00000  Uiso   1.00
C238   C     0.22950   0.69048   0.46943   0.00000  Uiso   1.00
C239   C     0.30595   0.65001   0.37415   0.00000  Uiso   1.00
C240   C     0.04797   0.71912   0.51428   0.00000  Uiso   1.00
C241   C     0.01356   0.69779   0.63873   0.00000  Uiso   1.00
C242   C     0.97315   0.66532   0.57613   0.00000  Uiso   1.00
C243   C     0.90122   0.61030   0.54261   0.00000  Uiso   1.00
C244   C     0.08430   0.73584   0.22113   0.00000  Uiso   1.00
C245   C     0.08010   0.79490   0.26353   0.00000  Uiso   1.00
C246   C     0.07158   0.83521   0.14171   0.00000  Uiso   1.00
C247   C     0.06900   0.88669   0.20694   0.00000  Uiso   1.00
C248   C     0.13780   0.71776   0.29395   0.00000  Uiso   1.00
C249   C     0.17778   0.69320   0.19771   0.00000  Uiso   1.00
C250   C     0.22376   0.67973   0.28854   0.00000  Uiso   1.00
C251   C     0.04223   0.70839   0.33372   0.00000  Uiso   1.00
C252   C     0.00187   0.67594   0.27092   0.00000  Uiso   1.00
C253   C     0.96740   0.65457   0.39524   0.00000  Uiso   1.00
H254   H     0.09933   0.76394   0.69414   0.00000  Uiso   1.00
H255   H     0.08772   0.86534   0.64926   0.00000  Uiso   1.00
H256   H     0.19389   0.72335   0.70525   0.00000  Uiso   1.00
H257   H     0.01801   0.70609   0.77844   0.00000  Uiso   1.00
H258   H     0.07233   0.97304   0.51985   0.00000  Uiso   1.00
H259   H     0.29620   0.67362   0.63792   0.00000  Uiso   1.00
H260   H     0.92532   0.63724   0.79228   0.00000  Uiso   1.00
H261   H     0.07983   0.72749   0.08055   0.00000  Uiso   1.00
H262   H     0.06714   0.82690   0.00199   0.00000  Uiso   1.00
H263   H     0.17332   0.68491   0.05798   0.00000  Uiso   1.00
H264   H     0.99744   0.66765   0.13118   0.00000  Uiso   1.00
H265   H     0.05563   0.94184   0.99451   0.00000  Uiso   1.00
H266   H     0.27951   0.64242   0.11258   0.00000  Uiso   1.00
H267   H     0.90863   0.60604   0.26694   0.00000  Uiso   1.00
O268   O     0.05601   0.02350   0.21656   0.00000  Uiso   1.00
O269   O     0.34971   0.63066   0.37148   0.00000  Uiso   1.00
O270   O     0.86313   0.58293   0.57399   0.00000  Uiso   1.00
N271   N     0.07013   0.95206   0.40700   0.00000  Uiso   1.00
N272   N     0.27944   0.67213   0.51738   0.00000  Uiso   1.00
N273   N     0.93271   0.63809   0.66170   0.00000  Uiso   1.00
N274   N     0.06115   0.93527   0.12431   0.00000  Uiso   1.00
N275   N     0.27046   0.65534   0.23470   0.00000  Uiso   1.00
N276   N     0.92373   0.62131   0.37902   0.00000  Uiso   1.00
C277   C     0.40514   0.74441   0.05357   0.00000  Uiso   1.00
C278   C     0.41416   0.69437   0.94410   0.00000  Uiso   1.00
C279   C     0.41673   0.64294   0.00951   0.00000  Uiso   1.00
C280   C     0.42525   0.60256   0.88783   0.00000  Uiso   1.00
C281   C     0.43836   0.52323   0.74530   0.00000  Uiso   1.00
C282   C     0.35647   0.77151   0.97451   0.00000  Uiso   1.00
C283   C     0.31054   0.78495   0.06551   0.00000  Uiso   1.00
C284   C     0.27050   0.80952   0.96943   0.00000  Uiso   1.00
C285   C     0.19405   0.84999   0.87415   0.00000  Uiso   1.00
C286   C     0.45203   0.78088   0.01428   0.00000  Uiso   1.00
C287   C     0.48644   0.80221   0.13873   0.00000  Uiso   1.00
C288   C     0.52685   0.83468   0.07613   0.00000  Uiso   1.00
C289   C     0.59878   0.88970   0.04261   0.00000  Uiso   1.00
C290   C     0.41570   0.76416   0.72113   0.00000  Uiso   1.00
C291   C     0.41990   0.70510   0.76353   0.00000  Uiso   1.00
C292   C     0.42842   0.66479   0.64171   0.00000  Uiso   1.00
C293   C     0.43100   0.61331   0.70694   0.00000  Uiso   1.00
C294   C     0.36220   0.78224   0.79395   0.00000  Uiso   1.00
C295   C     0.32222   0.80680   0.69771   0.00000  Uiso   1.00
C296   C     0.27624   0.82027   0.78854   0.00000  Uiso   1.00
C297   C     0.45777   0.79161   0.83372   0.00000  Uiso   1.00
C298   C     0.49813   0.82406   0.77092   0.00000  Uiso   1.00
C299   C     0.53260   0.84543   0.89524   0.00000  Uiso   1.00
H300   H     0.40067   0.73606   0.19414   0.00000  Uiso   1.00
H301   H     0.41228   0.63466   0.14926   0.00000  Uiso   1.00
H302   H     0.30611   0.77665   0.20525   0.00000  Uiso   1.00
H303   H     0.48199   0.79391   0.27844   0.00000  Uiso   1.00
H304   H     0.42767   0.52696   0.01985   0.00000  Uiso   1.00
H305   H     0.20380   0.82638   0.13792   0.00000  Uiso   1.00
H306   H     0.57468   0.86276   0.29228   0.00000  Uiso   1.00
H307   H     0.42017   0.77251   0.58055   0.00000  Uiso   1.00
H308   H     0.43286   0.67310   0.50199   0.00000  Uiso   1.00
H309   H     0.32668   0.81509   0.55798   0.00000  Uiso   1.00
H310   H     0.50256   0.83235   0.63118   0.00000  Uiso   1.00
H311   H     0.44437   0.55816   0.49451   0.00000  Uiso   1.00
H312   H     0.22049   0.85758   0.61258   0.00000  Uiso   1.00
H313   H     0.59137   0.89396   0.76694   0.00000  Uiso   1.00
O314   O     0.44399   0.47650   0.71656   0.00000  Uiso   1.00
O315   O     0.15029   0.86934   0.87148   0.00000  Uiso   1.00
O316   O     0.63687   0.91707   0.07399   0.00000  Uiso   1.00
N317   N     0.42987   0.54794   0.90700   0.00000  Uiso   1.00
N318   N     0.22056   0.82787   0.01738   0.00000  Uiso   1.00
N319   N     0.56729   0.86191   0.16170   0.00000  Uiso   1.00
N320   N     0.43885   0.56473   0.62431   0.00000  Uiso   1.00
N321   N     0.22954   0.84466   0.73470   0.00000  Uiso   1.00
N322   N     0.57627   0.87869   0.87902   0.00000  Uiso   1.00
C323   C     0.90514   0.24441   0.55357   0.00000  Uiso   1.00
C324   C     0.91416   0.19437   0.44410   0.00000  Uiso   1.00
C325   C     0.91673   0.14294   0.50951   0.00000  Uiso   1.00
C326   C     0.92525   0.10256   0.38783   0.00000  Uiso   1.00
C327   C     0.93836   0.02323   0.24530   0.00000  Uiso   1.00
C328   C     0.85647   0.27151   0.47451   0.00000  Uiso   1.00
C329   C     0.81054   0.28495   0.56551   0.00000  Uiso   1.00
C330   C     0.77050   0.30952   0.46943   0.00000  Uiso   1.00
C331   C     0.69405   0.34999   0.37415   0.00000  Uiso   1.00
C332   C     0.95203   0.28088   0.51428   0.00000  Uiso   1.00
C333   C     0.98644   0.30221   0.63873   0.00000  Uiso   1.00
C334   C     0.02685   0.33468   0.57613   0.00000  Uiso   1.00
C335   C     0.09878   0.38970   0.54261   0.00000  Uiso   1.00
C336   C     0.91570   0.26416   0.22113   0.00000  Uiso   1.00
C337   C     0.91990   0.20510   0.26353   0.00000  Uiso   1.00
C338   C     0.92842   0.16479   0.14171   0.00000  Uiso   1.00
C339   C     0.93100   0.11331   0.20694   0.00000  Uiso   1.00
C340   C     0.86220   0.28224   0.29395   0.00000  Uiso   1.00
C341   C     0.82222   0.30680   0.19771   0.00000  Uiso   1.00
C342   C     0.77624   0.32027   0.28854   0.00000  Uiso   1.00
C343   C     0.95777   0.29161   0.33372   0.00000  Uiso   1.00
C344   C     0.99813   0.32406   0.27092   0.00000  Uiso   1.00
C345   C     0.03260   0.34543   0.39524   0.00000  Uiso   1.00
H346   H     0.90067   0.23606   0.69414   0.00000  Uiso   1.00
H347   H     0.91228   0.13466   0.64926   0.00000  Uiso   1.00
H348   H     0.80611   0.27665   0.70525   0.00000  Uiso   1.00
H349   H     0.98199   0.29391   0.77844   0.00000  Uiso   1.00
H350   H     0.92767   0.02696   0.51985   0.00000  Uiso   1.00
H351   H     0.70380   0.32638   0.63792   0.00000  Uiso   1.00
H352   H     0.07468   0.36276   0.79228   0.00000  Uiso   1.00
H353   H     0.92017   0.27251   0.08055   0.00000  Uiso   1.00
H354   H     0.93286   0.17310   0.00199   0.00000  Uiso   1.00
H355   H     0.82668   0.31509   0.05798   0.00000  Uiso   1.00
H356   H     0.00256   0.33235   0.13118   0.00000  Uiso   1.00
H357   H     0.94437   0.05816   0.99451   0.00000  Uiso   1.00
H358   H     0.72049   0.35758   0.11258   0.00000  Uiso   1.00
H359   H     0.09137   0.39396   0.26694   0.00000  Uiso   1.00
O360   O     0.94399   0.97650   0.21656   0.00000  Uiso   1.00
O361   O     0.65029   0.36934   0.37148   0.00000  Uiso   1.00
O362   O     0.13687   0.41707   0.57399   0.00000  Uiso   1.00
N363   N     0.92987   0.04794   0.40700   0.00000  Uiso   1.00
N364   N     0.72056   0.32787   0.51738   0.00000  Uiso   1.00
N365   N     0.06729   0.36191   0.66170   0.00000  Uiso   1.00
N366   N     0.93885   0.06473   0.12431   0.00000  Uiso   1.00
N367   N     0.72954   0.34466   0.23470   0.00000  Uiso   1.00
N368   N     0.07627   0.37869   0.37902   0.00000  Uiso   1.00
