data_job_06946
_audit_creation_date              2018-12-19
_audit_creation_method            'Materials Studio'
_symmetry_space_group_name_H-M    'P1'
_symmetry_Int_Tables_number       1
_symmetry_cell_setting            triclinic
loop_
_symmetry_equiv_pos_as_xyz
  x,y,z
_cell_length_a                    21.1435
_cell_length_b                    19.1783
_cell_length_c                    21.6004
_cell_angle_alpha                 94.9419
_cell_angle_beta                  98.8609
_cell_angle_gamma                 108.2670
loop_
_atom_site_label
_atom_site_type_symbol
_atom_site_fract_x
_atom_site_fract_y
_atom_site_fract_z
_atom_site_U_iso_or_equiv
_atom_site_adp_type
_atom_site_occupancy
C1     C     0.36397   0.25402   0.77846   0.00000  Uiso   1.00
C2     C     0.40168   0.19802   0.77887   0.00000  Uiso   1.00
C3     C     0.38296   0.13249   0.73733   0.00000  Uiso   1.00
C4     C     0.42416   0.08880   0.74553   0.00000  Uiso   1.00
C5     C     0.47390   0.99861   0.73888   0.00000  Uiso   1.00
C6     C     0.34757   0.26263   0.84443   0.00000  Uiso   1.00
C7     C     0.28336   0.25143   0.85801   0.00000  Uiso   1.00
C8     C     0.27900   0.26215   0.92140   0.00000  Uiso   1.00
C9     C     0.24475   0.27233   0.01652   0.00000  Uiso   1.00
C10    C     0.41559   0.32809   0.77269   0.00000  Uiso   1.00
C11    C     0.40857   0.37193   0.72597   0.00000  Uiso   1.00
C12    C     0.46148   0.43776   0.72897   0.00000  Uiso   1.00
C13    C     0.53284   0.54957   0.71271   0.00000  Uiso   1.00
C14    C     0.47041   0.29297   0.86689   0.00000  Uiso   1.00
C15    C     0.45949   0.21918   0.82690   0.00000  Uiso   1.00
C16    C     0.50073   0.17558   0.83517   0.00000  Uiso   1.00
C17    C     0.48208   0.10999   0.79365   0.00000  Uiso   1.00
C18    C     0.40538   0.28379   0.89246   0.00000  Uiso   1.00
C19    C     0.40112   0.29453   0.95584   0.00000  Uiso   1.00
C20    C     0.33692   0.28334   0.96952   0.00000  Uiso   1.00
C21    C     0.47341   0.34925   0.82072   0.00000  Uiso   1.00
C22    C     0.52634   0.41502   0.82380   0.00000  Uiso   1.00
C23    C     0.51940   0.45896   0.77709   0.00000  Uiso   1.00
H24    H     0.31895   0.23754   0.74107   0.00000  Uiso   1.00
H25    H     0.33821   0.11613   0.70017   0.00000  Uiso   1.00
H26    H     0.23862   0.23507   0.82083   0.00000  Uiso   1.00
H27    H     0.36382   0.35554   0.68881   0.00000  Uiso   1.00
H28    H     0.38505   0.99083   0.67602   0.00000  Uiso   1.00
H29    H     0.17506   0.24164   0.93043   0.00000  Uiso   1.00
H30    H     0.43907   0.49569   0.65204   0.00000  Uiso   1.00
H31    H     0.51542   0.30945   0.90429   0.00000  Uiso   1.00
H32    H     0.54547   0.19197   0.87234   0.00000  Uiso   1.00
H33    H     0.44588   0.31091   0.99300   0.00000  Uiso   1.00
H34    H     0.57108   0.43138   0.86098   0.00000  Uiso   1.00
H35    H     0.55327   0.05239   0.81576   0.00000  Uiso   1.00
H36    H     0.34328   0.30320   0.07018   0.00000  Uiso   1.00
H37    H     0.60728   0.55724   0.79178   0.00000  Uiso   1.00
O38    O     0.48537   0.94302   0.72194   0.00000  Uiso   1.00
O39    O     0.20987   0.27209   0.05572   0.00000  Uiso   1.00
O40    O     0.55624   0.60538   0.69048   0.00000  Uiso   1.00
N41    N     0.42052   0.02145   0.71328   0.00000  Uiso   1.00
N42    N     0.22420   0.25593   0.95115   0.00000  Uiso   1.00
N43    N     0.47101   0.49345   0.69088   0.00000  Uiso   1.00
N44    N     0.51104   0.05457   0.78848   0.00000  Uiso   1.00
N45    N     0.31471   0.28905   0.02634   0.00000  Uiso   1.00
N46    N     0.56153   0.52657   0.76608   0.00000  Uiso   1.00
C47    C     0.90076   0.28629   0.27923   0.00000  Uiso   1.00
C48    C     0.91490   0.29003   0.21224   0.00000  Uiso   1.00
C49    C     0.96752   0.27339   0.19021   0.00000  Uiso   1.00
C50    C     0.97179   0.28027   0.12740   0.00000  Uiso   1.00
C51    C     0.00086   0.28267   0.02938   0.00000  Uiso   1.00
C52    C     0.90049   0.36318   0.30365   0.00000  Uiso   1.00
C53    C     0.94099   0.40803   0.35848   0.00000  Uiso   1.00
C54    C     0.93312   0.47648   0.37262   0.00000  Uiso   1.00
C55    C     0.93978   0.59242   0.41655   0.00000  Uiso   1.00
C56    C     0.82798   0.23431   0.27218   0.00000  Uiso   1.00
C57    C     0.80750   0.17081   0.30056   0.00000  Uiso   1.00
C58    C     0.73858   0.13077   0.28821   0.00000  Uiso   1.00
C59    C     0.63267   0.04661   0.28327   0.00000  Uiso   1.00
C60    C     0.81476   0.32810   0.20685   0.00000  Uiso   1.00
C61    C     0.86819   0.31275   0.17293   0.00000  Uiso   1.00
C62    C     0.87237   0.31965   0.11013   0.00000  Uiso   1.00
C63    C     0.92499   0.30302   0.08801   0.00000  Uiso   1.00
C64    C     0.85378   0.38589   0.26434   0.00000  Uiso   1.00
C65    C     0.84584   0.45429   0.27841   0.00000  Uiso   1.00
C66    C     0.88632   0.49923   0.33324   0.00000  Uiso   1.00
C67    C     0.78126   0.25702   0.23287   0.00000  Uiso   1.00
C68    C     0.71236   0.21707   0.22048   0.00000  Uiso   1.00
C69    C     0.69179   0.15352   0.24883   0.00000  Uiso   1.00
H70    H     0.93713   0.26861   0.30983   0.00000  Uiso   1.00
H71    H     0.00366   0.25582   0.22065   0.00000  Uiso   1.00
H72    H     0.97713   0.39044   0.38890   0.00000  Uiso   1.00
H73    H     0.84367   0.15325   0.33098   0.00000  Uiso   1.00
H74    H     0.05684   0.25169   0.10445   0.00000  Uiso   1.00
H75    H     0.00088   0.53552   0.45922   0.00000  Uiso   1.00
H76    H     0.71945   0.03537   0.33708   0.00000  Uiso   1.00
H77    H     0.77840   0.34578   0.17624   0.00000  Uiso   1.00
H78    H     0.83622   0.33722   0.07972   0.00000  Uiso   1.00
H79    H     0.80969   0.47184   0.24797   0.00000  Uiso   1.00
H80    H     0.67623   0.23466   0.19005   0.00000  Uiso   1.00
H81    H     0.92094   0.31776   0.99006   0.00000  Uiso   1.00
H82    H     0.86497   0.60159   0.34484   0.00000  Uiso   1.00
H83    H     0.58355   0.10144   0.22270   0.00000  Uiso   1.00
O84    O     0.02980   0.27773   0.98618   0.00000  Uiso   1.00
O85    O     0.95637   0.65009   0.45163   0.00000  Uiso   1.00
O86    O     0.58715   0.99391   0.29139   0.00000  Uiso   1.00
N87    N     0.01691   0.26840   0.09077   0.00000  Uiso   1.00
N88    N     0.96460   0.53377   0.42245   0.00000  Uiso   1.00
N89    N     0.70148   0.06618   0.30828   0.00000  Uiso   1.00
N90    N     0.94379   0.30395   0.02922   0.00000  Uiso   1.00
N91    N     0.89147   0.56932   0.36091   0.00000  Uiso   1.00
N92    N     0.62836   0.10173   0.24673   0.00000  Uiso   1.00
C93    C     0.12928   0.79967   0.31946   0.00000  Uiso   1.00
C94    C     0.11098   0.83481   0.37718   0.00000  Uiso   1.00
C95    C     0.05753   0.86233   0.37644   0.00000  Uiso   1.00
C96    C     0.04928   0.89231   0.43427   0.00000  Uiso   1.00
C97    C     0.01425   0.94655   0.51529   0.00000  Uiso   1.00
C98    C     0.20300   0.84431   0.31948   0.00000  Uiso   1.00
C99    C     0.22690   0.87980   0.27021   0.00000  Uiso   1.00
C100   C     0.29610   0.91776   0.27946   0.00000  Uiso   1.00
C101   C     0.40393   0.98671   0.27088   0.00000  Uiso   1.00
C102   C     0.12895   0.72284   0.33301   0.00000  Uiso   1.00
C103   C     0.09062   0.65620   0.29512   0.00000  Uiso   1.00
C104   C     0.09749   0.59190   0.31576   0.00000  Uiso   1.00
C105   C     0.09035   0.47225   0.32819   0.00000  Uiso   1.00
C106   C     0.20966   0.80396   0.42348   0.00000  Uiso   1.00
C107   C     0.15465   0.83714   0.43368   0.00000  Uiso   1.00
C108   C     0.14647   0.86708   0.49152   0.00000  Uiso   1.00
C109   C     0.09301   0.89464   0.49087   0.00000  Uiso   1.00
C110   C     0.24666   0.84664   0.37597   0.00000  Uiso   1.00
C111   C     0.31584   0.88455   0.38530   0.00000  Uiso   1.00
C112   C     0.33984   0.92010   0.33606   0.00000  Uiso   1.00
C113   C     0.17261   0.72517   0.38951   0.00000  Uiso   1.00
C114   C     0.17955   0.66096   0.41021   0.00000  Uiso   1.00
C115   C     0.14123   0.59424   0.37236   0.00000  Uiso   1.00
H116   H     0.09529   0.79786   0.27548   0.00000  Uiso   1.00
H117   H     0.02376   0.86052   0.33270   0.00000  Uiso   1.00
H118   H     0.19311   0.87798   0.22649   0.00000  Uiso   1.00
H119   H     0.05684   0.65442   0.25140   0.00000  Uiso   1.00
H120   H     0.96372   0.93105   0.42107   0.00000  Uiso   1.00
H121   H     0.32080   0.96785   0.19711   0.00000  Uiso   1.00
H122   H     0.03345   0.49643   0.24963   0.00000  Uiso   1.00
H123   H     0.24366   0.80578   0.46747   0.00000  Uiso   1.00
H124   H     0.18026   0.86888   0.53524   0.00000  Uiso   1.00
H125   H     0.34961   0.88634   0.42903   0.00000  Uiso   1.00
H126   H     0.21334   0.66278   0.45393   0.00000  Uiso   1.00
H127   H     0.09075   0.93784   0.58545   0.00000  Uiso   1.00
H128   H     0.44783   0.97463   0.36149   0.00000  Uiso   1.00
H129   H     0.16047   0.50321   0.41401   0.00000  Uiso   1.00
O130   O     0.98287   0.97584   0.54437   0.00000  Uiso   1.00
O131   O     0.45134   0.02410   0.25054   0.00000  Uiso   1.00
O132   O     0.07434   0.40560   0.31945   0.00000  Uiso   1.00
N133   N     0.00231   0.92398   0.45046   0.00000  Uiso   1.00
N134   N     0.33615   0.95839   0.24107   0.00000  Uiso   1.00
N135   N     0.06752   0.51765   0.29017   0.00000  Uiso   1.00
N136   N     0.07066   0.92763   0.53891   0.00000  Uiso   1.00
N137   N     0.40450   0.96204   0.32953   0.00000  Uiso   1.00
N138   N     0.13587   0.52130   0.37862   0.00000  Uiso   1.00
C139   C     0.78073   0.18876   0.70518   0.00000  Uiso   1.00
C140   C     0.82408   0.17990   0.65676   0.00000  Uiso   1.00
C141   C     0.81412   0.19387   0.59466   0.00000  Uiso   1.00
C142   C     0.85933   0.18240   0.55791   0.00000  Uiso   1.00
C143   C     0.91857   0.17241   0.47901   0.00000  Uiso   1.00
C144   C     0.82934   0.24181   0.76169   0.00000  Uiso   1.00
C145   C     0.82379   0.30784   0.78782   0.00000  Uiso   1.00
C146   C     0.87342   0.34848   0.83941   0.00000  Uiso   1.00
C147   C     0.94079   0.43458   0.92344   0.00000  Uiso   1.00
C148   C     0.75593   0.11360   0.72805   0.00000  Uiso   1.00
C149   C     0.68866   0.07183   0.72590   0.00000  Uiso   1.00
C150   C     0.67649   0.00454   0.74917   0.00000  Uiso   1.00
C151   C     0.62988   0.89158   0.78096   0.00000  Uiso   1.00
C152   C     0.87874   0.14354   0.75035   0.00000  Uiso   1.00
C153   C     0.87732   0.15534   0.68130   0.00000  Uiso   1.00
C154   C     0.92255   0.14384   0.64464   0.00000  Uiso   1.00
C155   C     0.91265   0.15779   0.58249   0.00000  Uiso   1.00
C156   C     0.88257   0.21725   0.78623   0.00000  Uiso   1.00
C157   C     0.93222   0.25781   0.83779   0.00000  Uiso   1.00
C158   C     0.92675   0.32388   0.86399   0.00000  Uiso   1.00
C159   C     0.80917   0.08904   0.75258   0.00000  Uiso   1.00
C160   C     0.79710   0.02180   0.77587   0.00000  Uiso   1.00
C161   C     0.72982   0.97994   0.77375   0.00000  Uiso   1.00
H162   H     0.73929   0.20789   0.68609   0.00000  Uiso   1.00
H163   H     0.77292   0.21289   0.57570   0.00000  Uiso   1.00
H164   H     0.78258   0.32682   0.76883   0.00000  Uiso   1.00
H165   H     0.64748   0.09086   0.70691   0.00000  Uiso   1.00
H166   H     0.83370   0.20762   0.46413   0.00000  Uiso   1.00
H167   H     0.85406   0.44786   0.87138   0.00000  Uiso   1.00
H168   H     0.56916   0.95027   0.74081   0.00000  Uiso   1.00
H169   H     0.92019   0.12442   0.76945   0.00000  Uiso   1.00
H170   H     0.96374   0.12483   0.66363   0.00000  Uiso   1.00
H171   H     0.97341   0.23878   0.85677   0.00000  Uiso   1.00
H172   H     0.83830   0.00281   0.79485   0.00000  Uiso   1.00
H173   H     0.98858   0.13616   0.53551   0.00000  Uiso   1.00
H174   H     0.00894   0.37639   0.94275   0.00000  Uiso   1.00
H175   H     0.72405   0.87881   0.81219   0.00000  Uiso   1.00
O176   O     0.93654   0.17369   0.42871   0.00000  Uiso   1.00
O177   O     0.96325   0.48886   0.96300   0.00000  Uiso   1.00
O178   O     0.58947   0.83605   0.79171   0.00000  Uiso   1.00
N179   N     0.86416   0.19073   0.49545   0.00000  Uiso   1.00
N180   N     0.88321   0.41534   0.87619   0.00000  Uiso   1.00
N181   N     0.61685   0.95016   0.75414   0.00000  Uiso   1.00
N182   N     0.94750   0.15227   0.53386   0.00000  Uiso   1.00
N183   N     0.96655   0.37689   0.91460   0.00000  Uiso   1.00
N184   N     0.70019   0.91170   0.79255   0.00000  Uiso   1.00
C185   C     0.31252   0.63954   0.74165   0.00000  Uiso   1.00
C186   C     0.26434   0.56737   0.75554   0.00000  Uiso   1.00
C187   C     0.24572   0.49840   0.71897   0.00000  Uiso   1.00
C188   C     0.20107   0.43919   0.73971   0.00000  Uiso   1.00
C189   C     0.13010   0.32567   0.75288   0.00000  Uiso   1.00
C190   C     0.36856   0.66942   0.80033   0.00000  Uiso   1.00
C191   C     0.43756   0.68627   0.80143   0.00000  Uiso   1.00
C192   C     0.48063   0.71298   0.85988   0.00000  Uiso   1.00
C193   C     0.57146   0.75795   0.94259   0.00000  Uiso   1.00
C194   C     0.27301   0.69381   0.73888   0.00000  Uiso   1.00
C195   C     0.26170   0.73119   0.68832   0.00000  Uiso   1.00
C196   C     0.22434   0.77845   0.69504   0.00000  Uiso   1.00
C197   C     0.16682   0.86130   0.68233   0.00000  Uiso   1.00
C198   C     0.26632   0.65702   0.84351   0.00000  Uiso   1.00
C199   C     0.23925   0.57686   0.81086   0.00000  Uiso   1.00
C200   C     0.19460   0.51774   0.83166   0.00000  Uiso   1.00
C201   C     0.17592   0.44870   0.79514   0.00000  Uiso   1.00
C202   C     0.34346   0.67891   0.85566   0.00000  Uiso   1.00
C203   C     0.38644   0.70561   0.91412   0.00000  Uiso   1.00
C204   C     0.45549   0.72249   0.91531   0.00000  Uiso   1.00
C205   C     0.24791   0.70331   0.79421   0.00000  Uiso   1.00
C206   C     0.21057   0.75052   0.80101   0.00000  Uiso   1.00
C207   C     0.19920   0.78796   0.75046   0.00000  Uiso   1.00
H208   H     0.33206   0.63215   0.69858   0.00000  Uiso   1.00
H209   H     0.26516   0.49108   0.67616   0.00000  Uiso   1.00
H210   H     0.45697   0.67893   0.75861   0.00000  Uiso   1.00
H211   H     0.28112   0.72383   0.64551   0.00000  Uiso   1.00
H212   H     0.17994   0.33885   0.67572   0.00000  Uiso   1.00
H213   H     0.58437   0.73496   0.84956   0.00000  Uiso   1.00
H214   H     0.21358   0.82966   0.61107   0.00000  Uiso   1.00
H215   H     0.24678   0.66441   0.88658   0.00000  Uiso   1.00
H216   H     0.17519   0.52510   0.87448   0.00000  Uiso   1.00
H217   H     0.36700   0.71295   0.95692   0.00000  Uiso   1.00
H218   H     0.19116   0.75786   0.84383   0.00000  Uiso   1.00
H219   H     0.10692   0.36646   0.83668   0.00000  Uiso   1.00
H220   H     0.51136   0.76258   0.01052   0.00000  Uiso   1.00
H221   H     0.14056   0.85727   0.77203   0.00000  Uiso   1.00
O222   O     0.09790   0.26043   0.74486   0.00000  Uiso   1.00
O223   O     0.62850   0.78012   0.97292   0.00000  Uiso   1.00
O224   O     0.14202   0.90436   0.66003   0.00000  Uiso   1.00
N225   N     0.17257   0.36447   0.71526   0.00000  Uiso   1.00
N226   N     0.55069   0.73480   0.87779   0.00000  Uiso   1.00
N227   N     0.20404   0.82335   0.65483   0.00000  Uiso   1.00
N228   N     0.13328   0.37933   0.80187   0.00000  Uiso   1.00
N229   N     0.51140   0.74966   0.96440   0.00000  Uiso   1.00
N230   N     0.16475   0.83821   0.74144   0.00000  Uiso   1.00
C231   C     0.49614   0.57856   0.40685   0.00000  Uiso   1.00
C232   C     0.45326   0.61861   0.37129   0.00000  Uiso   1.00
C233   C     0.38321   0.59932   0.36294   0.00000  Uiso   1.00
C234   C     0.35348   0.64297   0.32897   0.00000  Uiso   1.00
C235   C     0.28097   0.69593   0.27754   0.00000  Uiso   1.00
C236   C     0.54814   0.63710   0.45793   0.00000  Uiso   1.00
C237   C     0.55787   0.63335   0.52242   0.00000  Uiso   1.00
C238   C     0.60802   0.69256   0.56139   0.00000  Uiso   1.00
C239   C     0.68284   0.77421   0.64446   0.00000  Uiso   1.00
C240   C     0.53622   0.55661   0.36018   0.00000  Uiso   1.00
C241   C     0.53593   0.48519   0.34249   0.00000  Uiso   1.00
C242   C     0.57606   0.47664   0.29917   0.00000  Uiso   1.00
C243   C     0.63237   0.43331   0.23047   0.00000  Uiso   1.00
C244   C     0.56792   0.69037   0.36138   0.00000  Uiso   1.00
C245   C     0.49225   0.67934   0.34660   0.00000  Uiso   1.00
C246   C     0.46262   0.72302   0.31263   0.00000  Uiso   1.00
C247   C     0.39254   0.70381   0.30423   0.00000  Uiso   1.00
C248   C     0.58713   0.69782   0.43324   0.00000  Uiso   1.00
C249   C     0.63728   0.75705   0.47212   0.00000  Uiso   1.00
C250   C     0.64707   0.75340   0.53665   0.00000  Uiso   1.00
C251   C     0.57521   0.61734   0.33548   0.00000  Uiso   1.00
C252   C     0.61535   0.60889   0.29218   0.00000  Uiso   1.00
C253   C     0.61512   0.53747   0.27443   0.00000  Uiso   1.00
H254   H     0.46579   0.53128   0.42608   0.00000  Uiso   1.00
H255   H     0.35306   0.55233   0.38207   0.00000  Uiso   1.00
H256   H     0.52769   0.58635   0.54152   0.00000  Uiso   1.00
H257   H     0.50576   0.43821   0.36161   0.00000  Uiso   1.00
H258   H     0.24526   0.60245   0.32239   0.00000  Uiso   1.00
H259   H     0.61350   0.67417   0.65860   0.00000  Uiso   1.00
H260   H     0.56726   0.36179   0.27924   0.00000  Uiso   1.00
H261   H     0.59828   0.73765   0.34216   0.00000  Uiso   1.00
H262   H     0.49281   0.77002   0.29353   0.00000  Uiso   1.00
H263   H     0.66744   0.80404   0.45299   0.00000  Uiso   1.00
H264   H     0.64551   0.65590   0.27308   0.00000  Uiso   1.00
H265   H     0.35869   0.77914   0.25053   0.00000  Uiso   1.00
H266   H     0.72693   0.85086   0.58675   0.00000  Uiso   1.00
H267   H     0.68069   0.53848   0.20739   0.00000  Uiso   1.00
O268   O     0.23021   0.70838   0.25600   0.00000  Uiso   1.00
O269   O     0.71333   0.80246   0.69710   0.00000  Uiso   1.00
O270   O     0.65265   0.39263   0.19939   0.00000  Uiso   1.00
N271   N     0.28643   0.63958   0.31214   0.00000  Uiso   1.00
N272   N     0.63071   0.70664   0.62648   0.00000  Uiso   1.00
N273   N     0.58748   0.41460   0.27183   0.00000  Uiso   1.00
N274   N     0.34747   0.73466   0.27347   0.00000  Uiso   1.00
N275   N     0.69174   0.80172   0.58782   0.00000  Uiso   1.00
N276   N     0.64852   0.50967   0.23316   0.00000  Uiso   1.00
C277   C     0.45086   0.63164   0.13990   0.00000  Uiso   1.00
C278   C     0.40766   0.67991   0.12187   0.00000  Uiso   1.00
C279   C     0.41790   0.75079   0.15143   0.00000  Uiso   1.00
C280   C     0.37281   0.78575   0.12786   0.00000  Uiso   1.00
C281   C     0.31388   0.86600   0.10765   0.00000  Uiso   1.00
C282   C     0.47541   0.61185   0.08013   0.00000  Uiso   1.00
C283   C     0.54261   0.62550   0.07460   0.00000  Uiso   1.00
C284   C     0.55454   0.60315   0.01590   0.00000  Uiso   1.00
C285   C     0.60078   0.57768   0.93091   0.00000  Uiso   1.00
C286   C     0.40216   0.55933   0.15299   0.00000  Uiso   1.00
C287   C     0.40779   0.52882   0.20871   0.00000  Uiso   1.00
C288   C     0.35806   0.46225   0.21134   0.00000  Uiso   1.00
C289   C     0.29058   0.35525   0.23946   0.00000  Uiso   1.00
C290   C     0.35257   0.56767   0.04549   0.00000  Uiso   1.00
C291   C     0.35427   0.64516   0.07059   0.00000  Uiso   1.00
C292   C     0.30915   0.68002   0.04697   0.00000  Uiso   1.00
C293   C     0.31933   0.75095   0.07649   0.00000  Uiso   1.00
C294   C     0.42202   0.57710   0.02886   0.00000  Uiso   1.00
C295   C     0.43386   0.55473   0.97015   0.00000  Uiso   1.00
C296   C     0.50106   0.56835   0.96453   0.00000  Uiso   1.00
C297   C     0.34877   0.52459   0.10171   0.00000  Uiso   1.00
C298   C     0.29903   0.45805   0.10426   0.00000  Uiso   1.00
C299   C     0.30458   0.42745   0.15997   0.00000  Uiso   1.00
H300   H     0.49243   0.65869   0.17982   0.00000  Uiso   1.00
H301   H     0.45923   0.77766   0.19111   0.00000  Uiso   1.00
H302   H     0.58391   0.65238   0.11430   0.00000  Uiso   1.00
H303   H     0.44911   0.55572   0.24838   0.00000  Uiso   1.00
H304   H     0.39889   0.89426   0.18099   0.00000  Uiso   1.00
H305   H     0.66179   0.63007   0.01904   0.00000  Uiso   1.00
H306   H     0.37753   0.42624   0.30178   0.00000  Uiso   1.00
H307   H     0.31100   0.54062   0.00556   0.00000  Uiso   1.00
H308   H     0.26784   0.65312   0.00729   0.00000  Uiso   1.00
H309   H     0.39253   0.52784   0.93048   0.00000  Uiso   1.00
H310   H     0.25773   0.43118   0.06456   0.00000  Uiso   1.00
H311   H     0.24356   0.79318   0.03180   0.00000  Uiso   1.00
H312   H     0.50646   0.52899   0.86985   0.00000  Uiso   1.00
H313   H     0.22220   0.32516   0.15259   0.00000  Uiso   1.00
O314   O     0.29612   0.91987   0.11066   0.00000  Uiso   1.00
O315   O     0.64103   0.57324   0.89819   0.00000  Uiso   1.00
O316   O     0.26809   0.30583   0.26914   0.00000  Uiso   1.00
N317   N     0.36825   0.85503   0.14565   0.00000  Uiso   1.00
N318   N     0.61404   0.60803   0.99423   0.00000  Uiso   1.00
N319   N     0.34830   0.41746   0.25857   0.00000  Uiso   1.00
N320   N     0.28467   0.80064   0.06537   0.00000  Uiso   1.00
N321   N     0.53046   0.55364   0.91395   0.00000  Uiso   1.00
N322   N     0.26471   0.36307   0.17829   0.00000  Uiso   1.00
C323   C     0.97502   0.66614   0.70377   0.00000  Uiso   1.00
C324   C     0.00678   0.68134   0.77401   0.00000  Uiso   1.00
C325   C     0.03319   0.75054   0.81097   0.00000  Uiso   1.00
C326   C     0.05998   0.75276   0.87425   0.00000  Uiso   1.00
C327   C     0.10922   0.78619   0.97947   0.00000  Uiso   1.00
C328   C     0.90393   0.61056   0.69795   0.00000  Uiso   1.00
C329   C     0.84387   0.62024   0.67095   0.00000  Uiso   1.00
C330   C     0.78408   0.56287   0.67020   0.00000  Uiso   1.00
C331   C     0.67364   0.48639   0.65729   0.00000  Uiso   1.00
C332   C     0.01475   0.62489   0.67133   0.00000  Uiso   1.00
C333   C     0.04785   0.64662   0.62192   0.00000  Uiso   1.00
C334   C     0.08135   0.60130   0.59875   0.00000  Uiso   1.00
C335   C     0.14299   0.54708   0.54450   0.00000  Uiso   1.00
C336   C     0.97564   0.54702   0.75044   0.00000  Uiso   1.00
C337   C     0.00712   0.61663   0.79936   0.00000  Uiso   1.00
C338   C     0.03388   0.61875   0.86261   0.00000  Uiso   1.00
C339   C     0.06032   0.68794   0.89965   0.00000  Uiso   1.00
C340   C     0.90427   0.54586   0.72330   0.00000  Uiso   1.00
C341   C     0.84455   0.48845   0.72259   0.00000  Uiso   1.00
C342   C     0.78441   0.49805   0.69559   0.00000  Uiso   1.00
C343   C     0.01509   0.56019   0.69668   0.00000  Uiso   1.00
C344   C     0.04854   0.51483   0.67357   0.00000  Uiso   1.00
C345   C     0.08169   0.53648   0.62414   0.00000  Uiso   1.00
H346   H     0.97475   0.71651   0.68403   0.00000  Uiso   1.00
H347   H     0.03291   0.80060   0.79133   0.00000  Uiso   1.00
H348   H     0.84362   0.67032   0.65133   0.00000  Uiso   1.00
H349   H     0.04758   0.69669   0.60232   0.00000  Uiso   1.00
H350   H     0.09753   0.86529   0.92148   0.00000  Uiso   1.00
H351   H     0.69839   0.59058   0.62625   0.00000  Uiso   1.00
H352   H     0.12847   0.64619   0.52290   0.00000  Uiso   1.00
H353   H     0.97590   0.49664   0.77018   0.00000  Uiso   1.00
H354   H     0.03413   0.56867   0.88222   0.00000  Uiso   1.00
H355   H     0.84483   0.43839   0.74221   0.00000  Uiso   1.00
H356   H     0.04879   0.46476   0.69320   0.00000  Uiso   1.00
H357   H     0.09851   0.67704   0.99525   0.00000  Uiso   1.00
H358   H     0.69938   0.40233   0.70002   0.00000  Uiso   1.00
H359   H     0.12946   0.45794   0.59667   0.00000  Uiso   1.00
O360   O     0.13628   0.82251   0.03051   0.00000  Uiso   1.00
O361   O     0.61264   0.46209   0.64318   0.00000  Uiso   1.00
O362   O     0.17690   0.53506   0.50759   0.00000  Uiso   1.00
N363   N     0.08978   0.81110   0.92346   0.00000  Uiso   1.00
N364   N     0.71661   0.55427   0.64745   0.00000  Uiso   1.00
N365   N     0.11869   0.60625   0.55082   0.00000  Uiso   1.00
N366   N     0.09031   0.70981   0.96315   0.00000  Uiso   1.00
N367   N     0.71714   0.45297   0.68715   0.00000  Uiso   1.00
N368   N     0.11922   0.50496   0.59051   0.00000  Uiso   1.00
C369   C     0.65447   0.00278   0.53657   0.00000  Uiso   1.00
C370   C     0.69376   0.97982   0.48960   0.00000  Uiso   1.00
C371   C     0.76152   0.98489   0.50286   0.00000  Uiso   1.00
C372   C     0.78808   0.96097   0.45343   0.00000  Uiso   1.00
C373   C     0.85514   0.92953   0.38970   0.00000  Uiso   1.00
C374   C     0.59341   0.93432   0.53638   0.00000  Uiso   1.00
C375   C     0.57681   0.90114   0.58898   0.00000  Uiso   1.00
C376   C     0.51890   0.83892   0.57893   0.00000  Uiso   1.00
C377   C     0.43014   0.73688   0.58784   0.00000  Uiso   1.00
C378   C     0.62598   0.05892   0.50741   0.00000  Uiso   1.00
C379   C     0.63673   0.13051   0.53566   0.00000  Uiso   1.00
C380   C     0.60622   0.17320   0.50122   0.00000  Uiso   1.00
C381   C     0.56802   0.26462   0.46516   0.00000  Uiso   1.00
C382   C     0.58113   0.95129   0.42520   0.00000  Uiso   1.00
C383   C     0.65392   0.95185   0.42911   0.00000  Uiso   1.00
C384   C     0.68039   0.92792   0.37965   0.00000  Uiso   1.00
C385   C     0.74818   0.93295   0.39283   0.00000  Uiso   1.00
C386   C     0.55358   0.90635   0.47589   0.00000  Uiso   1.00
C387   C     0.49568   0.84417   0.46576   0.00000  Uiso   1.00
C388   C     0.47899   0.81090   0.51833   0.00000  Uiso   1.00
C389   C     0.58614   0.03095   0.44692   0.00000  Uiso   1.00
C390   C     0.55560   0.07354   0.41244   0.00000  Uiso   1.00
C391   C     0.56631   0.14518   0.44063   0.00000  Uiso   1.00
H392   H     0.68548   0.02456   0.58366   0.00000  Uiso   1.00
H393   H     0.79233   0.00653   0.54968   0.00000  Uiso   1.00
H394   H     0.60764   0.92280   0.63578   0.00000  Uiso   1.00
H395   H     0.66756   0.15213   0.58247   0.00000  Uiso   1.00
H396   H     0.89323   0.97418   0.48533   0.00000  Uiso   1.00
H397   H     0.50379   0.79765   0.66688   0.00000  Uiso   1.00
H398   H     0.63014   0.28125   0.55447   0.00000  Uiso   1.00
H399   H     0.55012   0.92951   0.37811   0.00000  Uiso   1.00
H400   H     0.64955   0.90627   0.33284   0.00000  Uiso   1.00
H401   H     0.46486   0.82254   0.41895   0.00000  Uiso   1.00
H402   H     0.52478   0.05188   0.36564   0.00000  Uiso   1.00
H403   H     0.77734   0.89281   0.30934   0.00000  Uiso   1.00
H404   H     0.38790   0.71628   0.49090   0.00000  Uiso   1.00
H405   H     0.51425   0.19987   0.37848   0.00000  Uiso   1.00
O406   O     0.90312   0.91990   0.37127   0.00000  Uiso   1.00
O407   O     0.39220   0.68831   0.60947   0.00000  Uiso   1.00
O408   O     0.55796   0.32277   0.46198   0.00000  Uiso   1.00
N409   N     0.85231   0.95824   0.45012   0.00000  Uiso   1.00
N410   N     0.48822   0.79318   0.61986   0.00000  Uiso   1.00
N411   N     0.60632   0.24530   0.51477   0.00000  Uiso   1.00
N412   N     0.78995   0.91445   0.35542   0.00000  Uiso   1.00
N413   N     0.42586   0.74940   0.52516   0.00000  Uiso   1.00
N414   N     0.54397   0.20151   0.42007   0.00000  Uiso   1.00
C415   C     0.94904   0.77823   0.17587   0.00000  Uiso   1.00
C416   C     0.90392   0.76581   0.22536   0.00000  Uiso   1.00
C417   C     0.91942   0.74436   0.28397   0.00000  Uiso   1.00
C418   C     0.87141   0.73596   0.32244   0.00000  Uiso   1.00
C419   C     0.81065   0.71472   0.40224   0.00000  Uiso   1.00
C420   C     0.90652   0.72750   0.11554   0.00000  Uiso   1.00
C421   C     0.92422   0.67384   0.08181   0.00000  Uiso   1.00
C422   C     0.87840   0.63319   0.02783   0.00000  Uiso   1.00
C423   C     0.82170   0.55250   0.93710   0.00000  Uiso   1.00
C424   C     0.95936   0.85729   0.16210   0.00000  Uiso   1.00
C425   C     0.02148   0.91276   0.16751   0.00000  Uiso   1.00
C426   C     0.02015   0.98138   0.15272   0.00000  Uiso   1.00
C427   C     0.04549   0.10222   0.13430   0.00000  Uiso   1.00
C428   C     0.83620   0.80146   0.13997   0.00000  Uiso   1.00
C429   C     0.84263   0.77843   0.20586   0.00000  Uiso   1.00
C430   C     0.79458   0.77006   0.24425   0.00000  Uiso   1.00
C431   C     0.81001   0.74860   0.30291   0.00000  Uiso   1.00
C432   C     0.84523   0.74011   0.09604   0.00000  Uiso   1.00
C433   C     0.79937   0.69953   0.04209   0.00000  Uiso   1.00
C434   C     0.81700   0.64582   0.00829   0.00000  Uiso   1.00
C435   C     0.89807   0.86991   0.14261   0.00000  Uiso   1.00
C436   C     0.89663   0.93846   0.12780   0.00000  Uiso   1.00
C437   C     0.95874   0.99402   0.13319   0.00000  Uiso   1.00
H438   H     0.99676   0.76841   0.19104   0.00000  Uiso   1.00
H439   H     0.96686   0.73460   0.29903   0.00000  Uiso   1.00
H440   H     0.97166   0.66409   0.09690   0.00000  Uiso   1.00
H441   H     0.06890   0.90298   0.18260   0.00000  Uiso   1.00
H442   H     0.90667   0.70265   0.41016   0.00000  Uiso   1.00
H443   H     0.91680   0.55400   0.98394   0.00000  Uiso   1.00
H444   H     0.12186   0.05774   0.16464   0.00000  Uiso   1.00
H445   H     0.78848   0.81128   0.12479   0.00000  Uiso   1.00
H446   H     0.74715   0.77982   0.22915   0.00000  Uiso   1.00
H447   H     0.75195   0.70931   0.02702   0.00000  Uiso   1.00
H448   H     0.84920   0.94820   0.11271   0.00000  Uiso   1.00
H449   H     0.72834   0.73935   0.35344   0.00000  Uiso   1.00
H450   H     0.73848   0.59071   0.92722   0.00000  Uiso   1.00
H451   H     0.94353   0.09444   0.10792   0.00000  Uiso   1.00
O452   O     0.79407   0.69951   0.45164   0.00000  Uiso   1.00
O453   O     0.80736   0.50450   0.89245   0.00000  Uiso   1.00
O454   O     0.07640   0.16539   0.12953   0.00000  Uiso   1.00
N455   N     0.87038   0.71562   0.38249   0.00000  Uiso   1.00
N456   N     0.87984   0.57663   0.98401   0.00000  Uiso   1.00
N457   N     0.07156   0.04758   0.15293   0.00000  Uiso   1.00
N458   N     0.77442   0.73537   0.35197   0.00000  Uiso   1.00
N459   N     0.78389   0.59638   0.95349   0.00000  Uiso   1.00
N460   N     0.97560   0.06733   0.12241   0.00000  Uiso   1.00
C461   C     0.49207   0.06340   0.07598   0.00000  Uiso   1.00
C462   C     0.54352   0.12853   0.05568   0.00000  Uiso   1.00
C463   C     0.56832   0.20092   0.08668   0.00000  Uiso   1.00
C464   C     0.61508   0.25246   0.06057   0.00000  Uiso   1.00
C465   C     0.69172   0.35668   0.03742   0.00000  Uiso   1.00
C466   C     0.43360   0.03198   0.01941   0.00000  Uiso   1.00
C467   C     0.36598   0.02317   0.01992   0.00000  Uiso   1.00
C468   C     0.32021   0.99341   0.96328   0.00000  Uiso   1.00
C469   C     0.22619   0.94767   0.88384   0.00000  Uiso   1.00
C470   C     0.52577   0.00420   0.08329   0.00000  Uiso   1.00
C471   C     0.53565   0.97202   0.13751   0.00000  Uiso   1.00
C472   C     0.56747   0.91886   0.13465   0.00000  Uiso   1.00
C473   C     0.61657   0.82999   0.15439   0.00000  Uiso   1.00
C474   C     0.53100   0.02620   0.97448   0.00000  Uiso   1.00
C475   C     0.56466   0.10833   0.00055   0.00000  Uiso   1.00
C476   C     0.61140   0.15977   0.97439   0.00000  Uiso   1.00
C477   C     0.63627   0.23222   0.00535   0.00000  Uiso   1.00
C478   C     0.45474   0.01177   0.96428   0.00000  Uiso   1.00
C479   C     0.40906   0.98201   0.90763   0.00000  Uiso   1.00
C480   C     0.34140   0.97317   0.90806   0.00000  Uiso   1.00
C481   C     0.54692   0.98399   0.02816   0.00000  Uiso   1.00
C482   C     0.57873   0.93087   0.02522   0.00000  Uiso   1.00
C483   C     0.58865   0.89862   0.07942   0.00000  Uiso   1.00
H484   H     0.47560   0.07913   0.11890   0.00000  Uiso   1.00
H485   H     0.55194   0.21654   0.12934   0.00000  Uiso   1.00
H486   H     0.34963   0.03880   0.06259   0.00000  Uiso   1.00
H487   H     0.51928   0.98767   0.18016   0.00000  Uiso   1.00
H488   H     0.64588   0.35998   0.11659   0.00000  Uiso   1.00
H489   H     0.21930   0.98519   0.97586   0.00000  Uiso   1.00
H490   H     0.57702   0.87736   0.22378   0.00000  Uiso   1.00
H491   H     0.54747   0.01047   0.93156   0.00000  Uiso   1.00
H492   H     0.62775   0.14412   0.93172   0.00000  Uiso   1.00
H493   H     0.42544   0.96638   0.86498   0.00000  Uiso   1.00
H494   H     0.59509   0.91525   0.98255   0.00000  Uiso   1.00
H495   H     0.70741   0.30120   0.95620   0.00000  Uiso   1.00
H496   H     0.28083   0.92641   0.81547   0.00000  Uiso   1.00
H497   H     0.63855   0.81858   0.06339   0.00000  Uiso   1.00
O498   O     0.72814   0.41975   0.03987   0.00000  Uiso   1.00
O499   O     0.16849   0.92803   0.85524   0.00000  Uiso   1.00
O500   O     0.63782   0.78656   0.18050   0.00000  Uiso   1.00
N501   N     0.64935   0.32780   0.07883   0.00000  Uiso   1.00
N502   N     0.25053   0.97741   0.94725   0.00000  Uiso   1.00
N503   N     0.58495   0.87658   0.17903   0.00000  Uiso   1.00
N504   N     0.68246   0.29617   0.99252   0.00000  Uiso   1.00
N505   N     0.28364   0.94578   0.86095   0.00000  Uiso   1.00
N506   N     0.61806   0.84495   0.09272   0.00000  Uiso   1.00
C507   C     0.30518   0.22207   0.54696   0.00000  Uiso   1.00
C508   C     0.37557   0.22070   0.57461   0.00000  Uiso   1.00
C509   C     0.43244   0.28245   0.59854   0.00000  Uiso   1.00
C510   C     0.49213   0.26951   0.62168   0.00000  Uiso   1.00
C511   C     0.60103   0.27836   0.66470   0.00000  Uiso   1.00
C512   C     0.28638   0.17903   0.48030   0.00000  Uiso   1.00
C513   C     0.26826   0.20574   0.42495   0.00000  Uiso   1.00
C514   C     0.25286   0.15771   0.36870   0.00000  Uiso   1.00
C515   C     0.22324   0.10185   0.26533   0.00000  Uiso   1.00
C516   C     0.25694   0.17548   0.58495   0.00000  Uiso   1.00
C517   C     0.21404   0.19919   0.61757   0.00000  Uiso   1.00
C518   C     0.17384   0.14817   0.64942   0.00000  Uiso   1.00
C519   C     0.09851   0.08679   0.70852   0.00000  Uiso   1.00
C520   C     0.31005   0.08929   0.54549   0.00000  Uiso   1.00
C521   C     0.37821   0.14858   0.57381   0.00000  Uiso   1.00
C522   C     0.43783   0.13555   0.59692   0.00000  Uiso   1.00
C523   C     0.49479   0.19726   0.62088   0.00000  Uiso   1.00
C524   C     0.28902   0.10691   0.47951   0.00000  Uiso   1.00
C525   C     0.27365   0.05883   0.42333   0.00000  Uiso   1.00
C526   C     0.25551   0.08546   0.36791   0.00000  Uiso   1.00
C527   C     0.25958   0.10336   0.58416   0.00000  Uiso   1.00
C528   C     0.21944   0.05229   0.61595   0.00000  Uiso   1.00
C529   C     0.17649   0.07592   0.64862   0.00000  Uiso   1.00
H530   H     0.30312   0.27821   0.54757   0.00000  Uiso   1.00
H531   H     0.43038   0.33825   0.59914   0.00000  Uiso   1.00
H532   H     0.26621   0.26155   0.42558   0.00000  Uiso   1.00
H533   H     0.21201   0.25500   0.61818   0.00000  Uiso   1.00
H534   H     0.57263   0.37301   0.65595   0.00000  Uiso   1.00
H535   H     0.22646   0.21127   0.28998   0.00000  Uiso   1.00
H536   H     0.11216   0.19747   0.69611   0.00000  Uiso   1.00
H537   H     0.31211   0.03314   0.54487   0.00000  Uiso   1.00
H538   H     0.43986   0.07973   0.59630   0.00000  Uiso   1.00
H539   H     0.27570   0.00303   0.42273   0.00000  Uiso   1.00
H540   H     0.22150   0.99648   0.61533   0.00000  Uiso   1.00
H541   H     0.58034   0.16318   0.65363   0.00000  Uiso   1.00
H542   H     0.23416   0.00144   0.28767   0.00000  Uiso   1.00
H543   H     0.11987   0.98764   0.69380   0.00000  Uiso   1.00
O544   O     0.66037   0.30317   0.68865   0.00000  Uiso   1.00
O545   O     0.20619   0.09096   0.20852   0.00000  Uiso   1.00
O546   O     0.05624   0.07286   0.74135   0.00000  Uiso   1.00
N547   N     0.55691   0.31724   0.64836   0.00000  Uiso   1.00
N548   N     0.23327   0.16602   0.30620   0.00000  Uiso   1.00
N549   N     0.12640   0.15311   0.68588   0.00000  Uiso   1.00
N550   N     0.56106   0.20433   0.64711   0.00000  Uiso   1.00
N551   N     0.23741   0.05311   0.30496   0.00000  Uiso   1.00
N552   N     0.13054   0.04020   0.68464   0.00000  Uiso   1.00
