data_job_04423
_audit_creation_date              2018-12-19
_audit_creation_method            'Materials Studio'
_symmetry_space_group_name_H-M    'P1'
_symmetry_Int_Tables_number       1
_symmetry_cell_setting            triclinic
loop_
_symmetry_equiv_pos_as_xyz
  x,y,z
_cell_length_a                    12.8086
_cell_length_b                    11.8652
_cell_length_c                    36.5355
_cell_angle_alpha                 90.0000
_cell_angle_beta                  104.4574
_cell_angle_gamma                 90.0000
loop_
_atom_site_label
_atom_site_type_symbol
_atom_site_fract_x
_atom_site_fract_y
_atom_site_fract_z
_atom_site_U_iso_or_equiv
_atom_site_adp_type
_atom_site_occupancy
C1     C     0.63605   0.99321   0.91741   0.00000  Uiso   1.00
C2     C     0.53727   0.05301   0.92427   0.00000  Uiso   1.00
C3     C     0.53022   0.10282   0.95794   0.00000  Uiso   1.00
C4     C     0.43280   0.15324   0.95848   0.00000  Uiso   1.00
C5     C     0.29266   0.24596   0.97400   0.00000  Uiso   1.00
C6     C     0.59879   0.87488   0.90389   0.00000  Uiso   1.00
C7     C     0.64347   0.77492   0.92042   0.00000  Uiso   1.00
C8     C     0.59785   0.67539   0.90380   0.00000  Uiso   1.00
C9     C     0.55326   0.49157   0.88766   0.00000  Uiso   1.00
C10    C     0.66213   0.05237   0.88372   0.00000  Uiso   1.00
C11    C     0.76008   0.10164   0.88328   0.00000  Uiso   1.00
C12    C     0.76779   0.15152   0.84968   0.00000  Uiso   1.00
C13    C     0.82155   0.24329   0.80222   0.00000  Uiso   1.00
C14    C     0.47558   0.99416   0.85851   0.00000  Uiso   1.00
C15    C     0.45011   0.05352   0.89228   0.00000  Uiso   1.00
C16    C     0.35267   0.10388   0.89277   0.00000  Uiso   1.00
C17    C     0.34548   0.15376   0.92643   0.00000  Uiso   1.00
C18    C     0.51163   0.87539   0.87190   0.00000  Uiso   1.00
C19    C     0.46593   0.77598   0.85525   0.00000  Uiso   1.00
C20    C     0.51053   0.67591   0.87175   0.00000  Uiso   1.00
C21    C     0.57496   0.05290   0.85173   0.00000  Uiso   1.00
C22    C     0.58253   0.10270   0.81812   0.00000  Uiso   1.00
C23    C     0.68047   0.15204   0.81763   0.00000  Uiso   1.00
H24    H     0.70391   0.99279   0.94232   0.00000  Uiso   1.00
H25    H     0.59769   0.10239   0.98269   0.00000  Uiso   1.00
H26    H     0.71093   0.77455   0.94517   0.00000  Uiso   1.00
H27    H     0.82751   0.10122   0.90805   0.00000  Uiso   1.00
H28    H     0.44147   0.22410   0.01334   0.00000  Uiso   1.00
H29    H     0.68027   0.53282   0.93423   0.00000  Uiso   1.00
H30    H     0.92611   0.22167   0.85594   0.00000  Uiso   1.00
H31    H     0.40772   0.99456   0.83360   0.00000  Uiso   1.00
H32    H     0.28524   0.10427   0.86801   0.00000  Uiso   1.00
H33    H     0.39848   0.77642   0.83049   0.00000  Uiso   1.00
H34    H     0.51506   0.10309   0.79336   0.00000  Uiso   1.00
H35    H     0.18787   0.22561   0.92026   0.00000  Uiso   1.00
H36    H     0.42667   0.53433   0.84115   0.00000  Uiso   1.00
H37    H     0.67251   0.22318   0.76286   0.00000  Uiso   1.00
O38    O     0.23943   0.29695   0.99140   0.00000  Uiso   1.00
O39    O     0.55274   0.39003   0.88760   0.00000  Uiso   1.00
O40    O     0.87527   0.29378   0.78489   0.00000  Uiso   1.00
N41    N     0.39860   0.20942   0.98671   0.00000  Uiso   1.00
N42    N     0.62185   0.56312   0.91275   0.00000  Uiso   1.00
N43    N     0.85170   0.20710   0.83955   0.00000  Uiso   1.00
N44    N     0.26214   0.21023   0.93663   0.00000  Uiso   1.00
N45    N     0.48539   0.56393   0.86266   0.00000  Uiso   1.00
N46    N     0.71524   0.20792   0.78946   0.00000  Uiso   1.00
C47    C     0.13561   0.45019   0.41607   0.00000  Uiso   1.00
C48    C     0.03630   0.50966   0.42261   0.00000  Uiso   1.00
C49    C     0.02865   0.56039   0.45607   0.00000  Uiso   1.00
C50    C     0.93081   0.61031   0.45635   0.00000  Uiso   1.00
C51    C     0.78982   0.70274   0.47140   0.00000  Uiso   1.00
C52    C     0.09926   0.33129   0.40295   0.00000  Uiso   1.00
C53    C     0.14456   0.23205   0.41986   0.00000  Uiso   1.00
C54    C     0.09973   0.13181   0.40358   0.00000  Uiso   1.00
C55    C     0.05654   0.94730   0.38808   0.00000  Uiso   1.00
C56    C     0.16153   0.50853   0.38220   0.00000  Uiso   1.00
C57    C     0.25919   0.55829   0.38167   0.00000  Uiso   1.00
C58    C     0.26679   0.60725   0.34791   0.00000  Uiso   1.00
C59    C     0.32028   0.69795   0.30020   0.00000  Uiso   1.00
C60    C     0.97546   0.44862   0.35706   0.00000  Uiso   1.00
C61    C     0.94931   0.50880   0.39057   0.00000  Uiso   1.00
C62    C     0.85146   0.55866   0.39079   0.00000  Uiso   1.00
C63    C     0.84367   0.60946   0.42424   0.00000  Uiso   1.00
C64    C     0.01227   0.33043   0.37090   0.00000  Uiso   1.00
C65    C     0.96737   0.23031   0.35458   0.00000  Uiso   1.00
C66    C     0.01259   0.13095   0.37147   0.00000  Uiso   1.00
C67    C     0.07454   0.50768   0.35015   0.00000  Uiso   1.00
C68    C     0.08199   0.55656   0.31639   0.00000  Uiso   1.00
C69    C     0.17965   0.60640   0.31581   0.00000  Uiso   1.00
H70    H     0.20334   0.45084   0.44102   0.00000  Uiso   1.00
H71    H     0.09599   0.56103   0.48087   0.00000  Uiso   1.00
H72    H     0.21188   0.23273   0.44466   0.00000  Uiso   1.00
H73    H     0.32649   0.55893   0.40647   0.00000  Uiso   1.00
H74    H     0.93859   0.68277   0.51092   0.00000  Uiso   1.00
H75    H     0.18299   0.99055   0.43458   0.00000  Uiso   1.00
H76    H     0.42467   0.67840   0.35405   0.00000  Uiso   1.00
H77    H     0.90773   0.44795   0.33211   0.00000  Uiso   1.00
H78    H     0.78416   0.55799   0.36599   0.00000  Uiso   1.00
H79    H     0.90006   0.22969   0.32978   0.00000  Uiso   1.00
H80    H     0.01466   0.55589   0.29160   0.00000  Uiso   1.00
H81    H     0.68550   0.68030   0.41768   0.00000  Uiso   1.00
H82    H     0.92991   0.98807   0.34133   0.00000  Uiso   1.00
H83    H     0.17157   0.67593   0.26081   0.00000  Uiso   1.00
O84    O     0.73607   0.75394   0.48856   0.00000  Uiso   1.00
O85    O     0.05674   0.84577   0.38839   0.00000  Uiso   1.00
O86    O     0.37380   0.74822   0.28274   0.00000  Uiso   1.00
N87    N     0.89599   0.66711   0.48433   0.00000  Uiso   1.00
N88    N     0.12448   0.01992   0.41295   0.00000  Uiso   1.00
N89    N     0.35044   0.66298   0.33766   0.00000  Uiso   1.00
N90    N     0.75980   0.66578   0.43415   0.00000  Uiso   1.00
N91    N     0.98830   0.01859   0.36278   0.00000  Uiso   1.00
N92    N     0.21425   0.66165   0.28749   0.00000  Uiso   1.00
C93    C     0.36395   0.99321   0.58259   0.00000  Uiso   1.00
C94    C     0.46273   0.05301   0.57573   0.00000  Uiso   1.00
C95    C     0.46978   0.10282   0.54206   0.00000  Uiso   1.00
C96    C     0.56720   0.15324   0.54152   0.00000  Uiso   1.00
C97    C     0.70734   0.24596   0.52600   0.00000  Uiso   1.00
C98    C     0.40121   0.87488   0.59611   0.00000  Uiso   1.00
C99    C     0.35653   0.77492   0.57958   0.00000  Uiso   1.00
C100   C     0.40215   0.67539   0.59620   0.00000  Uiso   1.00
C101   C     0.44674   0.49157   0.61234   0.00000  Uiso   1.00
C102   C     0.33787   0.05237   0.61628   0.00000  Uiso   1.00
C103   C     0.23992   0.10164   0.61672   0.00000  Uiso   1.00
C104   C     0.23221   0.15152   0.65032   0.00000  Uiso   1.00
C105   C     0.17845   0.24329   0.69778   0.00000  Uiso   1.00
C106   C     0.52442   0.99416   0.64149   0.00000  Uiso   1.00
C107   C     0.54989   0.05352   0.60772   0.00000  Uiso   1.00
C108   C     0.64733   0.10388   0.60723   0.00000  Uiso   1.00
C109   C     0.65452   0.15376   0.57357   0.00000  Uiso   1.00
C110   C     0.48837   0.87539   0.62810   0.00000  Uiso   1.00
C111   C     0.53407   0.77598   0.64475   0.00000  Uiso   1.00
C112   C     0.48947   0.67591   0.62825   0.00000  Uiso   1.00
C113   C     0.42504   0.05290   0.64827   0.00000  Uiso   1.00
C114   C     0.41747   0.10270   0.68188   0.00000  Uiso   1.00
C115   C     0.31953   0.15204   0.68237   0.00000  Uiso   1.00
H116   H     0.29609   0.99279   0.55768   0.00000  Uiso   1.00
H117   H     0.40231   0.10239   0.51731   0.00000  Uiso   1.00
H118   H     0.28907   0.77455   0.55483   0.00000  Uiso   1.00
H119   H     0.17249   0.10122   0.59195   0.00000  Uiso   1.00
H120   H     0.55853   0.22410   0.48666   0.00000  Uiso   1.00
H121   H     0.31973   0.53282   0.56577   0.00000  Uiso   1.00
H122   H     0.07389   0.22167   0.64406   0.00000  Uiso   1.00
H123   H     0.59228   0.99456   0.66640   0.00000  Uiso   1.00
H124   H     0.71476   0.10427   0.63199   0.00000  Uiso   1.00
H125   H     0.60152   0.77642   0.66951   0.00000  Uiso   1.00
H126   H     0.48494   0.10309   0.70664   0.00000  Uiso   1.00
H127   H     0.81213   0.22561   0.57974   0.00000  Uiso   1.00
H128   H     0.57333   0.53433   0.65885   0.00000  Uiso   1.00
H129   H     0.32749   0.22318   0.73714   0.00000  Uiso   1.00
O130   O     0.76057   0.29695   0.50860   0.00000  Uiso   1.00
O131   O     0.44726   0.39003   0.61240   0.00000  Uiso   1.00
O132   O     0.12473   0.29378   0.71511   0.00000  Uiso   1.00
N133   N     0.60140   0.20942   0.51329   0.00000  Uiso   1.00
N134   N     0.37815   0.56312   0.58725   0.00000  Uiso   1.00
N135   N     0.14830   0.20710   0.66045   0.00000  Uiso   1.00
N136   N     0.73786   0.21023   0.56337   0.00000  Uiso   1.00
N137   N     0.51461   0.56393   0.63734   0.00000  Uiso   1.00
N138   N     0.28476   0.20792   0.71054   0.00000  Uiso   1.00
C139   C     0.86439   0.45019   0.08393   0.00000  Uiso   1.00
C140   C     0.96370   0.50966   0.07739   0.00000  Uiso   1.00
C141   C     0.97135   0.56039   0.04393   0.00000  Uiso   1.00
C142   C     0.06919   0.61031   0.04365   0.00000  Uiso   1.00
C143   C     0.21018   0.70274   0.02860   0.00000  Uiso   1.00
C144   C     0.90074   0.33129   0.09705   0.00000  Uiso   1.00
C145   C     0.85544   0.23205   0.08014   0.00000  Uiso   1.00
C146   C     0.90027   0.13181   0.09642   0.00000  Uiso   1.00
C147   C     0.94346   0.94730   0.11192   0.00000  Uiso   1.00
C148   C     0.83847   0.50853   0.11780   0.00000  Uiso   1.00
C149   C     0.74081   0.55829   0.11833   0.00000  Uiso   1.00
C150   C     0.73321   0.60725   0.15209   0.00000  Uiso   1.00
C151   C     0.67972   0.69795   0.19980   0.00000  Uiso   1.00
C152   C     0.02454   0.44862   0.14294   0.00000  Uiso   1.00
C153   C     0.05069   0.50880   0.10943   0.00000  Uiso   1.00
C154   C     0.14854   0.55866   0.10921   0.00000  Uiso   1.00
C155   C     0.15633   0.60946   0.07576   0.00000  Uiso   1.00
C156   C     0.98773   0.33043   0.12910   0.00000  Uiso   1.00
C157   C     0.03263   0.23031   0.14542   0.00000  Uiso   1.00
C158   C     0.98741   0.13095   0.12853   0.00000  Uiso   1.00
C159   C     0.92546   0.50768   0.14985   0.00000  Uiso   1.00
C160   C     0.91801   0.55656   0.18361   0.00000  Uiso   1.00
C161   C     0.82035   0.60640   0.18419   0.00000  Uiso   1.00
H162   H     0.79666   0.45084   0.05898   0.00000  Uiso   1.00
H163   H     0.90401   0.56103   0.01913   0.00000  Uiso   1.00
H164   H     0.78812   0.23273   0.05534   0.00000  Uiso   1.00
H165   H     0.67351   0.55893   0.09353   0.00000  Uiso   1.00
H166   H     0.06141   0.68277   0.98908   0.00000  Uiso   1.00
H167   H     0.81701   0.99055   0.06542   0.00000  Uiso   1.00
H168   H     0.57533   0.67840   0.14595   0.00000  Uiso   1.00
H169   H     0.09227   0.44795   0.16789   0.00000  Uiso   1.00
H170   H     0.21584   0.55799   0.13401   0.00000  Uiso   1.00
H171   H     0.09994   0.22969   0.17022   0.00000  Uiso   1.00
H172   H     0.98534   0.55589   0.20840   0.00000  Uiso   1.00
H173   H     0.31450   0.68030   0.08232   0.00000  Uiso   1.00
H174   H     0.07009   0.98807   0.15867   0.00000  Uiso   1.00
H175   H     0.82843   0.67593   0.23919   0.00000  Uiso   1.00
O176   O     0.26393   0.75394   0.01144   0.00000  Uiso   1.00
O177   O     0.94326   0.84577   0.11161   0.00000  Uiso   1.00
O178   O     0.62620   0.74822   0.21726   0.00000  Uiso   1.00
N179   N     0.10401   0.66711   0.01567   0.00000  Uiso   1.00
N180   N     0.87552   0.01992   0.08705   0.00000  Uiso   1.00
N181   N     0.64956   0.66298   0.16234   0.00000  Uiso   1.00
N182   N     0.24020   0.66578   0.06585   0.00000  Uiso   1.00
N183   N     0.01170   0.01859   0.13722   0.00000  Uiso   1.00
N184   N     0.78575   0.66165   0.21251   0.00000  Uiso   1.00
C185   C     0.36395   0.00679   0.08259   0.00000  Uiso   1.00
C186   C     0.46273   0.94699   0.07573   0.00000  Uiso   1.00
C187   C     0.46978   0.89718   0.04206   0.00000  Uiso   1.00
C188   C     0.56720   0.84676   0.04152   0.00000  Uiso   1.00
C189   C     0.70734   0.75404   0.02600   0.00000  Uiso   1.00
C190   C     0.40121   0.12512   0.09611   0.00000  Uiso   1.00
C191   C     0.35653   0.22508   0.07958   0.00000  Uiso   1.00
C192   C     0.40215   0.32461   0.09620   0.00000  Uiso   1.00
C193   C     0.44674   0.50843   0.11234   0.00000  Uiso   1.00
C194   C     0.33787   0.94763   0.11628   0.00000  Uiso   1.00
C195   C     0.23992   0.89836   0.11672   0.00000  Uiso   1.00
C196   C     0.23221   0.84848   0.15032   0.00000  Uiso   1.00
C197   C     0.17845   0.75671   0.19778   0.00000  Uiso   1.00
C198   C     0.52442   0.00584   0.14149   0.00000  Uiso   1.00
C199   C     0.54989   0.94648   0.10772   0.00000  Uiso   1.00
C200   C     0.64733   0.89612   0.10723   0.00000  Uiso   1.00
C201   C     0.65452   0.84624   0.07357   0.00000  Uiso   1.00
C202   C     0.48837   0.12461   0.12810   0.00000  Uiso   1.00
C203   C     0.53407   0.22402   0.14475   0.00000  Uiso   1.00
C204   C     0.48947   0.32409   0.12825   0.00000  Uiso   1.00
C205   C     0.42504   0.94710   0.14827   0.00000  Uiso   1.00
C206   C     0.41747   0.89730   0.18188   0.00000  Uiso   1.00
C207   C     0.31953   0.84796   0.18237   0.00000  Uiso   1.00
H208   H     0.29609   0.00721   0.05768   0.00000  Uiso   1.00
H209   H     0.40231   0.89761   0.01731   0.00000  Uiso   1.00
H210   H     0.28907   0.22545   0.05483   0.00000  Uiso   1.00
H211   H     0.17249   0.89878   0.09195   0.00000  Uiso   1.00
H212   H     0.55853   0.77590   0.98666   0.00000  Uiso   1.00
H213   H     0.31973   0.46718   0.06577   0.00000  Uiso   1.00
H214   H     0.07389   0.77833   0.14406   0.00000  Uiso   1.00
H215   H     0.59228   0.00544   0.16640   0.00000  Uiso   1.00
H216   H     0.71476   0.89573   0.13199   0.00000  Uiso   1.00
H217   H     0.60152   0.22358   0.16951   0.00000  Uiso   1.00
H218   H     0.48494   0.89691   0.20664   0.00000  Uiso   1.00
H219   H     0.81213   0.77439   0.07974   0.00000  Uiso   1.00
H220   H     0.57333   0.46567   0.15885   0.00000  Uiso   1.00
H221   H     0.32749   0.77682   0.23714   0.00000  Uiso   1.00
O222   O     0.76057   0.70305   0.00860   0.00000  Uiso   1.00
O223   O     0.44726   0.60997   0.11240   0.00000  Uiso   1.00
O224   O     0.12473   0.70622   0.21511   0.00000  Uiso   1.00
N225   N     0.60140   0.79058   0.01329   0.00000  Uiso   1.00
N226   N     0.37815   0.43688   0.08725   0.00000  Uiso   1.00
N227   N     0.14830   0.79290   0.16045   0.00000  Uiso   1.00
N228   N     0.73786   0.78977   0.06337   0.00000  Uiso   1.00
N229   N     0.51461   0.43607   0.13734   0.00000  Uiso   1.00
N230   N     0.28476   0.79208   0.21054   0.00000  Uiso   1.00
C231   C     0.86439   0.54981   0.58393   0.00000  Uiso   1.00
C232   C     0.96370   0.49034   0.57739   0.00000  Uiso   1.00
C233   C     0.97135   0.43961   0.54393   0.00000  Uiso   1.00
C234   C     0.06919   0.38969   0.54365   0.00000  Uiso   1.00
C235   C     0.21018   0.29726   0.52860   0.00000  Uiso   1.00
C236   C     0.90074   0.66871   0.59705   0.00000  Uiso   1.00
C237   C     0.85544   0.76795   0.58014   0.00000  Uiso   1.00
C238   C     0.90027   0.86819   0.59642   0.00000  Uiso   1.00
C239   C     0.94346   0.05270   0.61192   0.00000  Uiso   1.00
C240   C     0.83847   0.49147   0.61780   0.00000  Uiso   1.00
C241   C     0.74081   0.44171   0.61833   0.00000  Uiso   1.00
C242   C     0.73321   0.39275   0.65209   0.00000  Uiso   1.00
C243   C     0.67972   0.30205   0.69980   0.00000  Uiso   1.00
C244   C     0.02454   0.55138   0.64294   0.00000  Uiso   1.00
C245   C     0.05069   0.49120   0.60943   0.00000  Uiso   1.00
C246   C     0.14854   0.44134   0.60921   0.00000  Uiso   1.00
C247   C     0.15633   0.39054   0.57576   0.00000  Uiso   1.00
C248   C     0.98773   0.66957   0.62910   0.00000  Uiso   1.00
C249   C     0.03263   0.76969   0.64542   0.00000  Uiso   1.00
C250   C     0.98741   0.86905   0.62853   0.00000  Uiso   1.00
C251   C     0.92546   0.49232   0.64985   0.00000  Uiso   1.00
C252   C     0.91801   0.44344   0.68361   0.00000  Uiso   1.00
C253   C     0.82035   0.39360   0.68419   0.00000  Uiso   1.00
H254   H     0.79666   0.54916   0.55898   0.00000  Uiso   1.00
H255   H     0.90401   0.43897   0.51913   0.00000  Uiso   1.00
H256   H     0.78812   0.76727   0.55534   0.00000  Uiso   1.00
H257   H     0.67351   0.44107   0.59353   0.00000  Uiso   1.00
H258   H     0.06141   0.31723   0.48908   0.00000  Uiso   1.00
H259   H     0.81701   0.00945   0.56542   0.00000  Uiso   1.00
H260   H     0.57533   0.32160   0.64595   0.00000  Uiso   1.00
H261   H     0.09227   0.55205   0.66789   0.00000  Uiso   1.00
H262   H     0.21584   0.44201   0.63401   0.00000  Uiso   1.00
H263   H     0.09994   0.77031   0.67022   0.00000  Uiso   1.00
H264   H     0.98534   0.44411   0.70840   0.00000  Uiso   1.00
H265   H     0.31450   0.31970   0.58232   0.00000  Uiso   1.00
H266   H     0.07009   0.01193   0.65867   0.00000  Uiso   1.00
H267   H     0.82843   0.32407   0.73919   0.00000  Uiso   1.00
O268   O     0.26393   0.24606   0.51144   0.00000  Uiso   1.00
O269   O     0.94326   0.15423   0.61161   0.00000  Uiso   1.00
O270   O     0.62620   0.25178   0.71726   0.00000  Uiso   1.00
N271   N     0.10401   0.33289   0.51567   0.00000  Uiso   1.00
N272   N     0.87552   0.98008   0.58705   0.00000  Uiso   1.00
N273   N     0.64956   0.33702   0.66234   0.00000  Uiso   1.00
N274   N     0.24020   0.33422   0.56585   0.00000  Uiso   1.00
N275   N     0.01170   0.98141   0.63722   0.00000  Uiso   1.00
N276   N     0.78575   0.33835   0.71251   0.00000  Uiso   1.00
C277   C     0.63605   0.00679   0.41741   0.00000  Uiso   1.00
C278   C     0.53727   0.94699   0.42427   0.00000  Uiso   1.00
C279   C     0.53022   0.89718   0.45794   0.00000  Uiso   1.00
C280   C     0.43280   0.84676   0.45848   0.00000  Uiso   1.00
C281   C     0.29266   0.75404   0.47400   0.00000  Uiso   1.00
C282   C     0.59879   0.12512   0.40389   0.00000  Uiso   1.00
C283   C     0.64347   0.22508   0.42042   0.00000  Uiso   1.00
C284   C     0.59785   0.32461   0.40380   0.00000  Uiso   1.00
C285   C     0.55326   0.50843   0.38766   0.00000  Uiso   1.00
C286   C     0.66213   0.94763   0.38372   0.00000  Uiso   1.00
C287   C     0.76008   0.89836   0.38328   0.00000  Uiso   1.00
C288   C     0.76779   0.84848   0.34968   0.00000  Uiso   1.00
C289   C     0.82155   0.75671   0.30222   0.00000  Uiso   1.00
C290   C     0.47558   0.00584   0.35851   0.00000  Uiso   1.00
C291   C     0.45011   0.94648   0.39228   0.00000  Uiso   1.00
C292   C     0.35267   0.89612   0.39277   0.00000  Uiso   1.00
C293   C     0.34548   0.84624   0.42643   0.00000  Uiso   1.00
C294   C     0.51163   0.12461   0.37190   0.00000  Uiso   1.00
C295   C     0.46593   0.22402   0.35525   0.00000  Uiso   1.00
C296   C     0.51053   0.32409   0.37175   0.00000  Uiso   1.00
C297   C     0.57496   0.94710   0.35173   0.00000  Uiso   1.00
C298   C     0.58253   0.89730   0.31812   0.00000  Uiso   1.00
C299   C     0.68047   0.84796   0.31763   0.00000  Uiso   1.00
H300   H     0.70391   0.00721   0.44232   0.00000  Uiso   1.00
H301   H     0.59769   0.89761   0.48269   0.00000  Uiso   1.00
H302   H     0.71093   0.22545   0.44517   0.00000  Uiso   1.00
H303   H     0.82751   0.89878   0.40805   0.00000  Uiso   1.00
H304   H     0.44147   0.77590   0.51334   0.00000  Uiso   1.00
H305   H     0.68027   0.46718   0.43423   0.00000  Uiso   1.00
H306   H     0.92611   0.77833   0.35594   0.00000  Uiso   1.00
H307   H     0.40772   0.00544   0.33360   0.00000  Uiso   1.00
H308   H     0.28524   0.89573   0.36801   0.00000  Uiso   1.00
H309   H     0.39848   0.22358   0.33049   0.00000  Uiso   1.00
H310   H     0.51506   0.89691   0.29336   0.00000  Uiso   1.00
H311   H     0.18787   0.77439   0.42026   0.00000  Uiso   1.00
H312   H     0.42667   0.46567   0.34115   0.00000  Uiso   1.00
H313   H     0.67251   0.77682   0.26286   0.00000  Uiso   1.00
O314   O     0.23943   0.70305   0.49140   0.00000  Uiso   1.00
O315   O     0.55274   0.60997   0.38760   0.00000  Uiso   1.00
O316   O     0.87527   0.70622   0.28489   0.00000  Uiso   1.00
N317   N     0.39860   0.79058   0.48671   0.00000  Uiso   1.00
N318   N     0.62185   0.43688   0.41275   0.00000  Uiso   1.00
N319   N     0.85170   0.79290   0.33955   0.00000  Uiso   1.00
N320   N     0.26214   0.78977   0.43663   0.00000  Uiso   1.00
N321   N     0.48539   0.43607   0.36266   0.00000  Uiso   1.00
N322   N     0.71524   0.79208   0.28946   0.00000  Uiso   1.00
C323   C     0.13561   0.54981   0.91607   0.00000  Uiso   1.00
C324   C     0.03630   0.49034   0.92261   0.00000  Uiso   1.00
C325   C     0.02865   0.43961   0.95607   0.00000  Uiso   1.00
C326   C     0.93081   0.38969   0.95635   0.00000  Uiso   1.00
C327   C     0.78982   0.29726   0.97140   0.00000  Uiso   1.00
C328   C     0.09926   0.66871   0.90295   0.00000  Uiso   1.00
C329   C     0.14456   0.76795   0.91986   0.00000  Uiso   1.00
C330   C     0.09973   0.86819   0.90358   0.00000  Uiso   1.00
C331   C     0.05654   0.05270   0.88808   0.00000  Uiso   1.00
C332   C     0.16153   0.49147   0.88220   0.00000  Uiso   1.00
C333   C     0.25919   0.44171   0.88167   0.00000  Uiso   1.00
C334   C     0.26679   0.39275   0.84791   0.00000  Uiso   1.00
C335   C     0.32028   0.30205   0.80020   0.00000  Uiso   1.00
C336   C     0.97546   0.55138   0.85706   0.00000  Uiso   1.00
C337   C     0.94931   0.49120   0.89057   0.00000  Uiso   1.00
C338   C     0.85146   0.44134   0.89079   0.00000  Uiso   1.00
C339   C     0.84367   0.39054   0.92424   0.00000  Uiso   1.00
C340   C     0.01227   0.66957   0.87090   0.00000  Uiso   1.00
C341   C     0.96737   0.76969   0.85458   0.00000  Uiso   1.00
C342   C     0.01259   0.86905   0.87147   0.00000  Uiso   1.00
C343   C     0.07454   0.49232   0.85015   0.00000  Uiso   1.00
C344   C     0.08199   0.44344   0.81639   0.00000  Uiso   1.00
C345   C     0.17965   0.39360   0.81581   0.00000  Uiso   1.00
H346   H     0.20334   0.54916   0.94102   0.00000  Uiso   1.00
H347   H     0.09599   0.43897   0.98087   0.00000  Uiso   1.00
H348   H     0.21188   0.76727   0.94466   0.00000  Uiso   1.00
H349   H     0.32649   0.44107   0.90647   0.00000  Uiso   1.00
H350   H     0.93859   0.31723   0.01092   0.00000  Uiso   1.00
H351   H     0.18299   0.00945   0.93458   0.00000  Uiso   1.00
H352   H     0.42467   0.32160   0.85405   0.00000  Uiso   1.00
H353   H     0.90773   0.55205   0.83211   0.00000  Uiso   1.00
H354   H     0.78416   0.44201   0.86599   0.00000  Uiso   1.00
H355   H     0.90006   0.77031   0.82978   0.00000  Uiso   1.00
H356   H     0.01466   0.44411   0.79160   0.00000  Uiso   1.00
H357   H     0.68550   0.31970   0.91768   0.00000  Uiso   1.00
H358   H     0.92991   0.01193   0.84133   0.00000  Uiso   1.00
H359   H     0.17157   0.32407   0.76081   0.00000  Uiso   1.00
O360   O     0.73607   0.24606   0.98856   0.00000  Uiso   1.00
O361   O     0.05674   0.15423   0.88839   0.00000  Uiso   1.00
O362   O     0.37380   0.25178   0.78274   0.00000  Uiso   1.00
N363   N     0.89599   0.33289   0.98433   0.00000  Uiso   1.00
N364   N     0.12448   0.98008   0.91295   0.00000  Uiso   1.00
N365   N     0.35044   0.33702   0.83766   0.00000  Uiso   1.00
N366   N     0.75980   0.33422   0.93415   0.00000  Uiso   1.00
N367   N     0.98830   0.98141   0.86278   0.00000  Uiso   1.00
N368   N     0.21425   0.33835   0.78749   0.00000  Uiso   1.00
