data_job_02495
_audit_creation_date              2018-12-19
_audit_creation_method            'Materials Studio'
_symmetry_space_group_name_H-M    'P1'
_symmetry_Int_Tables_number       1
_symmetry_cell_setting            triclinic
loop_
_symmetry_equiv_pos_as_xyz
  x,y,z
_cell_length_a                    23.3403
_cell_length_b                    12.7784
_cell_length_c                    19.4680
_cell_angle_alpha                 90.0000
_cell_angle_beta                  90.0000
_cell_angle_gamma                 90.0000
loop_
_atom_site_label
_atom_site_type_symbol
_atom_site_fract_x
_atom_site_fract_y
_atom_site_fract_z
_atom_site_U_iso_or_equiv
_atom_site_adp_type
_atom_site_occupancy
C1     C     0.99413   0.02397   0.25183   0.00000  Uiso   1.00
C2     C     0.02199   0.07780   0.19042   0.00000  Uiso   1.00
C3     C     0.01967   0.18405   0.17594   0.00000  Uiso   1.00
C4     C     0.04794   0.21794   0.11726   0.00000  Uiso   1.00
C5     C     0.08668   0.31216   0.02837   0.00000  Uiso   1.00
C6     C     0.95539   0.93918   0.22215   0.00000  Uiso   1.00
C7     C     0.89708   0.92889   0.23435   0.00000  Uiso   1.00
C8     C     0.86928   0.84607   0.20239   0.00000  Uiso   1.00
C9     C     0.80464   0.72504   0.16280   0.00000  Uiso   1.00
C10    C     0.04224   0.96667   0.28917   0.00000  Uiso   1.00
C11    C     0.05695   0.97946   0.35773   0.00000  Uiso   1.00
C12    C     0.10227   0.91977   0.38220   0.00000  Uiso   1.00
C13    C     0.17248   0.84142   0.44666   0.00000  Uiso   1.00
C14    C     0.04846   0.89520   0.17339   0.00000  Uiso   1.00
C15    C     0.05149   0.00786   0.14781   0.00000  Uiso   1.00
C16    C     0.07978   0.04159   0.08915   0.00000  Uiso   1.00
C17    C     0.07750   0.14788   0.07458   0.00000  Uiso   1.00
C18    C     0.98489   0.86925   0.17954   0.00000  Uiso   1.00
C19    C     0.95718   0.78642   0.14756   0.00000  Uiso   1.00
C20    C     0.89884   0.77600   0.15971   0.00000  Uiso   1.00
C21    C     0.07175   0.89673   0.24656   0.00000  Uiso   1.00
C22    C     0.11706   0.83700   0.27093   0.00000  Uiso   1.00
C23    C     0.13183   0.84970   0.33951   0.00000  Uiso   1.00
H24    H     0.97116   0.07841   0.28501   0.00000  Uiso   1.00
H25    H     0.99682   0.23815   0.20892   0.00000  Uiso   1.00
H26    H     0.87425   0.98302   0.26733   0.00000  Uiso   1.00
H27    H     0.03410   0.03359   0.39069   0.00000  Uiso   1.00
H28    H     0.03828   0.38441   0.10577   0.00000  Uiso   1.00
H29    H     0.77984   0.84641   0.22895   0.00000  Uiso   1.00
H30    H     0.11691   0.95305   0.48906   0.00000  Uiso   1.00
H31    H     0.07143   0.84075   0.14021   0.00000  Uiso   1.00
H32    H     0.10261   0.98745   0.05618   0.00000  Uiso   1.00
H33    H     0.98003   0.73231   0.11459   0.00000  Uiso   1.00
H34    H     0.13988   0.78289   0.23795   0.00000  Uiso   1.00
H35    H     0.12413   0.18093   0.98179   0.00000  Uiso   1.00
H36    H     0.86569   0.64293   0.10498   0.00000  Uiso   1.00
H37    H     0.20276   0.74957   0.36509   0.00000  Uiso   1.00
O38    O     0.09989   0.38345   0.99110   0.00000  Uiso   1.00
O39    O     0.76082   0.67762   0.15272   0.00000  Uiso   1.00
O40    O     0.20305   0.81753   0.49399   0.00000  Uiso   1.00
N41    N     0.05422   0.31639   0.08813   0.00000  Uiso   1.00
N42    N     0.81259   0.81341   0.20329   0.00000  Uiso   1.00
N43    N     0.12771   0.91308   0.44648   0.00000  Uiso   1.00
N44    N     0.10042   0.20690   0.02142   0.00000  Uiso   1.00
N45    N     0.85878   0.70392   0.13658   0.00000  Uiso   1.00
N46    N     0.17391   0.80359   0.37977   0.00000  Uiso   1.00
C47    C     0.50587   0.97603   0.75183   0.00000  Uiso   1.00
C48    C     0.47801   0.92220   0.69042   0.00000  Uiso   1.00
C49    C     0.48033   0.81595   0.67594   0.00000  Uiso   1.00
C50    C     0.45206   0.78206   0.61726   0.00000  Uiso   1.00
C51    C     0.41332   0.68784   0.52837   0.00000  Uiso   1.00
C52    C     0.54461   0.06082   0.72215   0.00000  Uiso   1.00
C53    C     0.60292   0.07111   0.73435   0.00000  Uiso   1.00
C54    C     0.63072   0.15393   0.70239   0.00000  Uiso   1.00
C55    C     0.69536   0.27496   0.66280   0.00000  Uiso   1.00
C56    C     0.45776   0.03333   0.78917   0.00000  Uiso   1.00
C57    C     0.44305   0.02054   0.85773   0.00000  Uiso   1.00
C58    C     0.39773   0.08023   0.88220   0.00000  Uiso   1.00
C59    C     0.32752   0.15858   0.94666   0.00000  Uiso   1.00
C60    C     0.45154   0.10480   0.67339   0.00000  Uiso   1.00
C61    C     0.44851   0.99214   0.64781   0.00000  Uiso   1.00
C62    C     0.42022   0.95841   0.58915   0.00000  Uiso   1.00
C63    C     0.42250   0.85212   0.57458   0.00000  Uiso   1.00
C64    C     0.51511   0.13075   0.67954   0.00000  Uiso   1.00
C65    C     0.54282   0.21358   0.64756   0.00000  Uiso   1.00
C66    C     0.60116   0.22400   0.65971   0.00000  Uiso   1.00
C67    C     0.42825   0.10327   0.74656   0.00000  Uiso   1.00
C68    C     0.38294   0.16300   0.77093   0.00000  Uiso   1.00
C69    C     0.36817   0.15030   0.83951   0.00000  Uiso   1.00
H70    H     0.52884   0.92159   0.78501   0.00000  Uiso   1.00
H71    H     0.50318   0.76185   0.70892   0.00000  Uiso   1.00
H72    H     0.62575   0.01698   0.76733   0.00000  Uiso   1.00
H73    H     0.46590   0.96641   0.89069   0.00000  Uiso   1.00
H74    H     0.46172   0.61559   0.60577   0.00000  Uiso   1.00
H75    H     0.72016   0.15359   0.72895   0.00000  Uiso   1.00
H76    H     0.38309   0.04695   0.98906   0.00000  Uiso   1.00
H77    H     0.42857   0.15925   0.64021   0.00000  Uiso   1.00
H78    H     0.39739   0.01255   0.55618   0.00000  Uiso   1.00
H79    H     0.51997   0.26769   0.61459   0.00000  Uiso   1.00
H80    H     0.36012   0.21711   0.73795   0.00000  Uiso   1.00
H81    H     0.37587   0.81907   0.48179   0.00000  Uiso   1.00
H82    H     0.63431   0.35707   0.60498   0.00000  Uiso   1.00
H83    H     0.29724   0.25043   0.86509   0.00000  Uiso   1.00
O84    O     0.40011   0.61655   0.49110   0.00000  Uiso   1.00
O85    O     0.73918   0.32238   0.65272   0.00000  Uiso   1.00
O86    O     0.29695   0.18247   0.99399   0.00000  Uiso   1.00
N87    N     0.44578   0.68361   0.58813   0.00000  Uiso   1.00
N88    N     0.68741   0.18659   0.70329   0.00000  Uiso   1.00
N89    N     0.37229   0.08692   0.94648   0.00000  Uiso   1.00
N90    N     0.39958   0.79310   0.52142   0.00000  Uiso   1.00
N91    N     0.64122   0.29608   0.63658   0.00000  Uiso   1.00
N92    N     0.32609   0.19641   0.87977   0.00000  Uiso   1.00
C93    C     0.00587   0.52397   0.24817   0.00000  Uiso   1.00
C94    C     0.97801   0.57780   0.30958   0.00000  Uiso   1.00
C95    C     0.98033   0.68405   0.32406   0.00000  Uiso   1.00
C96    C     0.95206   0.71794   0.38274   0.00000  Uiso   1.00
C97    C     0.91332   0.81216   0.47163   0.00000  Uiso   1.00
C98    C     0.04461   0.43918   0.27785   0.00000  Uiso   1.00
C99    C     0.10292   0.42889   0.26565   0.00000  Uiso   1.00
C100   C     0.13072   0.34607   0.29761   0.00000  Uiso   1.00
C101   C     0.19536   0.22504   0.33720   0.00000  Uiso   1.00
C102   C     0.95776   0.46667   0.21083   0.00000  Uiso   1.00
C103   C     0.94305   0.47946   0.14227   0.00000  Uiso   1.00
C104   C     0.89773   0.41977   0.11780   0.00000  Uiso   1.00
C105   C     0.82752   0.34142   0.05334   0.00000  Uiso   1.00
C106   C     0.95154   0.39520   0.32661   0.00000  Uiso   1.00
C107   C     0.94851   0.50786   0.35219   0.00000  Uiso   1.00
C108   C     0.92022   0.54159   0.41085   0.00000  Uiso   1.00
C109   C     0.92250   0.64788   0.42542   0.00000  Uiso   1.00
C110   C     0.01511   0.36925   0.32046   0.00000  Uiso   1.00
C111   C     0.04282   0.28642   0.35244   0.00000  Uiso   1.00
C112   C     0.10116   0.27600   0.34029   0.00000  Uiso   1.00
C113   C     0.92825   0.39673   0.25344   0.00000  Uiso   1.00
C114   C     0.88294   0.33700   0.22907   0.00000  Uiso   1.00
C115   C     0.86817   0.34970   0.16049   0.00000  Uiso   1.00
H116   H     0.02884   0.57841   0.21499   0.00000  Uiso   1.00
H117   H     0.00318   0.73815   0.29108   0.00000  Uiso   1.00
H118   H     0.12575   0.48302   0.23267   0.00000  Uiso   1.00
H119   H     0.96590   0.53359   0.10931   0.00000  Uiso   1.00
H120   H     0.96172   0.88441   0.39423   0.00000  Uiso   1.00
H121   H     0.22016   0.34641   0.27105   0.00000  Uiso   1.00
H122   H     0.88309   0.45305   0.01094   0.00000  Uiso   1.00
H123   H     0.92857   0.34075   0.35979   0.00000  Uiso   1.00
H124   H     0.89739   0.48745   0.44382   0.00000  Uiso   1.00
H125   H     0.01997   0.23231   0.38541   0.00000  Uiso   1.00
H126   H     0.86012   0.28289   0.26205   0.00000  Uiso   1.00
H127   H     0.87587   0.68093   0.51821   0.00000  Uiso   1.00
H128   H     0.13431   0.14293   0.39502   0.00000  Uiso   1.00
H129   H     0.79724   0.24957   0.13491   0.00000  Uiso   1.00
O130   O     0.90011   0.88345   0.50890   0.00000  Uiso   1.00
O131   O     0.23918   0.17762   0.34728   0.00000  Uiso   1.00
O132   O     0.79695   0.31753   0.00601   0.00000  Uiso   1.00
N133   N     0.94578   0.81639   0.41187   0.00000  Uiso   1.00
N134   N     0.18741   0.31341   0.29671   0.00000  Uiso   1.00
N135   N     0.87229   0.41308   0.05352   0.00000  Uiso   1.00
N136   N     0.89958   0.70690   0.47858   0.00000  Uiso   1.00
N137   N     0.14122   0.20392   0.36342   0.00000  Uiso   1.00
N138   N     0.82609   0.30359   0.12023   0.00000  Uiso   1.00
C139   C     0.49413   0.47603   0.74817   0.00000  Uiso   1.00
C140   C     0.52199   0.42220   0.80958   0.00000  Uiso   1.00
C141   C     0.51967   0.31595   0.82406   0.00000  Uiso   1.00
C142   C     0.54794   0.28206   0.88274   0.00000  Uiso   1.00
C143   C     0.58668   0.18784   0.97163   0.00000  Uiso   1.00
C144   C     0.45539   0.56082   0.77785   0.00000  Uiso   1.00
C145   C     0.39708   0.57111   0.76565   0.00000  Uiso   1.00
C146   C     0.36928   0.65393   0.79761   0.00000  Uiso   1.00
C147   C     0.30464   0.77496   0.83720   0.00000  Uiso   1.00
C148   C     0.54224   0.53333   0.71083   0.00000  Uiso   1.00
C149   C     0.55695   0.52054   0.64227   0.00000  Uiso   1.00
C150   C     0.60227   0.58023   0.61780   0.00000  Uiso   1.00
C151   C     0.67248   0.65858   0.55334   0.00000  Uiso   1.00
C152   C     0.54846   0.60480   0.82661   0.00000  Uiso   1.00
C153   C     0.55149   0.49214   0.85219   0.00000  Uiso   1.00
C154   C     0.57978   0.45841   0.91085   0.00000  Uiso   1.00
C155   C     0.57750   0.35212   0.92542   0.00000  Uiso   1.00
C156   C     0.48489   0.63075   0.82046   0.00000  Uiso   1.00
C157   C     0.45718   0.71358   0.85244   0.00000  Uiso   1.00
C158   C     0.39884   0.72400   0.84029   0.00000  Uiso   1.00
C159   C     0.57175   0.60327   0.75344   0.00000  Uiso   1.00
C160   C     0.61706   0.66300   0.72907   0.00000  Uiso   1.00
C161   C     0.63183   0.65030   0.66049   0.00000  Uiso   1.00
H162   H     0.47116   0.42159   0.71499   0.00000  Uiso   1.00
H163   H     0.49682   0.26185   0.79108   0.00000  Uiso   1.00
H164   H     0.37425   0.51698   0.73267   0.00000  Uiso   1.00
H165   H     0.53410   0.46641   0.60931   0.00000  Uiso   1.00
H166   H     0.53828   0.11559   0.89423   0.00000  Uiso   1.00
H167   H     0.27984   0.65359   0.77105   0.00000  Uiso   1.00
H168   H     0.61691   0.54695   0.51094   0.00000  Uiso   1.00
H169   H     0.57143   0.65925   0.85979   0.00000  Uiso   1.00
H170   H     0.60261   0.51255   0.94382   0.00000  Uiso   1.00
H171   H     0.48003   0.76769   0.88541   0.00000  Uiso   1.00
H172   H     0.63988   0.71711   0.76205   0.00000  Uiso   1.00
H173   H     0.62413   0.31907   0.01821   0.00000  Uiso   1.00
H174   H     0.36569   0.85707   0.89502   0.00000  Uiso   1.00
H175   H     0.70276   0.75043   0.63491   0.00000  Uiso   1.00
O176   O     0.59989   0.11655   0.00890   0.00000  Uiso   1.00
O177   O     0.26082   0.82238   0.84728   0.00000  Uiso   1.00
O178   O     0.70305   0.68247   0.50601   0.00000  Uiso   1.00
N179   N     0.55422   0.18361   0.91187   0.00000  Uiso   1.00
N180   N     0.31259   0.68659   0.79671   0.00000  Uiso   1.00
N181   N     0.62771   0.58692   0.55352   0.00000  Uiso   1.00
N182   N     0.60042   0.29310   0.97858   0.00000  Uiso   1.00
N183   N     0.35878   0.79608   0.86342   0.00000  Uiso   1.00
N184   N     0.67391   0.69641   0.62023   0.00000  Uiso   1.00
C185   C     0.00587   0.97603   0.74817   0.00000  Uiso   1.00
C186   C     0.97801   0.92220   0.80958   0.00000  Uiso   1.00
C187   C     0.98033   0.81595   0.82406   0.00000  Uiso   1.00
C188   C     0.95206   0.78206   0.88274   0.00000  Uiso   1.00
C189   C     0.91332   0.68784   0.97163   0.00000  Uiso   1.00
C190   C     0.04461   0.06082   0.77785   0.00000  Uiso   1.00
C191   C     0.10292   0.07111   0.76565   0.00000  Uiso   1.00
C192   C     0.13072   0.15393   0.79761   0.00000  Uiso   1.00
C193   C     0.19536   0.27496   0.83720   0.00000  Uiso   1.00
C194   C     0.95776   0.03333   0.71083   0.00000  Uiso   1.00
C195   C     0.94305   0.02054   0.64227   0.00000  Uiso   1.00
C196   C     0.89773   0.08023   0.61780   0.00000  Uiso   1.00
C197   C     0.82752   0.15858   0.55334   0.00000  Uiso   1.00
C198   C     0.95154   0.10480   0.82661   0.00000  Uiso   1.00
C199   C     0.94851   0.99214   0.85219   0.00000  Uiso   1.00
C200   C     0.92022   0.95841   0.91085   0.00000  Uiso   1.00
C201   C     0.92250   0.85212   0.92542   0.00000  Uiso   1.00
C202   C     0.01511   0.13075   0.82046   0.00000  Uiso   1.00
C203   C     0.04282   0.21358   0.85244   0.00000  Uiso   1.00
C204   C     0.10116   0.22400   0.84029   0.00000  Uiso   1.00
C205   C     0.92825   0.10327   0.75344   0.00000  Uiso   1.00
C206   C     0.88294   0.16300   0.72907   0.00000  Uiso   1.00
C207   C     0.86817   0.15030   0.66049   0.00000  Uiso   1.00
H208   H     0.02884   0.92159   0.71499   0.00000  Uiso   1.00
H209   H     0.00318   0.76185   0.79108   0.00000  Uiso   1.00
H210   H     0.12575   0.01698   0.73267   0.00000  Uiso   1.00
H211   H     0.96590   0.96641   0.60931   0.00000  Uiso   1.00
H212   H     0.96172   0.61559   0.89423   0.00000  Uiso   1.00
H213   H     0.22016   0.15359   0.77105   0.00000  Uiso   1.00
H214   H     0.88309   0.04695   0.51094   0.00000  Uiso   1.00
H215   H     0.92857   0.15925   0.85979   0.00000  Uiso   1.00
H216   H     0.89739   0.01255   0.94382   0.00000  Uiso   1.00
H217   H     0.01997   0.26769   0.88541   0.00000  Uiso   1.00
H218   H     0.86012   0.21711   0.76205   0.00000  Uiso   1.00
H219   H     0.87587   0.81907   0.01821   0.00000  Uiso   1.00
H220   H     0.13431   0.35707   0.89502   0.00000  Uiso   1.00
H221   H     0.79724   0.25043   0.63491   0.00000  Uiso   1.00
O222   O     0.90011   0.61655   0.00890   0.00000  Uiso   1.00
O223   O     0.23918   0.32238   0.84728   0.00000  Uiso   1.00
O224   O     0.79695   0.18247   0.50601   0.00000  Uiso   1.00
N225   N     0.94578   0.68361   0.91187   0.00000  Uiso   1.00
N226   N     0.18741   0.18659   0.79671   0.00000  Uiso   1.00
N227   N     0.87229   0.08692   0.55352   0.00000  Uiso   1.00
N228   N     0.89958   0.79310   0.97858   0.00000  Uiso   1.00
N229   N     0.14122   0.29608   0.86342   0.00000  Uiso   1.00
N230   N     0.82609   0.19641   0.62023   0.00000  Uiso   1.00
C231   C     0.49413   0.02397   0.24817   0.00000  Uiso   1.00
C232   C     0.52199   0.07780   0.30958   0.00000  Uiso   1.00
C233   C     0.51967   0.18405   0.32406   0.00000  Uiso   1.00
C234   C     0.54794   0.21794   0.38274   0.00000  Uiso   1.00
C235   C     0.58668   0.31216   0.47163   0.00000  Uiso   1.00
C236   C     0.45539   0.93918   0.27785   0.00000  Uiso   1.00
C237   C     0.39708   0.92889   0.26565   0.00000  Uiso   1.00
C238   C     0.36928   0.84607   0.29761   0.00000  Uiso   1.00
C239   C     0.30464   0.72504   0.33720   0.00000  Uiso   1.00
C240   C     0.54224   0.96667   0.21083   0.00000  Uiso   1.00
C241   C     0.55695   0.97946   0.14227   0.00000  Uiso   1.00
C242   C     0.60227   0.91977   0.11780   0.00000  Uiso   1.00
C243   C     0.67248   0.84142   0.05334   0.00000  Uiso   1.00
C244   C     0.54846   0.89520   0.32661   0.00000  Uiso   1.00
C245   C     0.55149   0.00786   0.35219   0.00000  Uiso   1.00
C246   C     0.57978   0.04159   0.41085   0.00000  Uiso   1.00
C247   C     0.57750   0.14788   0.42542   0.00000  Uiso   1.00
C248   C     0.48489   0.86925   0.32046   0.00000  Uiso   1.00
C249   C     0.45718   0.78642   0.35244   0.00000  Uiso   1.00
C250   C     0.39884   0.77600   0.34029   0.00000  Uiso   1.00
C251   C     0.57175   0.89673   0.25344   0.00000  Uiso   1.00
C252   C     0.61706   0.83700   0.22907   0.00000  Uiso   1.00
C253   C     0.63183   0.84970   0.16049   0.00000  Uiso   1.00
H254   H     0.47116   0.07841   0.21499   0.00000  Uiso   1.00
H255   H     0.49682   0.23815   0.29108   0.00000  Uiso   1.00
H256   H     0.37425   0.98302   0.23267   0.00000  Uiso   1.00
H257   H     0.53410   0.03359   0.10931   0.00000  Uiso   1.00
H258   H     0.53828   0.38441   0.39423   0.00000  Uiso   1.00
H259   H     0.27984   0.84641   0.27105   0.00000  Uiso   1.00
H260   H     0.61691   0.95305   0.01094   0.00000  Uiso   1.00
H261   H     0.57143   0.84075   0.35979   0.00000  Uiso   1.00
H262   H     0.60261   0.98745   0.44382   0.00000  Uiso   1.00
H263   H     0.48003   0.73231   0.38541   0.00000  Uiso   1.00
H264   H     0.63988   0.78289   0.26205   0.00000  Uiso   1.00
H265   H     0.62413   0.18093   0.51821   0.00000  Uiso   1.00
H266   H     0.36569   0.64293   0.39502   0.00000  Uiso   1.00
H267   H     0.70276   0.74957   0.13491   0.00000  Uiso   1.00
O268   O     0.59989   0.38345   0.50890   0.00000  Uiso   1.00
O269   O     0.26082   0.67762   0.34728   0.00000  Uiso   1.00
O270   O     0.70305   0.81753   0.00601   0.00000  Uiso   1.00
N271   N     0.55422   0.31639   0.41187   0.00000  Uiso   1.00
N272   N     0.31259   0.81341   0.29671   0.00000  Uiso   1.00
N273   N     0.62771   0.91308   0.05352   0.00000  Uiso   1.00
N274   N     0.60042   0.20690   0.47858   0.00000  Uiso   1.00
N275   N     0.35878   0.70392   0.36342   0.00000  Uiso   1.00
N276   N     0.67391   0.80359   0.12023   0.00000  Uiso   1.00
C277   C     0.99413   0.47603   0.75183   0.00000  Uiso   1.00
C278   C     0.02199   0.42220   0.69042   0.00000  Uiso   1.00
C279   C     0.01967   0.31595   0.67594   0.00000  Uiso   1.00
C280   C     0.04794   0.28206   0.61726   0.00000  Uiso   1.00
C281   C     0.08668   0.18784   0.52837   0.00000  Uiso   1.00
C282   C     0.95539   0.56082   0.72215   0.00000  Uiso   1.00
C283   C     0.89708   0.57111   0.73435   0.00000  Uiso   1.00
C284   C     0.86928   0.65393   0.70239   0.00000  Uiso   1.00
C285   C     0.80464   0.77496   0.66280   0.00000  Uiso   1.00
C286   C     0.04224   0.53333   0.78917   0.00000  Uiso   1.00
C287   C     0.05695   0.52054   0.85773   0.00000  Uiso   1.00
C288   C     0.10227   0.58023   0.88220   0.00000  Uiso   1.00
C289   C     0.17248   0.65858   0.94666   0.00000  Uiso   1.00
C290   C     0.04846   0.60480   0.67339   0.00000  Uiso   1.00
C291   C     0.05149   0.49214   0.64781   0.00000  Uiso   1.00
C292   C     0.07978   0.45841   0.58915   0.00000  Uiso   1.00
C293   C     0.07750   0.35212   0.57458   0.00000  Uiso   1.00
C294   C     0.98489   0.63075   0.67954   0.00000  Uiso   1.00
C295   C     0.95718   0.71358   0.64756   0.00000  Uiso   1.00
C296   C     0.89884   0.72400   0.65971   0.00000  Uiso   1.00
C297   C     0.07175   0.60327   0.74656   0.00000  Uiso   1.00
C298   C     0.11706   0.66300   0.77093   0.00000  Uiso   1.00
C299   C     0.13183   0.65030   0.83951   0.00000  Uiso   1.00
H300   H     0.97116   0.42159   0.78501   0.00000  Uiso   1.00
H301   H     0.99682   0.26185   0.70892   0.00000  Uiso   1.00
H302   H     0.87425   0.51698   0.76733   0.00000  Uiso   1.00
H303   H     0.03410   0.46641   0.89069   0.00000  Uiso   1.00
H304   H     0.03828   0.11559   0.60577   0.00000  Uiso   1.00
H305   H     0.77984   0.65359   0.72895   0.00000  Uiso   1.00
H306   H     0.11691   0.54695   0.98906   0.00000  Uiso   1.00
H307   H     0.07143   0.65925   0.64021   0.00000  Uiso   1.00
H308   H     0.10261   0.51255   0.55618   0.00000  Uiso   1.00
H309   H     0.98003   0.76769   0.61459   0.00000  Uiso   1.00
H310   H     0.13988   0.71711   0.73795   0.00000  Uiso   1.00
H311   H     0.12413   0.31907   0.48179   0.00000  Uiso   1.00
H312   H     0.86569   0.85707   0.60498   0.00000  Uiso   1.00
H313   H     0.20276   0.75043   0.86509   0.00000  Uiso   1.00
O314   O     0.09989   0.11655   0.49110   0.00000  Uiso   1.00
O315   O     0.76082   0.82238   0.65272   0.00000  Uiso   1.00
O316   O     0.20305   0.68247   0.99399   0.00000  Uiso   1.00
N317   N     0.05422   0.18361   0.58813   0.00000  Uiso   1.00
N318   N     0.81259   0.68659   0.70329   0.00000  Uiso   1.00
N319   N     0.12771   0.58692   0.94648   0.00000  Uiso   1.00
N320   N     0.10042   0.29310   0.52142   0.00000  Uiso   1.00
N321   N     0.85878   0.79608   0.63658   0.00000  Uiso   1.00
N322   N     0.17391   0.69641   0.87977   0.00000  Uiso   1.00
C323   C     0.50587   0.52397   0.25183   0.00000  Uiso   1.00
C324   C     0.47801   0.57780   0.19042   0.00000  Uiso   1.00
C325   C     0.48033   0.68405   0.17594   0.00000  Uiso   1.00
C326   C     0.45206   0.71794   0.11726   0.00000  Uiso   1.00
C327   C     0.41332   0.81216   0.02837   0.00000  Uiso   1.00
C328   C     0.54461   0.43918   0.22215   0.00000  Uiso   1.00
C329   C     0.60292   0.42889   0.23435   0.00000  Uiso   1.00
C330   C     0.63072   0.34607   0.20239   0.00000  Uiso   1.00
C331   C     0.69536   0.22504   0.16280   0.00000  Uiso   1.00
C332   C     0.45776   0.46667   0.28917   0.00000  Uiso   1.00
C333   C     0.44305   0.47946   0.35773   0.00000  Uiso   1.00
C334   C     0.39773   0.41977   0.38220   0.00000  Uiso   1.00
C335   C     0.32752   0.34142   0.44666   0.00000  Uiso   1.00
C336   C     0.45154   0.39520   0.17339   0.00000  Uiso   1.00
C337   C     0.44851   0.50786   0.14781   0.00000  Uiso   1.00
C338   C     0.42022   0.54159   0.08915   0.00000  Uiso   1.00
C339   C     0.42250   0.64788   0.07458   0.00000  Uiso   1.00
C340   C     0.51511   0.36925   0.17954   0.00000  Uiso   1.00
C341   C     0.54282   0.28642   0.14756   0.00000  Uiso   1.00
C342   C     0.60116   0.27600   0.15971   0.00000  Uiso   1.00
C343   C     0.42825   0.39673   0.24656   0.00000  Uiso   1.00
C344   C     0.38294   0.33700   0.27093   0.00000  Uiso   1.00
C345   C     0.36817   0.34970   0.33951   0.00000  Uiso   1.00
H346   H     0.52884   0.57841   0.28501   0.00000  Uiso   1.00
H347   H     0.50318   0.73815   0.20892   0.00000  Uiso   1.00
H348   H     0.62575   0.48302   0.26733   0.00000  Uiso   1.00
H349   H     0.46590   0.53359   0.39069   0.00000  Uiso   1.00
H350   H     0.46172   0.88441   0.10577   0.00000  Uiso   1.00
H351   H     0.72016   0.34641   0.22895   0.00000  Uiso   1.00
H352   H     0.38309   0.45305   0.48906   0.00000  Uiso   1.00
H353   H     0.42857   0.34075   0.14021   0.00000  Uiso   1.00
H354   H     0.39739   0.48745   0.05618   0.00000  Uiso   1.00
H355   H     0.51997   0.23231   0.11459   0.00000  Uiso   1.00
H356   H     0.36012   0.28289   0.23795   0.00000  Uiso   1.00
H357   H     0.37587   0.68093   0.98179   0.00000  Uiso   1.00
H358   H     0.63431   0.14293   0.10498   0.00000  Uiso   1.00
H359   H     0.29724   0.24957   0.36509   0.00000  Uiso   1.00
O360   O     0.40011   0.88345   0.99110   0.00000  Uiso   1.00
O361   O     0.73918   0.17762   0.15272   0.00000  Uiso   1.00
O362   O     0.29695   0.31753   0.49399   0.00000  Uiso   1.00
N363   N     0.44578   0.81639   0.08813   0.00000  Uiso   1.00
N364   N     0.68741   0.31341   0.20329   0.00000  Uiso   1.00
N365   N     0.37229   0.41308   0.44648   0.00000  Uiso   1.00
N366   N     0.39958   0.70690   0.02142   0.00000  Uiso   1.00
N367   N     0.64122   0.20392   0.13658   0.00000  Uiso   1.00
N368   N     0.32609   0.30359   0.37977   0.00000  Uiso   1.00
