data_job_02981
_audit_creation_date              2018-12-19
_audit_creation_method            'Materials Studio'
_symmetry_space_group_name_H-M    'P1'
_symmetry_Int_Tables_number       1
_symmetry_cell_setting            triclinic
loop_
_symmetry_equiv_pos_as_xyz
  x,y,z
_cell_length_a                    16.8880
_cell_length_b                    15.5635
_cell_length_c                    19.6347
_cell_angle_alpha                 90.0000
_cell_angle_beta                  39.4137
_cell_angle_gamma                 90.0000
loop_
_atom_site_label
_atom_site_type_symbol
_atom_site_fract_x
_atom_site_fract_y
_atom_site_fract_z
_atom_site_U_iso_or_equiv
_atom_site_adp_type
_atom_site_occupancy
C1     C     0.73695   0.10657   0.96542   0.00000  Uiso   1.00
C2     C     0.81212   0.10783   0.98139   0.00000  Uiso   1.00
C3     C     0.94125   0.10736   0.90031   0.00000  Uiso   1.00
C4     C     0.99217   0.10869   0.93148   0.00000  Uiso   1.00
C5     C     0.12039   0.11035   0.93980   0.00000  Uiso   1.00
C6     C     0.65095   0.02878   0.02748   0.00000  Uiso   1.00
C7     C     0.64456   0.96185   0.98514   0.00000  Uiso   1.00
C8     C     0.55979   0.89665   0.05511   0.00000  Uiso   1.00
C9     C     0.43772   0.77560   0.13500   0.00000  Uiso   1.00
C10    C     0.65240   0.18528   0.02413   0.00000  Uiso   1.00
C11    C     0.64720   0.24993   0.97898   0.00000  Uiso   1.00
C12    C     0.56363   0.31648   0.04614   0.00000  Uiso   1.00
C13    C     0.44381   0.43843   0.12082   0.00000  Uiso   1.00
C14    C     0.59775   0.10978   0.16496   0.00000  Uiso   1.00
C15    C     0.73650   0.10957   0.08978   0.00000  Uiso   1.00
C16    C     0.78724   0.11091   0.12108   0.00000  Uiso   1.00
C17    C     0.91643   0.11044   0.04006   0.00000  Uiso   1.00
C18    C     0.57534   0.03052   0.13586   0.00000  Uiso   1.00
C19    C     0.49055   0.96540   0.20591   0.00000  Uiso   1.00
C20    C     0.48404   0.89839   0.16369   0.00000  Uiso   1.00
C21    C     0.57679   0.18703   0.13251   0.00000  Uiso   1.00
C22    C     0.49319   0.25348   0.19975   0.00000  Uiso   1.00
C23    C     0.48788   0.31823   0.15472   0.00000  Uiso   1.00
H24    H     0.79581   0.10520   0.88104   0.00000  Uiso   1.00
H25    H     0.99973   0.10600   0.81644   0.00000  Uiso   1.00
H26    H     0.70308   0.96052   0.90127   0.00000  Uiso   1.00
H27    H     0.70573   0.24856   0.89511   0.00000  Uiso   1.00
H28    H     0.19247   0.10763   0.79262   0.00000  Uiso   1.00
H29    H     0.56693   0.80089   0.97149   0.00000  Uiso   1.00
H30    H     0.57251   0.40827   0.95850   0.00000  Uiso   1.00
H31    H     0.53888   0.11113   0.24935   0.00000  Uiso   1.00
H32    H     0.72870   0.11226   0.20496   0.00000  Uiso   1.00
H33    H     0.43205   0.96677   0.28978   0.00000  Uiso   1.00
H34    H     0.43470   0.25481   0.28362   0.00000  Uiso   1.00
H35    H     0.97250   0.11270   0.10796   0.00000  Uiso   1.00
H36    H     0.34695   0.80596   0.28682   0.00000  Uiso   1.00
H37    H     0.35253   0.41334   0.27383   0.00000  Uiso   1.00
O38    O     0.21199   0.11077   0.91445   0.00000  Uiso   1.00
O39    O     0.39129   0.70835   0.14911   0.00000  Uiso   1.00
O40    O     0.39862   0.50522   0.13207   0.00000  Uiso   1.00
N41    N     0.11465   0.10868   0.87293   0.00000  Uiso   1.00
N42    N     0.52982   0.82189   0.04015   0.00000  Uiso   1.00
N43    N     0.53501   0.38973   0.02801   0.00000  Uiso   1.00
N44    N     0.99628   0.11141   0.04261   0.00000  Uiso   1.00
N45    N     0.41145   0.82462   0.20983   0.00000  Uiso   1.00
N46    N     0.41664   0.39246   0.19769   0.00000  Uiso   1.00
C47    C     0.26305   0.60657   0.53458   0.00000  Uiso   1.00
C48    C     0.18788   0.60783   0.51861   0.00000  Uiso   1.00
C49    C     0.05875   0.60736   0.59969   0.00000  Uiso   1.00
C50    C     0.00783   0.60869   0.56852   0.00000  Uiso   1.00
C51    C     0.87961   0.61035   0.56020   0.00000  Uiso   1.00
C52    C     0.34905   0.52878   0.47252   0.00000  Uiso   1.00
C53    C     0.35544   0.46185   0.51486   0.00000  Uiso   1.00
C54    C     0.44021   0.39665   0.44489   0.00000  Uiso   1.00
C55    C     0.56228   0.27560   0.36500   0.00000  Uiso   1.00
C56    C     0.34760   0.68528   0.47587   0.00000  Uiso   1.00
C57    C     0.35280   0.74993   0.52102   0.00000  Uiso   1.00
C58    C     0.43637   0.81648   0.45386   0.00000  Uiso   1.00
C59    C     0.55619   0.93843   0.37918   0.00000  Uiso   1.00
C60    C     0.40225   0.60978   0.33504   0.00000  Uiso   1.00
C61    C     0.26350   0.60957   0.41022   0.00000  Uiso   1.00
C62    C     0.21276   0.61091   0.37892   0.00000  Uiso   1.00
C63    C     0.08357   0.61044   0.45994   0.00000  Uiso   1.00
C64    C     0.42466   0.53052   0.36414   0.00000  Uiso   1.00
C65    C     0.50945   0.46540   0.29409   0.00000  Uiso   1.00
C66    C     0.51596   0.39839   0.33631   0.00000  Uiso   1.00
C67    C     0.42321   0.68703   0.36749   0.00000  Uiso   1.00
C68    C     0.50681   0.75348   0.30025   0.00000  Uiso   1.00
C69    C     0.51212   0.81823   0.34528   0.00000  Uiso   1.00
H70    H     0.20419   0.60520   0.61896   0.00000  Uiso   1.00
H71    H     0.00027   0.60600   0.68356   0.00000  Uiso   1.00
H72    H     0.29692   0.46052   0.59873   0.00000  Uiso   1.00
H73    H     0.29427   0.74856   0.60489   0.00000  Uiso   1.00
H74    H     0.80753   0.60763   0.70738   0.00000  Uiso   1.00
H75    H     0.43307   0.30089   0.52851   0.00000  Uiso   1.00
H76    H     0.42749   0.90827   0.54150   0.00000  Uiso   1.00
H77    H     0.46112   0.61113   0.25065   0.00000  Uiso   1.00
H78    H     0.27130   0.61226   0.29504   0.00000  Uiso   1.00
H79    H     0.56795   0.46677   0.21022   0.00000  Uiso   1.00
H80    H     0.56530   0.75481   0.21638   0.00000  Uiso   1.00
H81    H     0.02750   0.61270   0.39204   0.00000  Uiso   1.00
H82    H     0.65305   0.30596   0.21318   0.00000  Uiso   1.00
H83    H     0.64747   0.91334   0.22617   0.00000  Uiso   1.00
O84    O     0.78801   0.61077   0.58555   0.00000  Uiso   1.00
O85    O     0.60871   0.20835   0.35089   0.00000  Uiso   1.00
O86    O     0.60138   0.00522   0.36793   0.00000  Uiso   1.00
N87    N     0.88535   0.60868   0.62707   0.00000  Uiso   1.00
N88    N     0.47018   0.32189   0.45985   0.00000  Uiso   1.00
N89    N     0.46499   0.88973   0.47199   0.00000  Uiso   1.00
N90    N     0.00372   0.61141   0.45739   0.00000  Uiso   1.00
N91    N     0.58855   0.32462   0.29017   0.00000  Uiso   1.00
N92    N     0.58336   0.89246   0.30231   0.00000  Uiso   1.00
C93    C     0.26305   0.89343   0.03458   0.00000  Uiso   1.00
C94    C     0.18788   0.89217   0.01861   0.00000  Uiso   1.00
C95    C     0.05875   0.89264   0.09969   0.00000  Uiso   1.00
C96    C     0.00783   0.89131   0.06852   0.00000  Uiso   1.00
C97    C     0.87961   0.88965   0.06020   0.00000  Uiso   1.00
C98    C     0.34905   0.97122   0.97252   0.00000  Uiso   1.00
C99    C     0.35544   0.03815   0.01486   0.00000  Uiso   1.00
C100   C     0.44021   0.10335   0.94489   0.00000  Uiso   1.00
C101   C     0.56228   0.22440   0.86500   0.00000  Uiso   1.00
C102   C     0.34760   0.81472   0.97587   0.00000  Uiso   1.00
C103   C     0.35280   0.75007   0.02102   0.00000  Uiso   1.00
C104   C     0.43637   0.68352   0.95386   0.00000  Uiso   1.00
C105   C     0.55619   0.56157   0.87918   0.00000  Uiso   1.00
C106   C     0.40225   0.89022   0.83504   0.00000  Uiso   1.00
C107   C     0.26350   0.89043   0.91022   0.00000  Uiso   1.00
C108   C     0.21276   0.88909   0.87892   0.00000  Uiso   1.00
C109   C     0.08357   0.88956   0.95994   0.00000  Uiso   1.00
C110   C     0.42466   0.96948   0.86414   0.00000  Uiso   1.00
C111   C     0.50945   0.03460   0.79409   0.00000  Uiso   1.00
C112   C     0.51596   0.10161   0.83631   0.00000  Uiso   1.00
C113   C     0.42321   0.81297   0.86749   0.00000  Uiso   1.00
C114   C     0.50681   0.74652   0.80025   0.00000  Uiso   1.00
C115   C     0.51212   0.68177   0.84528   0.00000  Uiso   1.00
H116   H     0.20419   0.89480   0.11896   0.00000  Uiso   1.00
H117   H     0.00027   0.89400   0.18356   0.00000  Uiso   1.00
H118   H     0.29692   0.03948   0.09873   0.00000  Uiso   1.00
H119   H     0.29427   0.75144   0.10489   0.00000  Uiso   1.00
H120   H     0.80753   0.89237   0.20738   0.00000  Uiso   1.00
H121   H     0.43307   0.19911   0.02851   0.00000  Uiso   1.00
H122   H     0.42749   0.59173   0.04150   0.00000  Uiso   1.00
H123   H     0.46112   0.88887   0.75065   0.00000  Uiso   1.00
H124   H     0.27130   0.88774   0.79504   0.00000  Uiso   1.00
H125   H     0.56795   0.03323   0.71022   0.00000  Uiso   1.00
H126   H     0.56530   0.74519   0.71638   0.00000  Uiso   1.00
H127   H     0.02750   0.88730   0.89204   0.00000  Uiso   1.00
H128   H     0.65305   0.19404   0.71318   0.00000  Uiso   1.00
H129   H     0.64747   0.58666   0.72617   0.00000  Uiso   1.00
O130   O     0.78801   0.88923   0.08555   0.00000  Uiso   1.00
O131   O     0.60871   0.29165   0.85089   0.00000  Uiso   1.00
O132   O     0.60138   0.49478   0.86793   0.00000  Uiso   1.00
N133   N     0.88535   0.89132   0.12707   0.00000  Uiso   1.00
N134   N     0.47018   0.17811   0.95985   0.00000  Uiso   1.00
N135   N     0.46499   0.61027   0.97199   0.00000  Uiso   1.00
N136   N     0.00372   0.88859   0.95739   0.00000  Uiso   1.00
N137   N     0.58855   0.17538   0.79017   0.00000  Uiso   1.00
N138   N     0.58336   0.60754   0.80231   0.00000  Uiso   1.00
C139   C     0.73695   0.39343   0.46542   0.00000  Uiso   1.00
C140   C     0.81212   0.39217   0.48139   0.00000  Uiso   1.00
C141   C     0.94125   0.39264   0.40031   0.00000  Uiso   1.00
C142   C     0.99217   0.39131   0.43148   0.00000  Uiso   1.00
C143   C     0.12039   0.38965   0.43980   0.00000  Uiso   1.00
C144   C     0.65095   0.47122   0.52748   0.00000  Uiso   1.00
C145   C     0.64456   0.53815   0.48514   0.00000  Uiso   1.00
C146   C     0.55979   0.60335   0.55511   0.00000  Uiso   1.00
C147   C     0.43772   0.72440   0.63500   0.00000  Uiso   1.00
C148   C     0.65240   0.31472   0.52413   0.00000  Uiso   1.00
C149   C     0.64720   0.25007   0.47898   0.00000  Uiso   1.00
C150   C     0.56363   0.18352   0.54614   0.00000  Uiso   1.00
C151   C     0.44381   0.06157   0.62082   0.00000  Uiso   1.00
C152   C     0.59775   0.39022   0.66496   0.00000  Uiso   1.00
C153   C     0.73650   0.39043   0.58978   0.00000  Uiso   1.00
C154   C     0.78724   0.38909   0.62108   0.00000  Uiso   1.00
C155   C     0.91643   0.38956   0.54006   0.00000  Uiso   1.00
C156   C     0.57534   0.46948   0.63586   0.00000  Uiso   1.00
C157   C     0.49055   0.53460   0.70591   0.00000  Uiso   1.00
C158   C     0.48404   0.60161   0.66369   0.00000  Uiso   1.00
C159   C     0.57679   0.31297   0.63251   0.00000  Uiso   1.00
C160   C     0.49319   0.24652   0.69975   0.00000  Uiso   1.00
C161   C     0.48788   0.18177   0.65472   0.00000  Uiso   1.00
H162   H     0.79581   0.39480   0.38104   0.00000  Uiso   1.00
H163   H     0.99973   0.39400   0.31644   0.00000  Uiso   1.00
H164   H     0.70308   0.53948   0.40127   0.00000  Uiso   1.00
H165   H     0.70573   0.25144   0.39511   0.00000  Uiso   1.00
H166   H     0.19247   0.39237   0.29262   0.00000  Uiso   1.00
H167   H     0.56693   0.69911   0.47149   0.00000  Uiso   1.00
H168   H     0.57251   0.09173   0.45850   0.00000  Uiso   1.00
H169   H     0.53888   0.38887   0.74935   0.00000  Uiso   1.00
H170   H     0.72870   0.38774   0.70496   0.00000  Uiso   1.00
H171   H     0.43205   0.53323   0.78978   0.00000  Uiso   1.00
H172   H     0.43470   0.24519   0.78362   0.00000  Uiso   1.00
H173   H     0.97250   0.38730   0.60796   0.00000  Uiso   1.00
H174   H     0.34695   0.69404   0.78682   0.00000  Uiso   1.00
H175   H     0.35253   0.08666   0.77383   0.00000  Uiso   1.00
O176   O     0.21199   0.38923   0.41445   0.00000  Uiso   1.00
O177   O     0.39129   0.79165   0.64911   0.00000  Uiso   1.00
O178   O     0.39862   0.99478   0.63207   0.00000  Uiso   1.00
N179   N     0.11465   0.39132   0.37293   0.00000  Uiso   1.00
N180   N     0.52982   0.67811   0.54015   0.00000  Uiso   1.00
N181   N     0.53501   0.11027   0.52801   0.00000  Uiso   1.00
N182   N     0.99628   0.38859   0.54261   0.00000  Uiso   1.00
N183   N     0.41145   0.67538   0.70983   0.00000  Uiso   1.00
N184   N     0.41664   0.10754   0.69769   0.00000  Uiso   1.00
