data_job_05016
_audit_creation_date              2018-12-19
_audit_creation_method            'Materials Studio'
_symmetry_space_group_name_H-M    'P1'
_symmetry_Int_Tables_number       1
_symmetry_cell_setting            triclinic
loop_
_symmetry_equiv_pos_as_xyz
  x,y,z
_cell_length_a                    20.3465
_cell_length_b                    20.3465
_cell_length_c                    12.3549
_cell_angle_alpha                 90.0000
_cell_angle_beta                  90.0000
_cell_angle_gamma                 120.0000
loop_
_atom_site_label
_atom_site_type_symbol
_atom_site_fract_x
_atom_site_fract_y
_atom_site_fract_z
_atom_site_U_iso_or_equiv
_atom_site_adp_type
_atom_site_occupancy
C1     C     0.07099   0.45783   0.63733   0.00000  Uiso   1.00
C2     C     0.06958   0.39930   0.55883   0.00000  Uiso   1.00
C3     C     0.02622   0.37361   0.46529   0.00000  Uiso   1.00
C4     C     0.03293   0.31992   0.40437   0.00000  Uiso   1.00
C5     C     0.02336   0.23312   0.27770   0.00000  Uiso   1.00
C6     C     0.05065   0.41948   0.74796   0.00000  Uiso   1.00
C7     C     0.99139   0.41077   0.81345   0.00000  Uiso   1.00
C8     C     0.98218   0.37407   0.91175   0.00000  Uiso   1.00
C9     C     0.94326   0.31865   0.07876   0.00000  Uiso   1.00
C10    C     0.15372   0.52066   0.64506   0.00000  Uiso   1.00
C11    C     0.18113   0.59703   0.62405   0.00000  Uiso   1.00
C12    C     0.25869   0.64552   0.63574   0.00000  Uiso   1.00
C13    C     0.37980   0.74720   0.64296   0.00000  Uiso   1.00
C14    C     0.16000   0.40817   0.69548   0.00000  Uiso   1.00
C15    C     0.11793   0.37233   0.59042   0.00000  Uiso   1.00
C16    C     0.12471   0.31866   0.52962   0.00000  Uiso   1.00
C17    C     0.08137   0.29290   0.43601   0.00000  Uiso   1.00
C18    C     0.09900   0.39251   0.77955   0.00000  Uiso   1.00
C19    C     0.08988   0.35582   0.87779   0.00000  Uiso   1.00
C20    C     0.03061   0.34705   0.94340   0.00000  Uiso   1.00
C21    C     0.20208   0.49369   0.67664   0.00000  Uiso   1.00
C22    C     0.27961   0.54208   0.68838   0.00000  Uiso   1.00
C23    C     0.30713   0.61850   0.66739   0.00000  Uiso   1.00
H24    H     0.03334   0.47883   0.61275   0.00000  Uiso   1.00
H25    H     0.98881   0.39450   0.44088   0.00000  Uiso   1.00
H26    H     0.95399   0.43166   0.78899   0.00000  Uiso   1.00
H27    H     0.14369   0.61788   0.59961   0.00000  Uiso   1.00
H28    H     0.96073   0.28908   0.26428   0.00000  Uiso   1.00
H29    H     0.88733   0.36746   0.99831   0.00000  Uiso   1.00
H30    H     0.28736   0.76015   0.59897   0.00000  Uiso   1.00
H31    H     0.19765   0.38717   0.72008   0.00000  Uiso   1.00
H32    H     0.16213   0.29780   0.55409   0.00000  Uiso   1.00
H33    H     0.12731   0.33496   0.90220   0.00000  Uiso   1.00
H34    H     0.31701   0.52118   0.71282   0.00000  Uiso   1.00
H35    H     0.10140   0.21059   0.35617   0.00000  Uiso   1.00
H36    H     0.02800   0.28898   0.09020   0.00000  Uiso   1.00
H37    H     0.42803   0.68167   0.69086   0.00000  Uiso   1.00
O38    O     0.00472   0.19268   0.19911   0.00000  Uiso   1.00
O39    O     0.90843   0.29553   0.16214   0.00000  Uiso   1.00
O40    O     0.43325   0.81073   0.63821   0.00000  Uiso   1.00
N41    N     0.99873   0.28288   0.30867   0.00000  Uiso   1.00
N42    N     0.93009   0.35615   0.99494   0.00000  Uiso   1.00
N43    N     0.30408   0.72329   0.62162   0.00000  Uiso   1.00
N44    N     0.07442   0.24065   0.35811   0.00000  Uiso   1.00
N45    N     0.00579   0.31392   0.04438   0.00000  Uiso   1.00
N46    N     0.37978   0.68106   0.67106   0.00000  Uiso   1.00
C47    C     0.54217   0.61316   0.97066   0.00000  Uiso   1.00
C48    C     0.60070   0.67028   0.89216   0.00000  Uiso   1.00
C49    C     0.62639   0.65261   0.79862   0.00000  Uiso   1.00
C50    C     0.68008   0.71301   0.73770   0.00000  Uiso   1.00
C51    C     0.76688   0.79024   0.61103   0.00000  Uiso   1.00
C52    C     0.58052   0.63117   0.08130   0.00000  Uiso   1.00
C53    C     0.58923   0.58062   0.14678   0.00000  Uiso   1.00
C54    C     0.62593   0.60810   0.24509   0.00000  Uiso   1.00
C55    C     0.68135   0.62461   0.41209   0.00000  Uiso   1.00
C56    C     0.47934   0.63306   0.97839   0.00000  Uiso   1.00
C57    C     0.40297   0.58410   0.95738   0.00000  Uiso   1.00
C58    C     0.35448   0.61317   0.96907   0.00000  Uiso   1.00
C59    C     0.25280   0.63261   0.97630   0.00000  Uiso   1.00
C60    C     0.59183   0.75184   0.02882   0.00000  Uiso   1.00
C61    C     0.62767   0.74560   0.92375   0.00000  Uiso   1.00
C62    C     0.68134   0.80604   0.86296   0.00000  Uiso   1.00
C63    C     0.70710   0.78847   0.76934   0.00000  Uiso   1.00
C64    C     0.60749   0.70649   0.11288   0.00000  Uiso   1.00
C65    C     0.64418   0.73405   0.21112   0.00000  Uiso   1.00
C66    C     0.65295   0.68356   0.27673   0.00000  Uiso   1.00
C67    C     0.50631   0.70839   0.00997   0.00000  Uiso   1.00
C68    C     0.45792   0.73753   0.02171   0.00000  Uiso   1.00
C69    C     0.38150   0.68863   0.00072   0.00000  Uiso   1.00
H70    H     0.52117   0.55451   0.94608   0.00000  Uiso   1.00
H71    H     0.60550   0.59431   0.77421   0.00000  Uiso   1.00
H72    H     0.56834   0.52233   0.12232   0.00000  Uiso   1.00
H73    H     0.38212   0.52581   0.93294   0.00000  Uiso   1.00
H74    H     0.71092   0.67165   0.59761   0.00000  Uiso   1.00
H75    H     0.63254   0.51987   0.33164   0.00000  Uiso   1.00
H76    H     0.23985   0.52721   0.93230   0.00000  Uiso   1.00
H77    H     0.61283   0.81048   0.05341   0.00000  Uiso   1.00
H78    H     0.70220   0.86433   0.88742   0.00000  Uiso   1.00
H79    H     0.66504   0.79235   0.23554   0.00000  Uiso   1.00
H80    H     0.47882   0.79583   0.04616   0.00000  Uiso   1.00
H81    H     0.78941   0.89081   0.68950   0.00000  Uiso   1.00
H82    H     0.71102   0.73903   0.42353   0.00000  Uiso   1.00
H83    H     0.31833   0.74636   0.02419   0.00000  Uiso   1.00
O84    O     0.80732   0.81203   0.53245   0.00000  Uiso   1.00
O85    O     0.70447   0.61290   0.49547   0.00000  Uiso   1.00
O86    O     0.18927   0.62253   0.97154   0.00000  Uiso   1.00
N87    N     0.71712   0.71584   0.64200   0.00000  Uiso   1.00
N88    N     0.64385   0.57394   0.32827   0.00000  Uiso   1.00
N89    N     0.27671   0.58079   0.95495   0.00000  Uiso   1.00
N90    N     0.75935   0.83377   0.69145   0.00000  Uiso   1.00
N91    N     0.68608   0.69187   0.37771   0.00000  Uiso   1.00
N92    N     0.31894   0.69872   0.00439   0.00000  Uiso   1.00
C93    C     0.38684   0.92901   0.30400   0.00000  Uiso   1.00
C94    C     0.32972   0.93042   0.22549   0.00000  Uiso   1.00
C95    C     0.34739   0.97378   0.13195   0.00000  Uiso   1.00
C96    C     0.28699   0.96707   0.07104   0.00000  Uiso   1.00
C97    C     0.20976   0.97664   0.94437   0.00000  Uiso   1.00
C98    C     0.36883   0.94935   0.41463   0.00000  Uiso   1.00
C99    C     0.41938   0.00861   0.48012   0.00000  Uiso   1.00
C100   C     0.39190   0.01782   0.57842   0.00000  Uiso   1.00
C101   C     0.37539   0.05674   0.74542   0.00000  Uiso   1.00
C102   C     0.36694   0.84628   0.31172   0.00000  Uiso   1.00
C103   C     0.41590   0.81887   0.29072   0.00000  Uiso   1.00
C104   C     0.38683   0.74131   0.30241   0.00000  Uiso   1.00
C105   C     0.36739   0.62020   0.30963   0.00000  Uiso   1.00
C106   C     0.24816   0.84000   0.36215   0.00000  Uiso   1.00
C107   C     0.25440   0.88207   0.25708   0.00000  Uiso   1.00
C108   C     0.19396   0.87529   0.19629   0.00000  Uiso   1.00
C109   C     0.21153   0.91863   0.10267   0.00000  Uiso   1.00
C110   C     0.29351   0.90100   0.44622   0.00000  Uiso   1.00
C111   C     0.26595   0.91012   0.54445   0.00000  Uiso   1.00
C112   C     0.31644   0.96939   0.61007   0.00000  Uiso   1.00
C113   C     0.29161   0.79792   0.34331   0.00000  Uiso   1.00
C114   C     0.26247   0.72039   0.35505   0.00000  Uiso   1.00
C115   C     0.31137   0.69287   0.33405   0.00000  Uiso   1.00
H116   H     0.44549   0.96666   0.27941   0.00000  Uiso   1.00
H117   H     0.40569   0.01119   0.10754   0.00000  Uiso   1.00
H118   H     0.47767   0.04601   0.45566   0.00000  Uiso   1.00
H119   H     0.47419   0.85631   0.26628   0.00000  Uiso   1.00
H120   H     0.32835   0.03927   0.93094   0.00000  Uiso   1.00
H121   H     0.48013   0.11267   0.66497   0.00000  Uiso   1.00
H122   H     0.47279   0.71264   0.26563   0.00000  Uiso   1.00
H123   H     0.18952   0.80235   0.38674   0.00000  Uiso   1.00
H124   H     0.13567   0.83787   0.22075   0.00000  Uiso   1.00
H125   H     0.20765   0.87269   0.56887   0.00000  Uiso   1.00
H126   H     0.20417   0.68299   0.37949   0.00000  Uiso   1.00
H127   H     0.10919   0.89860   0.02283   0.00000  Uiso   1.00
H128   H     0.26097   0.97200   0.75687   0.00000  Uiso   1.00
H129   H     0.25364   0.57197   0.35752   0.00000  Uiso   1.00
O130   O     0.18797   0.99528   0.86578   0.00000  Uiso   1.00
O131   O     0.38710   0.09157   0.82880   0.00000  Uiso   1.00
O132   O     0.37747   0.56675   0.30488   0.00000  Uiso   1.00
N133   N     0.28416   0.00127   0.97534   0.00000  Uiso   1.00
N134   N     0.42606   0.06991   0.66160   0.00000  Uiso   1.00
N135   N     0.41921   0.69592   0.28828   0.00000  Uiso   1.00
N136   N     0.16623   0.92558   0.02478   0.00000  Uiso   1.00
N137   N     0.30813   0.99421   0.71105   0.00000  Uiso   1.00
N138   N     0.30128   0.62022   0.33773   0.00000  Uiso   1.00
C139   C     0.92901   0.54217   0.63733   0.00000  Uiso   1.00
C140   C     0.93042   0.60070   0.55883   0.00000  Uiso   1.00
C141   C     0.97378   0.62639   0.46529   0.00000  Uiso   1.00
C142   C     0.96707   0.68008   0.40437   0.00000  Uiso   1.00
C143   C     0.97664   0.76688   0.27770   0.00000  Uiso   1.00
C144   C     0.94935   0.58052   0.74796   0.00000  Uiso   1.00
C145   C     0.00861   0.58923   0.81345   0.00000  Uiso   1.00
C146   C     0.01782   0.62593   0.91175   0.00000  Uiso   1.00
C147   C     0.05674   0.68135   0.07876   0.00000  Uiso   1.00
C148   C     0.84628   0.47934   0.64506   0.00000  Uiso   1.00
C149   C     0.81887   0.40297   0.62405   0.00000  Uiso   1.00
C150   C     0.74131   0.35448   0.63574   0.00000  Uiso   1.00
C151   C     0.62020   0.25280   0.64296   0.00000  Uiso   1.00
C152   C     0.84000   0.59183   0.69548   0.00000  Uiso   1.00
C153   C     0.88207   0.62767   0.59042   0.00000  Uiso   1.00
C154   C     0.87529   0.68134   0.52962   0.00000  Uiso   1.00
C155   C     0.91863   0.70710   0.43601   0.00000  Uiso   1.00
C156   C     0.90100   0.60749   0.77955   0.00000  Uiso   1.00
C157   C     0.91012   0.64418   0.87779   0.00000  Uiso   1.00
C158   C     0.96939   0.65295   0.94340   0.00000  Uiso   1.00
C159   C     0.79792   0.50631   0.67664   0.00000  Uiso   1.00
C160   C     0.72039   0.45792   0.68838   0.00000  Uiso   1.00
C161   C     0.69287   0.38150   0.66739   0.00000  Uiso   1.00
H162   H     0.96666   0.52117   0.61275   0.00000  Uiso   1.00
H163   H     0.01119   0.60550   0.44088   0.00000  Uiso   1.00
H164   H     0.04601   0.56834   0.78899   0.00000  Uiso   1.00
H165   H     0.85631   0.38212   0.59961   0.00000  Uiso   1.00
H166   H     0.03927   0.71092   0.26428   0.00000  Uiso   1.00
H167   H     0.11267   0.63254   0.99831   0.00000  Uiso   1.00
H168   H     0.71264   0.23985   0.59897   0.00000  Uiso   1.00
H169   H     0.80235   0.61283   0.72008   0.00000  Uiso   1.00
H170   H     0.83787   0.70220   0.55409   0.00000  Uiso   1.00
H171   H     0.87269   0.66504   0.90220   0.00000  Uiso   1.00
H172   H     0.68299   0.47882   0.71282   0.00000  Uiso   1.00
H173   H     0.89860   0.78941   0.35617   0.00000  Uiso   1.00
H174   H     0.97200   0.71102   0.09020   0.00000  Uiso   1.00
H175   H     0.57197   0.31833   0.69086   0.00000  Uiso   1.00
O176   O     0.99528   0.80732   0.19911   0.00000  Uiso   1.00
O177   O     0.09157   0.70447   0.16214   0.00000  Uiso   1.00
O178   O     0.56675   0.18927   0.63821   0.00000  Uiso   1.00
N179   N     0.00127   0.71712   0.30867   0.00000  Uiso   1.00
N180   N     0.06991   0.64385   0.99494   0.00000  Uiso   1.00
N181   N     0.69592   0.27671   0.62162   0.00000  Uiso   1.00
N182   N     0.92558   0.75935   0.35811   0.00000  Uiso   1.00
N183   N     0.99421   0.68608   0.04438   0.00000  Uiso   1.00
N184   N     0.62022   0.31894   0.67106   0.00000  Uiso   1.00
C185   C     0.45783   0.38684   0.97066   0.00000  Uiso   1.00
C186   C     0.39930   0.32972   0.89216   0.00000  Uiso   1.00
C187   C     0.37361   0.34739   0.79862   0.00000  Uiso   1.00
C188   C     0.31992   0.28699   0.73770   0.00000  Uiso   1.00
C189   C     0.23312   0.20976   0.61103   0.00000  Uiso   1.00
C190   C     0.41948   0.36883   0.08130   0.00000  Uiso   1.00
C191   C     0.41077   0.41938   0.14678   0.00000  Uiso   1.00
C192   C     0.37407   0.39190   0.24509   0.00000  Uiso   1.00
C193   C     0.31865   0.37539   0.41209   0.00000  Uiso   1.00
C194   C     0.52066   0.36694   0.97839   0.00000  Uiso   1.00
C195   C     0.59703   0.41590   0.95738   0.00000  Uiso   1.00
C196   C     0.64552   0.38683   0.96907   0.00000  Uiso   1.00
C197   C     0.74720   0.36739   0.97630   0.00000  Uiso   1.00
C198   C     0.40817   0.24816   0.02882   0.00000  Uiso   1.00
C199   C     0.37233   0.25440   0.92375   0.00000  Uiso   1.00
C200   C     0.31866   0.19396   0.86296   0.00000  Uiso   1.00
C201   C     0.29290   0.21153   0.76934   0.00000  Uiso   1.00
C202   C     0.39251   0.29351   0.11288   0.00000  Uiso   1.00
C203   C     0.35582   0.26595   0.21112   0.00000  Uiso   1.00
C204   C     0.34705   0.31644   0.27673   0.00000  Uiso   1.00
C205   C     0.49369   0.29161   0.00997   0.00000  Uiso   1.00
C206   C     0.54208   0.26247   0.02171   0.00000  Uiso   1.00
C207   C     0.61850   0.31137   0.00072   0.00000  Uiso   1.00
H208   H     0.47883   0.44549   0.94608   0.00000  Uiso   1.00
H209   H     0.39450   0.40569   0.77421   0.00000  Uiso   1.00
H210   H     0.43166   0.47767   0.12232   0.00000  Uiso   1.00
H211   H     0.61788   0.47419   0.93294   0.00000  Uiso   1.00
H212   H     0.28908   0.32835   0.59761   0.00000  Uiso   1.00
H213   H     0.36746   0.48013   0.33164   0.00000  Uiso   1.00
H214   H     0.76015   0.47279   0.93230   0.00000  Uiso   1.00
H215   H     0.38717   0.18952   0.05341   0.00000  Uiso   1.00
H216   H     0.29780   0.13567   0.88742   0.00000  Uiso   1.00
H217   H     0.33496   0.20765   0.23554   0.00000  Uiso   1.00
H218   H     0.52118   0.20417   0.04616   0.00000  Uiso   1.00
H219   H     0.21059   0.10919   0.68950   0.00000  Uiso   1.00
H220   H     0.28898   0.26097   0.42353   0.00000  Uiso   1.00
H221   H     0.68167   0.25364   0.02419   0.00000  Uiso   1.00
O222   O     0.19268   0.18797   0.53245   0.00000  Uiso   1.00
O223   O     0.29553   0.38710   0.49547   0.00000  Uiso   1.00
O224   O     0.81073   0.37747   0.97154   0.00000  Uiso   1.00
N225   N     0.28288   0.28416   0.64200   0.00000  Uiso   1.00
N226   N     0.35615   0.42606   0.32827   0.00000  Uiso   1.00
N227   N     0.72329   0.41921   0.95495   0.00000  Uiso   1.00
N228   N     0.24065   0.16623   0.69145   0.00000  Uiso   1.00
N229   N     0.31392   0.30813   0.37771   0.00000  Uiso   1.00
N230   N     0.68106   0.30128   0.00439   0.00000  Uiso   1.00
C231   C     0.61316   0.07099   0.30400   0.00000  Uiso   1.00
C232   C     0.67028   0.06958   0.22549   0.00000  Uiso   1.00
C233   C     0.65261   0.02622   0.13195   0.00000  Uiso   1.00
C234   C     0.71301   0.03293   0.07104   0.00000  Uiso   1.00
C235   C     0.79024   0.02336   0.94437   0.00000  Uiso   1.00
C236   C     0.63117   0.05065   0.41463   0.00000  Uiso   1.00
C237   C     0.58062   0.99139   0.48012   0.00000  Uiso   1.00
C238   C     0.60810   0.98218   0.57842   0.00000  Uiso   1.00
C239   C     0.62461   0.94326   0.74542   0.00000  Uiso   1.00
C240   C     0.63306   0.15372   0.31172   0.00000  Uiso   1.00
C241   C     0.58410   0.18113   0.29072   0.00000  Uiso   1.00
C242   C     0.61317   0.25869   0.30241   0.00000  Uiso   1.00
C243   C     0.63261   0.37980   0.30963   0.00000  Uiso   1.00
C244   C     0.75184   0.16000   0.36215   0.00000  Uiso   1.00
C245   C     0.74560   0.11793   0.25708   0.00000  Uiso   1.00
C246   C     0.80604   0.12471   0.19629   0.00000  Uiso   1.00
C247   C     0.78847   0.08137   0.10267   0.00000  Uiso   1.00
C248   C     0.70649   0.09900   0.44622   0.00000  Uiso   1.00
C249   C     0.73405   0.08988   0.54445   0.00000  Uiso   1.00
C250   C     0.68356   0.03061   0.61007   0.00000  Uiso   1.00
C251   C     0.70839   0.20208   0.34331   0.00000  Uiso   1.00
C252   C     0.73753   0.27961   0.35505   0.00000  Uiso   1.00
C253   C     0.68863   0.30713   0.33405   0.00000  Uiso   1.00
H254   H     0.55451   0.03334   0.27941   0.00000  Uiso   1.00
H255   H     0.59431   0.98881   0.10754   0.00000  Uiso   1.00
H256   H     0.52233   0.95399   0.45566   0.00000  Uiso   1.00
H257   H     0.52581   0.14369   0.26628   0.00000  Uiso   1.00
H258   H     0.67165   0.96073   0.93094   0.00000  Uiso   1.00
H259   H     0.51987   0.88733   0.66497   0.00000  Uiso   1.00
H260   H     0.52721   0.28736   0.26563   0.00000  Uiso   1.00
H261   H     0.81048   0.19765   0.38674   0.00000  Uiso   1.00
H262   H     0.86433   0.16213   0.22075   0.00000  Uiso   1.00
H263   H     0.79235   0.12731   0.56887   0.00000  Uiso   1.00
H264   H     0.79583   0.31701   0.37949   0.00000  Uiso   1.00
H265   H     0.89081   0.10140   0.02283   0.00000  Uiso   1.00
H266   H     0.73903   0.02800   0.75687   0.00000  Uiso   1.00
H267   H     0.74636   0.42803   0.35752   0.00000  Uiso   1.00
O268   O     0.81203   0.00472   0.86578   0.00000  Uiso   1.00
O269   O     0.61290   0.90843   0.82880   0.00000  Uiso   1.00
O270   O     0.62253   0.43325   0.30488   0.00000  Uiso   1.00
N271   N     0.71584   0.99873   0.97534   0.00000  Uiso   1.00
N272   N     0.57394   0.93009   0.66160   0.00000  Uiso   1.00
N273   N     0.58079   0.30408   0.28828   0.00000  Uiso   1.00
N274   N     0.83377   0.07442   0.02478   0.00000  Uiso   1.00
N275   N     0.69187   0.00579   0.71105   0.00000  Uiso   1.00
N276   N     0.69872   0.37978   0.33773   0.00000  Uiso   1.00
