data_job_06108
_audit_creation_date              2018-12-19
_audit_creation_method            'Materials Studio'
_symmetry_space_group_name_H-M    'P1'
_symmetry_Int_Tables_number       1
_symmetry_cell_setting            triclinic
loop_
_symmetry_equiv_pos_as_xyz
  x,y,z
_cell_length_a                    15.8811
_cell_length_b                    15.3052
_cell_length_c                    15.0893
_cell_angle_alpha                 98.7003
_cell_angle_beta                  98.1488
_cell_angle_gamma                 98.5650
loop_
_atom_site_label
_atom_site_type_symbol
_atom_site_fract_x
_atom_site_fract_y
_atom_site_fract_z
_atom_site_U_iso_or_equiv
_atom_site_adp_type
_atom_site_occupancy
C1     C     0.72334   0.13838   0.03638   0.00000  Uiso   1.00
C2     C     0.68638   0.18096   0.95780   0.00000  Uiso   1.00
C3     C     0.67355   0.14336   0.86625   0.00000  Uiso   1.00
C4     C     0.63903   0.19297   0.80487   0.00000  Uiso   1.00
C5     C     0.58486   0.24630   0.67841   0.00000  Uiso   1.00
C6     C     0.80120   0.20607   0.08912   0.00000  Uiso   1.00
C7     C     0.88490   0.18957   0.10798   0.00000  Uiso   1.00
C8     C     0.94704   0.26032   0.15715   0.00000  Uiso   1.00
C9     C     0.07112   0.35260   0.23461   0.00000  Uiso   1.00
C10    C     0.65607   0.13433   0.09910   0.00000  Uiso   1.00
C11    C     0.61776   0.05751   0.12638   0.00000  Uiso   1.00
C12    C     0.55772   0.06786   0.18398   0.00000  Uiso   1.00
C13    C     0.45647   0.04876   0.27694   0.00000  Uiso   1.00
C14    C     0.68486   0.29335   0.09019   0.00000  Uiso   1.00
C15    C     0.66548   0.26513   0.98703   0.00000  Uiso   1.00
C16    C     0.63097   0.31481   0.92577   0.00000  Uiso   1.00
C17    C     0.61808   0.27729   0.83415   0.00000  Uiso   1.00
C18    C     0.78030   0.29024   0.11834   0.00000  Uiso   1.00
C19    C     0.84232   0.36102   0.16750   0.00000  Uiso   1.00
C20    C     0.92610   0.34464   0.18643   0.00000  Uiso   1.00
C21    C     0.63517   0.21850   0.12832   0.00000  Uiso   1.00
C22    C     0.57518   0.22897   0.18590   0.00000  Uiso   1.00
C23    C     0.53678   0.15218   0.21325   0.00000  Uiso   1.00
H24    H     0.73962   0.07286   0.01364   0.00000  Uiso   1.00
H25    H     0.68974   0.07822   0.84366   0.00000  Uiso   1.00
H26    H     0.90106   0.12443   0.08536   0.00000  Uiso   1.00
H27    H     0.63395   0.99239   0.10375   0.00000  Uiso   1.00
H28    H     0.62525   0.12131   0.66810   0.00000  Uiso   1.00
H29    H     0.07082   0.21872   0.17776   0.00000  Uiso   1.00
H30    H     0.50758   0.94029   0.21655   0.00000  Uiso   1.00
H31    H     0.66858   0.35888   0.11294   0.00000  Uiso   1.00
H32    H     0.61480   0.37994   0.94841   0.00000  Uiso   1.00
H33    H     0.82612   0.42615   0.19011   0.00000  Uiso   1.00
H34    H     0.55902   0.29411   0.20850   0.00000  Uiso   1.00
H35    H     0.56443   0.36620   0.75311   0.00000  Uiso   1.00
H36    H     0.01000   0.46361   0.26278   0.00000  Uiso   1.00
H37    H     0.44677   0.18518   0.30156   0.00000  Uiso   1.00
O38    O     0.56077   0.25246   0.60058   0.00000  Uiso   1.00
O39    O     0.14534   0.38025   0.26925   0.00000  Uiso   1.00
O40    O     0.40638   0.01497   0.32013   0.00000  Uiso   1.00
N41    N     0.61830   0.17605   0.71069   0.00000  Uiso   1.00
N42    N     0.03489   0.26712   0.18718   0.00000  Uiso   1.00
N43    N     0.50833   0.00682   0.22346   0.00000  Uiso   1.00
N44    N     0.58557   0.30782   0.75643   0.00000  Uiso   1.00
N45    N     0.00216   0.39889   0.23293   0.00000  Uiso   1.00
N46    N     0.47560   0.13859   0.26921   0.00000  Uiso   1.00
C47    C     0.04343   0.72727   0.14188   0.00000  Uiso   1.00
C48    C     0.96856   0.68950   0.18594   0.00000  Uiso   1.00
C49    C     0.88159   0.67711   0.14903   0.00000  Uiso   1.00
C50    C     0.82306   0.64170   0.19999   0.00000  Uiso   1.00
C51    C     0.70261   0.58647   0.25551   0.00000  Uiso   1.00
C52    C     0.09478   0.80770   0.21036   0.00000  Uiso   1.00
C53    C     0.11394   0.89468   0.19398   0.00000  Uiso   1.00
C54    C     0.16168   0.95877   0.26550   0.00000  Uiso   1.00
C55    C     0.23724   0.08704   0.35892   0.00000  Uiso   1.00
C56    C     0.10171   0.65662   0.13636   0.00000  Uiso   1.00
C57    C     0.12671   0.61659   0.05775   0.00000  Uiso   1.00
C58    C     0.18030   0.55350   0.06696   0.00000  Uiso   1.00
C59    C     0.26662   0.44719   0.04548   0.00000  Uiso   1.00
C60    C     0.09415   0.68642   0.29802   0.00000  Uiso   1.00
C61    C     0.99611   0.66732   0.27075   0.00000  Uiso   1.00
C62    C     0.93770   0.63192   0.32177   0.00000  Uiso   1.00
C63    C     0.85065   0.61947   0.28494   0.00000  Uiso   1.00
C64    C     0.12233   0.78552   0.29517   0.00000  Uiso   1.00
C65    C     0.17005   0.84949   0.36672   0.00000  Uiso   1.00
C66    C     0.18928   0.93655   0.35046   0.00000  Uiso   1.00
C67    C     0.12926   0.63444   0.22116   0.00000  Uiso   1.00
C68    C     0.18282   0.57140   0.23050   0.00000  Uiso   1.00
C69    C     0.20790   0.53127   0.15192   0.00000  Uiso   1.00
H70    H     0.02199   0.74455   0.07586   0.00000  Uiso   1.00
H71    H     0.86029   0.69429   0.08340   0.00000  Uiso   1.00
H72    H     0.09262   0.91183   0.12834   0.00000  Uiso   1.00
H73    H     0.10539   0.63378   0.99214   0.00000  Uiso   1.00
H74    H     0.69317   0.62882   0.12917   0.00000  Uiso   1.00
H75    H     0.18307   0.08750   0.22393   0.00000  Uiso   1.00
H76    H     0.20999   0.50118   0.93671   0.00000  Uiso   1.00
H77    H     0.11560   0.66915   0.36405   0.00000  Uiso   1.00
H78    H     0.95903   0.61476   0.38740   0.00000  Uiso   1.00
H79    H     0.19136   0.83230   0.43234   0.00000  Uiso   1.00
H80    H     0.20412   0.55425   0.29613   0.00000  Uiso   1.00
H81    H     0.77331   0.56427   0.37591   0.00000  Uiso   1.00
H82    H     0.26322   0.02296   0.47066   0.00000  Uiso   1.00
H83    H     0.29013   0.43663   0.18345   0.00000  Uiso   1.00
O84    O     0.62856   0.56215   0.26272   0.00000  Uiso   1.00
O85    O     0.27131   0.16392   0.38702   0.00000  Uiso   1.00
O86    O     0.30661   0.39468   0.01020   0.00000  Uiso   1.00
N87    N     0.73352   0.62108   0.18403   0.00000  Uiso   1.00
N88    N     0.19154   0.04992   0.27262   0.00000  Uiso   1.00
N89    N     0.21672   0.50178   0.00410   0.00000  Uiso   1.00
N90    N     0.77664   0.58634   0.31680   0.00000  Uiso   1.00
N91    N     0.23466   0.01519   0.40539   0.00000  Uiso   1.00
N92    N     0.25984   0.46704   0.13687   0.00000  Uiso   1.00
C93    C     0.13498   0.03837   0.72634   0.00000  Uiso   1.00
C94    C     0.17538   0.96005   0.68683   0.00000  Uiso   1.00
C95    C     0.13901   0.86988   0.67414   0.00000  Uiso   1.00
C96    C     0.18621   0.80850   0.63704   0.00000  Uiso   1.00
C97    C     0.23669   0.68264   0.57931   0.00000  Uiso   1.00
C98    C     0.20085   0.09102   0.80732   0.00000  Uiso   1.00
C99    C     0.18587   0.11100   0.89594   0.00000  Uiso   1.00
C100   C     0.25451   0.15988   0.96027   0.00000  Uiso   1.00
C101   C     0.34450   0.23743   0.08960   0.00000  Uiso   1.00
C102   C     0.13050   0.09921   0.65519   0.00000  Uiso   1.00
C103   C     0.05639   0.12609   0.61590   0.00000  Uiso   1.00
C104   C     0.06581   0.18188   0.55216   0.00000  Uiso   1.00
C105   C     0.04658   0.27213   0.44528   0.00000  Uiso   1.00
C106   C     0.28350   0.08969   0.68302   0.00000  Uiso   1.00
C107   C     0.25605   0.98792   0.66330   0.00000  Uiso   1.00
C108   C     0.30332   0.92666   0.62621   0.00000  Uiso   1.00
C109   C     0.26702   0.83642   0.61346   0.00000  Uiso   1.00
C110   C     0.28151   0.11890   0.78380   0.00000  Uiso   1.00
C111   C     0.35019   0.16777   0.84801   0.00000  Uiso   1.00
C112   C     0.33533   0.18781   0.93670   0.00000  Uiso   1.00
C113   C     0.21117   0.12708   0.63166   0.00000  Uiso   1.00
C114   C     0.22070   0.18286   0.56797   0.00000  Uiso   1.00
C115   C     0.14662   0.20981   0.52860   0.00000  Uiso   1.00
H116   H     0.07218   0.01667   0.74466   0.00000  Uiso   1.00
H117   H     0.07658   0.84834   0.69236   0.00000  Uiso   1.00
H118   H     0.12344   0.08942   0.91412   0.00000  Uiso   1.00
H119   H     0.99398   0.10450   0.63413   0.00000  Uiso   1.00
H120   H     0.11705   0.67400   0.62403   0.00000  Uiso   1.00
H121   H     0.21584   0.18236   0.09163   0.00000  Uiso   1.00
H122   H     0.94284   0.21416   0.50120   0.00000  Uiso   1.00
H123   H     0.34630   0.11139   0.66470   0.00000  Uiso   1.00
H124   H     0.36575   0.94825   0.60801   0.00000  Uiso   1.00
H125   H     0.41260   0.18934   0.82978   0.00000  Uiso   1.00
H126   H     0.28314   0.20442   0.54978   0.00000  Uiso   1.00
H127   H     0.35175   0.75510   0.55557   0.00000  Uiso   1.00
H128   H     0.45053   0.26346   0.02317   0.00000  Uiso   1.00
H129   H     0.17754   0.29526   0.43274   0.00000  Uiso   1.00
O130   O     0.24226   0.60552   0.55398   0.00000  Uiso   1.00
O131   O     0.37185   0.27249   0.16744   0.00000  Uiso   1.00
O132   O     0.01369   0.31420   0.39282   0.00000  Uiso   1.00
N133   N     0.16961   0.71548   0.61568   0.00000  Uiso   1.00
N134   N     0.26198   0.19075   0.05286   0.00000  Uiso   1.00
N135   N     0.00675   0.22050   0.50088   0.00000  Uiso   1.00
N136   N     0.29590   0.75911   0.57884   0.00000  Uiso   1.00
N137   N     0.38826   0.23439   0.01602   0.00000  Uiso   1.00
N138   N     0.13304   0.26414   0.46404   0.00000  Uiso   1.00
C139   C     0.27666   0.86161   0.96362   0.00000  Uiso   1.00
C140   C     0.31362   0.81904   0.04220   0.00000  Uiso   1.00
C141   C     0.32645   0.85664   0.13375   0.00000  Uiso   1.00
C142   C     0.36097   0.80703   0.19513   0.00000  Uiso   1.00
C143   C     0.41514   0.75370   0.32159   0.00000  Uiso   1.00
C144   C     0.19880   0.79393   0.91088   0.00000  Uiso   1.00
C145   C     0.11510   0.81043   0.89202   0.00000  Uiso   1.00
C146   C     0.05296   0.73968   0.84285   0.00000  Uiso   1.00
C147   C     0.92888   0.64740   0.76539   0.00000  Uiso   1.00
C148   C     0.34393   0.86567   0.90090   0.00000  Uiso   1.00
C149   C     0.38224   0.94249   0.87362   0.00000  Uiso   1.00
C150   C     0.44228   0.93214   0.81602   0.00000  Uiso   1.00
C151   C     0.54353   0.95124   0.72306   0.00000  Uiso   1.00
C152   C     0.31514   0.70665   0.90981   0.00000  Uiso   1.00
C153   C     0.33452   0.73487   0.01297   0.00000  Uiso   1.00
C154   C     0.36903   0.68519   0.07423   0.00000  Uiso   1.00
C155   C     0.38192   0.72271   0.16585   0.00000  Uiso   1.00
C156   C     0.21970   0.70976   0.88166   0.00000  Uiso   1.00
C157   C     0.15768   0.63898   0.83250   0.00000  Uiso   1.00
C158   C     0.07390   0.65536   0.81357   0.00000  Uiso   1.00
C159   C     0.36483   0.78150   0.87168   0.00000  Uiso   1.00
C160   C     0.42482   0.77103   0.81410   0.00000  Uiso   1.00
C161   C     0.46322   0.84781   0.78675   0.00000  Uiso   1.00
H162   H     0.26038   0.92714   0.98636   0.00000  Uiso   1.00
H163   H     0.31026   0.92177   0.15634   0.00000  Uiso   1.00
H164   H     0.09894   0.87557   0.91464   0.00000  Uiso   1.00
H165   H     0.36605   0.00761   0.89625   0.00000  Uiso   1.00
H166   H     0.37475   0.87869   0.33190   0.00000  Uiso   1.00
H167   H     0.92918   0.78128   0.82224   0.00000  Uiso   1.00
H168   H     0.49242   0.05971   0.78345   0.00000  Uiso   1.00
H169   H     0.33142   0.64112   0.88706   0.00000  Uiso   1.00
H170   H     0.38520   0.62005   0.05159   0.00000  Uiso   1.00
H171   H     0.17388   0.57385   0.80989   0.00000  Uiso   1.00
H172   H     0.44098   0.70589   0.79150   0.00000  Uiso   1.00
H173   H     0.43557   0.63380   0.24689   0.00000  Uiso   1.00
H174   H     0.98999   0.53639   0.73722   0.00000  Uiso   1.00
H175   H     0.55323   0.81482   0.69844   0.00000  Uiso   1.00
O176   O     0.43923   0.74754   0.39942   0.00000  Uiso   1.00
O177   O     0.85466   0.61975   0.73075   0.00000  Uiso   1.00
O178   O     0.59362   0.98503   0.67987   0.00000  Uiso   1.00
N179   N     0.38170   0.82395   0.28931   0.00000  Uiso   1.00
N180   N     0.96511   0.73288   0.81282   0.00000  Uiso   1.00
N181   N     0.49167   0.99318   0.77654   0.00000  Uiso   1.00
N182   N     0.41443   0.69218   0.24357   0.00000  Uiso   1.00
N183   N     0.99784   0.60111   0.76707   0.00000  Uiso   1.00
N184   N     0.52440   0.86141   0.73079   0.00000  Uiso   1.00
C185   C     0.95657   0.27273   0.85812   0.00000  Uiso   1.00
C186   C     0.03144   0.31050   0.81406   0.00000  Uiso   1.00
C187   C     0.11841   0.32289   0.85097   0.00000  Uiso   1.00
C188   C     0.17694   0.35830   0.80001   0.00000  Uiso   1.00
C189   C     0.29739   0.41353   0.74449   0.00000  Uiso   1.00
C190   C     0.90522   0.19230   0.78964   0.00000  Uiso   1.00
C191   C     0.88606   0.10532   0.80602   0.00000  Uiso   1.00
C192   C     0.83832   0.04123   0.73450   0.00000  Uiso   1.00
C193   C     0.76275   0.91296   0.64108   0.00000  Uiso   1.00
C194   C     0.89829   0.34338   0.86365   0.00000  Uiso   1.00
C195   C     0.87328   0.38341   0.94225   0.00000  Uiso   1.00
C196   C     0.81970   0.44650   0.93304   0.00000  Uiso   1.00
C197   C     0.73338   0.55281   0.95452   0.00000  Uiso   1.00
C198   C     0.90585   0.31358   0.70198   0.00000  Uiso   1.00
C199   C     0.00389   0.33268   0.72925   0.00000  Uiso   1.00
C200   C     0.06230   0.36808   0.67823   0.00000  Uiso   1.00
C201   C     0.14935   0.38053   0.71506   0.00000  Uiso   1.00
C202   C     0.87767   0.21448   0.70483   0.00000  Uiso   1.00
C203   C     0.82995   0.15051   0.63328   0.00000  Uiso   1.00
C204   C     0.81072   0.06345   0.64954   0.00000  Uiso   1.00
C205   C     0.87074   0.36556   0.77884   0.00000  Uiso   1.00
C206   C     0.81718   0.42860   0.76950   0.00000  Uiso   1.00
C207   C     0.79210   0.46872   0.84808   0.00000  Uiso   1.00
H208   H     0.97801   0.25545   0.92414   0.00000  Uiso   1.00
H209   H     0.13971   0.30571   0.91660   0.00000  Uiso   1.00
H210   H     0.90738   0.08817   0.87166   0.00000  Uiso   1.00
H211   H     0.89461   0.36622   0.00786   0.00000  Uiso   1.00
H212   H     0.30683   0.37118   0.87083   0.00000  Uiso   1.00
H213   H     0.81693   0.91250   0.77607   0.00000  Uiso   1.00
H214   H     0.79001   0.49882   0.06329   0.00000  Uiso   1.00
H215   H     0.88440   0.33084   0.63595   0.00000  Uiso   1.00
H216   H     0.04097   0.38524   0.61260   0.00000  Uiso   1.00
H217   H     0.80864   0.16770   0.56766   0.00000  Uiso   1.00
H218   H     0.79587   0.44575   0.70387   0.00000  Uiso   1.00
H219   H     0.22669   0.43573   0.62409   0.00000  Uiso   1.00
H220   H     0.73678   0.97704   0.52934   0.00000  Uiso   1.00
H221   H     0.70987   0.56337   0.81655   0.00000  Uiso   1.00
O222   O     0.37144   0.43785   0.73728   0.00000  Uiso   1.00
O223   O     0.72869   0.83608   0.61298   0.00000  Uiso   1.00
O224   O     0.69339   0.60532   0.98980   0.00000  Uiso   1.00
N225   N     0.26648   0.37892   0.81597   0.00000  Uiso   1.00
N226   N     0.80846   0.95008   0.72738   0.00000  Uiso   1.00
N227   N     0.78328   0.49822   0.99590   0.00000  Uiso   1.00
N228   N     0.22336   0.41366   0.68320   0.00000  Uiso   1.00
N229   N     0.76534   0.98481   0.59461   0.00000  Uiso   1.00
N230   N     0.74016   0.53296   0.86313   0.00000  Uiso   1.00
C231   C     0.86502   0.96163   0.27366   0.00000  Uiso   1.00
C232   C     0.82462   0.03995   0.31318   0.00000  Uiso   1.00
C233   C     0.86099   0.13012   0.32586   0.00000  Uiso   1.00
C234   C     0.81379   0.19150   0.36296   0.00000  Uiso   1.00
C235   C     0.76331   0.31736   0.42069   0.00000  Uiso   1.00
C236   C     0.79915   0.90897   0.19268   0.00000  Uiso   1.00
C237   C     0.81413   0.88900   0.10406   0.00000  Uiso   1.00
C238   C     0.74549   0.84012   0.03973   0.00000  Uiso   1.00
C239   C     0.65550   0.76257   0.91040   0.00000  Uiso   1.00
C240   C     0.86950   0.90079   0.34481   0.00000  Uiso   1.00
C241   C     0.94361   0.87391   0.38410   0.00000  Uiso   1.00
C242   C     0.93419   0.81812   0.44784   0.00000  Uiso   1.00
C243   C     0.95342   0.72787   0.55472   0.00000  Uiso   1.00
C244   C     0.71650   0.91031   0.31698   0.00000  Uiso   1.00
C245   C     0.74395   0.01207   0.33670   0.00000  Uiso   1.00
C246   C     0.69668   0.07334   0.37379   0.00000  Uiso   1.00
C247   C     0.73298   0.16358   0.38654   0.00000  Uiso   1.00
C248   C     0.71849   0.88110   0.21620   0.00000  Uiso   1.00
C249   C     0.64981   0.83222   0.15199   0.00000  Uiso   1.00
C250   C     0.66467   0.81219   0.06330   0.00000  Uiso   1.00
C251   C     0.78883   0.87292   0.36835   0.00000  Uiso   1.00
C252   C     0.77930   0.81714   0.43203   0.00000  Uiso   1.00
C253   C     0.85338   0.79019   0.47140   0.00000  Uiso   1.00
H254   H     0.92782   0.98333   0.25534   0.00000  Uiso   1.00
H255   H     0.92342   0.15166   0.30764   0.00000  Uiso   1.00
H256   H     0.87656   0.91058   0.08588   0.00000  Uiso   1.00
H257   H     0.00602   0.89550   0.36587   0.00000  Uiso   1.00
H258   H     0.88295   0.32600   0.37597   0.00000  Uiso   1.00
H259   H     0.78416   0.81764   0.90837   0.00000  Uiso   1.00
H260   H     0.05716   0.78583   0.49880   0.00000  Uiso   1.00
H261   H     0.65370   0.88860   0.33530   0.00000  Uiso   1.00
H262   H     0.63425   0.05175   0.39199   0.00000  Uiso   1.00
H263   H     0.58740   0.81066   0.17022   0.00000  Uiso   1.00
H264   H     0.71686   0.79558   0.45022   0.00000  Uiso   1.00
H265   H     0.64825   0.24490   0.44443   0.00000  Uiso   1.00
H266   H     0.54947   0.73654   0.97683   0.00000  Uiso   1.00
H267   H     0.82246   0.70474   0.56726   0.00000  Uiso   1.00
O268   O     0.75774   0.39448   0.44602   0.00000  Uiso   1.00
O269   O     0.62814   0.72751   0.83256   0.00000  Uiso   1.00
O270   O     0.98631   0.68580   0.60718   0.00000  Uiso   1.00
N271   N     0.83039   0.28452   0.38432   0.00000  Uiso   1.00
N272   N     0.73802   0.80925   0.94714   0.00000  Uiso   1.00
N273   N     0.99325   0.77950   0.49912   0.00000  Uiso   1.00
N274   N     0.70410   0.24089   0.42116   0.00000  Uiso   1.00
N275   N     0.61174   0.76561   0.98398   0.00000  Uiso   1.00
N276   N     0.86696   0.73586   0.53596   0.00000  Uiso   1.00
