data_job_01366
_audit_creation_date              2018-12-19
_audit_creation_method            'Materials Studio'
_symmetry_space_group_name_H-M    'P1'
_symmetry_Int_Tables_number       1
_symmetry_cell_setting            triclinic
loop_
_symmetry_equiv_pos_as_xyz
  x,y,z
_cell_length_a                    41.5626
_cell_length_b                    7.9913
_cell_length_c                    19.8530
_cell_angle_alpha                 90.0000
_cell_angle_beta                  76.8130
_cell_angle_gamma                 90.0000
loop_
_atom_site_label
_atom_site_type_symbol
_atom_site_fract_x
_atom_site_fract_y
_atom_site_fract_z
_atom_site_U_iso_or_equiv
_atom_site_adp_type
_atom_site_occupancy
C1     C     0.57678   0.62915   0.68861   0.00000  Uiso   1.00
C2     C     0.61259   0.64952   0.64902   0.00000  Uiso   1.00
C3     C     0.63090   0.53218   0.60476   0.00000  Uiso   1.00
C4     C     0.66326   0.57453   0.57350   0.00000  Uiso   1.00
C5     C     0.71681   0.58268   0.51014   0.00000  Uiso   1.00
C6     C     0.57676   0.65490   0.76473   0.00000  Uiso   1.00
C7     C     0.56494   0.54208   0.81775   0.00000  Uiso   1.00
C8     C     0.56714   0.58897   0.88389   0.00000  Uiso   1.00
C9     C     0.56504   0.60552   0.00018   0.00000  Uiso   1.00
C10    C     0.55806   0.77756   0.66798   0.00000  Uiso   1.00
C11    C     0.53052   0.76789   0.63967   0.00000  Uiso   1.00
C12    C     0.51696   0.91806   0.62438   0.00000  Uiso   1.00
C13    C     0.48583   0.12506   0.59045   0.00000  Uiso   1.00
C14    C     0.60168   0.91305   0.71181   0.00000  Uiso   1.00
C15    C     0.62611   0.80373   0.66163   0.00000  Uiso   1.00
C16    C     0.65845   0.84627   0.63042   0.00000  Uiso   1.00
C17    C     0.67681   0.72901   0.58612   0.00000  Uiso   1.00
C18    C     0.59028   0.80910   0.77733   0.00000  Uiso   1.00
C19    C     0.59249   0.85617   0.84341   0.00000  Uiso   1.00
C20    C     0.58069   0.74345   0.89652   0.00000  Uiso   1.00
C21    C     0.57158   0.93177   0.68058   0.00000  Uiso   1.00
C22    C     0.55807   0.08198   0.66534   0.00000  Uiso   1.00
C23    C     0.53051   0.07254   0.63700   0.00000  Uiso   1.00
H24    H     0.56625   0.50910   0.67881   0.00000  Uiso   1.00
H25    H     0.62043   0.41285   0.59503   0.00000  Uiso   1.00
H26    H     0.55448   0.42276   0.80798   0.00000  Uiso   1.00
H27    H     0.52006   0.64854   0.62993   0.00000  Uiso   1.00
H28    H     0.68646   0.37412   0.50772   0.00000  Uiso   1.00
H29    H     0.54739   0.39504   0.95675   0.00000  Uiso   1.00
H30    H     0.47480   0.87113   0.58130   0.00000  Uiso   1.00
H31    H     0.61221   0.03310   0.72162   0.00000  Uiso   1.00
H32    H     0.66891   0.96561   0.64018   0.00000  Uiso   1.00
H33    H     0.60296   0.97552   0.85314   0.00000  Uiso   1.00
H34    H     0.56854   0.20129   0.67509   0.00000  Uiso   1.00
H35    H     0.72581   0.82276   0.54437   0.00000  Uiso   1.00
H36    H     0.58674   0.84368   0.99341   0.00000  Uiso   1.00
H37    H     0.51416   0.31977   0.61795   0.00000  Uiso   1.00
O38    O     0.74261   0.54456   0.47172   0.00000  Uiso   1.00
O39    O     0.56015   0.57203   0.06083   0.00000  Uiso   1.00
O40    O     0.46492   0.19664   0.56825   0.00000  Uiso   1.00
N41    N     0.68794   0.48898   0.52751   0.00000  Uiso   1.00
N42    N     0.55792   0.50853   0.94733   0.00000  Uiso   1.00
N43    N     0.49005   0.95363   0.59633   0.00000  Uiso   1.00
N44    N     0.70911   0.73039   0.54723   0.00000  Uiso   1.00
N45    N     0.57909   0.74994   0.96705   0.00000  Uiso   1.00
N46    N     0.51123   0.19504   0.61605   0.00000  Uiso   1.00
C47    C     0.07678   0.12915   0.68861   0.00000  Uiso   1.00
C48    C     0.11259   0.14952   0.64902   0.00000  Uiso   1.00
C49    C     0.13090   0.03218   0.60476   0.00000  Uiso   1.00
C50    C     0.16326   0.07453   0.57350   0.00000  Uiso   1.00
C51    C     0.21681   0.08268   0.51014   0.00000  Uiso   1.00
C52    C     0.07676   0.15490   0.76473   0.00000  Uiso   1.00
C53    C     0.06494   0.04208   0.81775   0.00000  Uiso   1.00
C54    C     0.06714   0.08897   0.88389   0.00000  Uiso   1.00
C55    C     0.06504   0.10552   0.00018   0.00000  Uiso   1.00
C56    C     0.05806   0.27756   0.66798   0.00000  Uiso   1.00
C57    C     0.03052   0.26789   0.63967   0.00000  Uiso   1.00
C58    C     0.01696   0.41806   0.62438   0.00000  Uiso   1.00
C59    C     0.98583   0.62506   0.59045   0.00000  Uiso   1.00
C60    C     0.10168   0.41305   0.71181   0.00000  Uiso   1.00
C61    C     0.12611   0.30373   0.66163   0.00000  Uiso   1.00
C62    C     0.15845   0.34627   0.63042   0.00000  Uiso   1.00
C63    C     0.17681   0.22901   0.58612   0.00000  Uiso   1.00
C64    C     0.09028   0.30910   0.77733   0.00000  Uiso   1.00
C65    C     0.09249   0.35617   0.84341   0.00000  Uiso   1.00
C66    C     0.08069   0.24345   0.89652   0.00000  Uiso   1.00
C67    C     0.07158   0.43177   0.68058   0.00000  Uiso   1.00
C68    C     0.05807   0.58198   0.66534   0.00000  Uiso   1.00
C69    C     0.03051   0.57254   0.63700   0.00000  Uiso   1.00
H70    H     0.06625   0.00910   0.67881   0.00000  Uiso   1.00
H71    H     0.12043   0.91285   0.59503   0.00000  Uiso   1.00
H72    H     0.05448   0.92276   0.80798   0.00000  Uiso   1.00
H73    H     0.02006   0.14854   0.62993   0.00000  Uiso   1.00
H74    H     0.18646   0.87412   0.50772   0.00000  Uiso   1.00
H75    H     0.04739   0.89504   0.95675   0.00000  Uiso   1.00
H76    H     0.97480   0.37113   0.58130   0.00000  Uiso   1.00
H77    H     0.11221   0.53310   0.72162   0.00000  Uiso   1.00
H78    H     0.16891   0.46561   0.64018   0.00000  Uiso   1.00
H79    H     0.10296   0.47552   0.85314   0.00000  Uiso   1.00
H80    H     0.06854   0.70129   0.67509   0.00000  Uiso   1.00
H81    H     0.22581   0.32276   0.54437   0.00000  Uiso   1.00
H82    H     0.08674   0.34368   0.99341   0.00000  Uiso   1.00
H83    H     0.01416   0.81977   0.61795   0.00000  Uiso   1.00
O84    O     0.24261   0.04456   0.47172   0.00000  Uiso   1.00
O85    O     0.06015   0.07203   0.06083   0.00000  Uiso   1.00
O86    O     0.96492   0.69664   0.56825   0.00000  Uiso   1.00
N87    N     0.18794   0.98898   0.52751   0.00000  Uiso   1.00
N88    N     0.05792   0.00853   0.94733   0.00000  Uiso   1.00
N89    N     0.99005   0.45363   0.59633   0.00000  Uiso   1.00
N90    N     0.20911   0.23039   0.54723   0.00000  Uiso   1.00
N91    N     0.07909   0.24994   0.96705   0.00000  Uiso   1.00
N92    N     0.01123   0.69504   0.61605   0.00000  Uiso   1.00
C93    C     0.42322   0.62915   0.81139   0.00000  Uiso   1.00
C94    C     0.38741   0.64952   0.85098   0.00000  Uiso   1.00
C95    C     0.36910   0.53218   0.89524   0.00000  Uiso   1.00
C96    C     0.33674   0.57453   0.92650   0.00000  Uiso   1.00
C97    C     0.28319   0.58268   0.98986   0.00000  Uiso   1.00
C98    C     0.42324   0.65490   0.73527   0.00000  Uiso   1.00
C99    C     0.43506   0.54208   0.68225   0.00000  Uiso   1.00
C100   C     0.43286   0.58897   0.61611   0.00000  Uiso   1.00
C101   C     0.43496   0.60552   0.49982   0.00000  Uiso   1.00
C102   C     0.44194   0.77756   0.83202   0.00000  Uiso   1.00
C103   C     0.46948   0.76789   0.86033   0.00000  Uiso   1.00
C104   C     0.48304   0.91806   0.87562   0.00000  Uiso   1.00
C105   C     0.51417   0.12506   0.90955   0.00000  Uiso   1.00
C106   C     0.39832   0.91305   0.78819   0.00000  Uiso   1.00
C107   C     0.37389   0.80373   0.83837   0.00000  Uiso   1.00
C108   C     0.34155   0.84627   0.86958   0.00000  Uiso   1.00
C109   C     0.32319   0.72901   0.91388   0.00000  Uiso   1.00
C110   C     0.40972   0.80910   0.72267   0.00000  Uiso   1.00
C111   C     0.40751   0.85617   0.65659   0.00000  Uiso   1.00
C112   C     0.41931   0.74345   0.60348   0.00000  Uiso   1.00
C113   C     0.42842   0.93177   0.81942   0.00000  Uiso   1.00
C114   C     0.44193   0.08198   0.83466   0.00000  Uiso   1.00
C115   C     0.46949   0.07254   0.86300   0.00000  Uiso   1.00
H116   H     0.43375   0.50910   0.82119   0.00000  Uiso   1.00
H117   H     0.37957   0.41285   0.90497   0.00000  Uiso   1.00
H118   H     0.44552   0.42276   0.69202   0.00000  Uiso   1.00
H119   H     0.47994   0.64854   0.87007   0.00000  Uiso   1.00
H120   H     0.31354   0.37412   0.99228   0.00000  Uiso   1.00
H121   H     0.45261   0.39504   0.54325   0.00000  Uiso   1.00
H122   H     0.52520   0.87113   0.91870   0.00000  Uiso   1.00
H123   H     0.38779   0.03310   0.77838   0.00000  Uiso   1.00
H124   H     0.33109   0.96561   0.85982   0.00000  Uiso   1.00
H125   H     0.39704   0.97552   0.64686   0.00000  Uiso   1.00
H126   H     0.43146   0.20129   0.82491   0.00000  Uiso   1.00
H127   H     0.27419   0.82276   0.95563   0.00000  Uiso   1.00
H128   H     0.41326   0.84368   0.50659   0.00000  Uiso   1.00
H129   H     0.48584   0.31977   0.88205   0.00000  Uiso   1.00
O130   O     0.25739   0.54456   0.02828   0.00000  Uiso   1.00
O131   O     0.43985   0.57203   0.43917   0.00000  Uiso   1.00
O132   O     0.53508   0.19664   0.93175   0.00000  Uiso   1.00
N133   N     0.31206   0.48898   0.97249   0.00000  Uiso   1.00
N134   N     0.44208   0.50853   0.55267   0.00000  Uiso   1.00
N135   N     0.50995   0.95363   0.90367   0.00000  Uiso   1.00
N136   N     0.29089   0.73039   0.95277   0.00000  Uiso   1.00
N137   N     0.42091   0.74994   0.53295   0.00000  Uiso   1.00
N138   N     0.48877   0.19504   0.88395   0.00000  Uiso   1.00
C139   C     0.92322   0.12915   0.81139   0.00000  Uiso   1.00
C140   C     0.88741   0.14952   0.85098   0.00000  Uiso   1.00
C141   C     0.86910   0.03218   0.89524   0.00000  Uiso   1.00
C142   C     0.83674   0.07453   0.92650   0.00000  Uiso   1.00
C143   C     0.78319   0.08268   0.98986   0.00000  Uiso   1.00
C144   C     0.92324   0.15490   0.73527   0.00000  Uiso   1.00
C145   C     0.93506   0.04208   0.68225   0.00000  Uiso   1.00
C146   C     0.93286   0.08897   0.61611   0.00000  Uiso   1.00
C147   C     0.93496   0.10552   0.49982   0.00000  Uiso   1.00
C148   C     0.94194   0.27756   0.83202   0.00000  Uiso   1.00
C149   C     0.96948   0.26789   0.86033   0.00000  Uiso   1.00
C150   C     0.98304   0.41806   0.87562   0.00000  Uiso   1.00
C151   C     0.01417   0.62506   0.90955   0.00000  Uiso   1.00
C152   C     0.89832   0.41305   0.78819   0.00000  Uiso   1.00
C153   C     0.87389   0.30373   0.83837   0.00000  Uiso   1.00
C154   C     0.84155   0.34627   0.86958   0.00000  Uiso   1.00
C155   C     0.82319   0.22901   0.91388   0.00000  Uiso   1.00
C156   C     0.90972   0.30910   0.72267   0.00000  Uiso   1.00
C157   C     0.90751   0.35617   0.65659   0.00000  Uiso   1.00
C158   C     0.91931   0.24345   0.60348   0.00000  Uiso   1.00
C159   C     0.92842   0.43177   0.81942   0.00000  Uiso   1.00
C160   C     0.94193   0.58198   0.83466   0.00000  Uiso   1.00
C161   C     0.96949   0.57254   0.86300   0.00000  Uiso   1.00
H162   H     0.93375   0.00910   0.82119   0.00000  Uiso   1.00
H163   H     0.87957   0.91285   0.90497   0.00000  Uiso   1.00
H164   H     0.94552   0.92276   0.69202   0.00000  Uiso   1.00
H165   H     0.97994   0.14854   0.87007   0.00000  Uiso   1.00
H166   H     0.81354   0.87412   0.99228   0.00000  Uiso   1.00
H167   H     0.95261   0.89504   0.54325   0.00000  Uiso   1.00
H168   H     0.02520   0.37113   0.91870   0.00000  Uiso   1.00
H169   H     0.88779   0.53310   0.77838   0.00000  Uiso   1.00
H170   H     0.83109   0.46561   0.85982   0.00000  Uiso   1.00
H171   H     0.89704   0.47552   0.64686   0.00000  Uiso   1.00
H172   H     0.93146   0.70129   0.82491   0.00000  Uiso   1.00
H173   H     0.77419   0.32276   0.95563   0.00000  Uiso   1.00
H174   H     0.91326   0.34368   0.50659   0.00000  Uiso   1.00
H175   H     0.98584   0.81977   0.88205   0.00000  Uiso   1.00
O176   O     0.75739   0.04456   0.02828   0.00000  Uiso   1.00
O177   O     0.93985   0.07203   0.43917   0.00000  Uiso   1.00
O178   O     0.03508   0.69664   0.93175   0.00000  Uiso   1.00
N179   N     0.81206   0.98898   0.97249   0.00000  Uiso   1.00
N180   N     0.94208   0.00853   0.55267   0.00000  Uiso   1.00
N181   N     0.00995   0.45363   0.90367   0.00000  Uiso   1.00
N182   N     0.79089   0.23039   0.95277   0.00000  Uiso   1.00
N183   N     0.92091   0.24994   0.53295   0.00000  Uiso   1.00
N184   N     0.98877   0.69504   0.88395   0.00000  Uiso   1.00
C185   C     0.42322   0.37085   0.31139   0.00000  Uiso   1.00
C186   C     0.38741   0.35048   0.35098   0.00000  Uiso   1.00
C187   C     0.36910   0.46782   0.39524   0.00000  Uiso   1.00
C188   C     0.33674   0.42547   0.42650   0.00000  Uiso   1.00
C189   C     0.28319   0.41732   0.48986   0.00000  Uiso   1.00
C190   C     0.42324   0.34510   0.23527   0.00000  Uiso   1.00
C191   C     0.43506   0.45792   0.18225   0.00000  Uiso   1.00
C192   C     0.43286   0.41103   0.11611   0.00000  Uiso   1.00
C193   C     0.43496   0.39448   0.99982   0.00000  Uiso   1.00
C194   C     0.44194   0.22244   0.33202   0.00000  Uiso   1.00
C195   C     0.46948   0.23211   0.36033   0.00000  Uiso   1.00
C196   C     0.48304   0.08194   0.37562   0.00000  Uiso   1.00
C197   C     0.51417   0.87494   0.40955   0.00000  Uiso   1.00
C198   C     0.39832   0.08695   0.28819   0.00000  Uiso   1.00
C199   C     0.37389   0.19627   0.33837   0.00000  Uiso   1.00
C200   C     0.34155   0.15373   0.36958   0.00000  Uiso   1.00
C201   C     0.32319   0.27099   0.41388   0.00000  Uiso   1.00
C202   C     0.40972   0.19090   0.22267   0.00000  Uiso   1.00
C203   C     0.40751   0.14383   0.15659   0.00000  Uiso   1.00
C204   C     0.41931   0.25655   0.10348   0.00000  Uiso   1.00
C205   C     0.42842   0.06823   0.31942   0.00000  Uiso   1.00
C206   C     0.44193   0.91802   0.33466   0.00000  Uiso   1.00
C207   C     0.46949   0.92746   0.36300   0.00000  Uiso   1.00
H208   H     0.43375   0.49090   0.32119   0.00000  Uiso   1.00
H209   H     0.37957   0.58715   0.40497   0.00000  Uiso   1.00
H210   H     0.44552   0.57724   0.19202   0.00000  Uiso   1.00
H211   H     0.47994   0.35146   0.37007   0.00000  Uiso   1.00
H212   H     0.31354   0.62588   0.49228   0.00000  Uiso   1.00
H213   H     0.45261   0.60496   0.04325   0.00000  Uiso   1.00
H214   H     0.52520   0.12887   0.41870   0.00000  Uiso   1.00
H215   H     0.38779   0.96690   0.27838   0.00000  Uiso   1.00
H216   H     0.33109   0.03439   0.35982   0.00000  Uiso   1.00
H217   H     0.39704   0.02448   0.14686   0.00000  Uiso   1.00
H218   H     0.43146   0.79871   0.32491   0.00000  Uiso   1.00
H219   H     0.27419   0.17724   0.45563   0.00000  Uiso   1.00
H220   H     0.41326   0.15632   0.00659   0.00000  Uiso   1.00
H221   H     0.48584   0.68023   0.38205   0.00000  Uiso   1.00
O222   O     0.25739   0.45544   0.52828   0.00000  Uiso   1.00
O223   O     0.43985   0.42797   0.93917   0.00000  Uiso   1.00
O224   O     0.53508   0.80336   0.43175   0.00000  Uiso   1.00
N225   N     0.31206   0.51102   0.47249   0.00000  Uiso   1.00
N226   N     0.44208   0.49147   0.05267   0.00000  Uiso   1.00
N227   N     0.50995   0.04637   0.40367   0.00000  Uiso   1.00
N228   N     0.29089   0.26961   0.45277   0.00000  Uiso   1.00
N229   N     0.42091   0.25006   0.03295   0.00000  Uiso   1.00
N230   N     0.48877   0.80496   0.38395   0.00000  Uiso   1.00
C231   C     0.92322   0.87085   0.31139   0.00000  Uiso   1.00
C232   C     0.88741   0.85048   0.35098   0.00000  Uiso   1.00
C233   C     0.86910   0.96782   0.39524   0.00000  Uiso   1.00
C234   C     0.83674   0.92547   0.42650   0.00000  Uiso   1.00
C235   C     0.78319   0.91732   0.48986   0.00000  Uiso   1.00
C236   C     0.92324   0.84510   0.23527   0.00000  Uiso   1.00
C237   C     0.93506   0.95792   0.18225   0.00000  Uiso   1.00
C238   C     0.93286   0.91103   0.11611   0.00000  Uiso   1.00
C239   C     0.93496   0.89448   0.99982   0.00000  Uiso   1.00
C240   C     0.94194   0.72244   0.33202   0.00000  Uiso   1.00
C241   C     0.96948   0.73211   0.36033   0.00000  Uiso   1.00
C242   C     0.98304   0.58194   0.37562   0.00000  Uiso   1.00
C243   C     0.01417   0.37494   0.40955   0.00000  Uiso   1.00
C244   C     0.89832   0.58695   0.28819   0.00000  Uiso   1.00
C245   C     0.87389   0.69627   0.33837   0.00000  Uiso   1.00
C246   C     0.84155   0.65373   0.36958   0.00000  Uiso   1.00
C247   C     0.82319   0.77099   0.41388   0.00000  Uiso   1.00
C248   C     0.90972   0.69090   0.22267   0.00000  Uiso   1.00
C249   C     0.90751   0.64383   0.15659   0.00000  Uiso   1.00
C250   C     0.91931   0.75655   0.10348   0.00000  Uiso   1.00
C251   C     0.92842   0.56823   0.31942   0.00000  Uiso   1.00
C252   C     0.94193   0.41802   0.33466   0.00000  Uiso   1.00
C253   C     0.96949   0.42746   0.36300   0.00000  Uiso   1.00
H254   H     0.93375   0.99090   0.32119   0.00000  Uiso   1.00
H255   H     0.87957   0.08715   0.40497   0.00000  Uiso   1.00
H256   H     0.94552   0.07724   0.19202   0.00000  Uiso   1.00
H257   H     0.97994   0.85146   0.37007   0.00000  Uiso   1.00
H258   H     0.81354   0.12588   0.49228   0.00000  Uiso   1.00
H259   H     0.95261   0.10496   0.04325   0.00000  Uiso   1.00
H260   H     0.02520   0.62887   0.41870   0.00000  Uiso   1.00
H261   H     0.88779   0.46690   0.27838   0.00000  Uiso   1.00
H262   H     0.83109   0.53439   0.35982   0.00000  Uiso   1.00
H263   H     0.89704   0.52448   0.14686   0.00000  Uiso   1.00
H264   H     0.93146   0.29871   0.32491   0.00000  Uiso   1.00
H265   H     0.77419   0.67724   0.45563   0.00000  Uiso   1.00
H266   H     0.91326   0.65632   0.00659   0.00000  Uiso   1.00
H267   H     0.98584   0.18023   0.38205   0.00000  Uiso   1.00
O268   O     0.75739   0.95544   0.52828   0.00000  Uiso   1.00
O269   O     0.93985   0.92797   0.93917   0.00000  Uiso   1.00
O270   O     0.03508   0.30336   0.43175   0.00000  Uiso   1.00
N271   N     0.81206   0.01102   0.47249   0.00000  Uiso   1.00
N272   N     0.94208   0.99147   0.05267   0.00000  Uiso   1.00
N273   N     0.00995   0.54637   0.40367   0.00000  Uiso   1.00
N274   N     0.79089   0.76961   0.45277   0.00000  Uiso   1.00
N275   N     0.92091   0.75006   0.03295   0.00000  Uiso   1.00
N276   N     0.98877   0.30496   0.38395   0.00000  Uiso   1.00
C277   C     0.57678   0.37085   0.18861   0.00000  Uiso   1.00
C278   C     0.61259   0.35048   0.14902   0.00000  Uiso   1.00
C279   C     0.63090   0.46782   0.10476   0.00000  Uiso   1.00
C280   C     0.66326   0.42547   0.07350   0.00000  Uiso   1.00
C281   C     0.71681   0.41732   0.01014   0.00000  Uiso   1.00
C282   C     0.57676   0.34510   0.26473   0.00000  Uiso   1.00
C283   C     0.56494   0.45792   0.31775   0.00000  Uiso   1.00
C284   C     0.56714   0.41103   0.38389   0.00000  Uiso   1.00
C285   C     0.56504   0.39448   0.50018   0.00000  Uiso   1.00
C286   C     0.55806   0.22244   0.16798   0.00000  Uiso   1.00
C287   C     0.53052   0.23211   0.13967   0.00000  Uiso   1.00
C288   C     0.51696   0.08194   0.12438   0.00000  Uiso   1.00
C289   C     0.48583   0.87494   0.09045   0.00000  Uiso   1.00
C290   C     0.60168   0.08695   0.21181   0.00000  Uiso   1.00
C291   C     0.62611   0.19627   0.16163   0.00000  Uiso   1.00
C292   C     0.65845   0.15373   0.13042   0.00000  Uiso   1.00
C293   C     0.67681   0.27099   0.08612   0.00000  Uiso   1.00
C294   C     0.59028   0.19090   0.27733   0.00000  Uiso   1.00
C295   C     0.59249   0.14383   0.34341   0.00000  Uiso   1.00
C296   C     0.58069   0.25655   0.39652   0.00000  Uiso   1.00
C297   C     0.57158   0.06823   0.18058   0.00000  Uiso   1.00
C298   C     0.55807   0.91802   0.16534   0.00000  Uiso   1.00
C299   C     0.53051   0.92746   0.13700   0.00000  Uiso   1.00
H300   H     0.56625   0.49090   0.17881   0.00000  Uiso   1.00
H301   H     0.62043   0.58715   0.09503   0.00000  Uiso   1.00
H302   H     0.55448   0.57724   0.30798   0.00000  Uiso   1.00
H303   H     0.52006   0.35146   0.12993   0.00000  Uiso   1.00
H304   H     0.68646   0.62588   0.00772   0.00000  Uiso   1.00
H305   H     0.54739   0.60496   0.45675   0.00000  Uiso   1.00
H306   H     0.47480   0.12887   0.08130   0.00000  Uiso   1.00
H307   H     0.61221   0.96690   0.22162   0.00000  Uiso   1.00
H308   H     0.66891   0.03439   0.14018   0.00000  Uiso   1.00
H309   H     0.60296   0.02448   0.35314   0.00000  Uiso   1.00
H310   H     0.56854   0.79871   0.17509   0.00000  Uiso   1.00
H311   H     0.72581   0.17724   0.04437   0.00000  Uiso   1.00
H312   H     0.58674   0.15632   0.49341   0.00000  Uiso   1.00
H313   H     0.51416   0.68023   0.11795   0.00000  Uiso   1.00
O314   O     0.74261   0.45544   0.97172   0.00000  Uiso   1.00
O315   O     0.56015   0.42797   0.56083   0.00000  Uiso   1.00
O316   O     0.46492   0.80336   0.06825   0.00000  Uiso   1.00
N317   N     0.68794   0.51102   0.02751   0.00000  Uiso   1.00
N318   N     0.55792   0.49147   0.44733   0.00000  Uiso   1.00
N319   N     0.49005   0.04637   0.09633   0.00000  Uiso   1.00
N320   N     0.70911   0.26961   0.04723   0.00000  Uiso   1.00
N321   N     0.57909   0.25006   0.46705   0.00000  Uiso   1.00
N322   N     0.51123   0.80496   0.11605   0.00000  Uiso   1.00
C323   C     0.07678   0.87085   0.18861   0.00000  Uiso   1.00
C324   C     0.11259   0.85048   0.14902   0.00000  Uiso   1.00
C325   C     0.13090   0.96782   0.10476   0.00000  Uiso   1.00
C326   C     0.16326   0.92547   0.07350   0.00000  Uiso   1.00
C327   C     0.21681   0.91732   0.01014   0.00000  Uiso   1.00
C328   C     0.07676   0.84510   0.26473   0.00000  Uiso   1.00
C329   C     0.06494   0.95792   0.31775   0.00000  Uiso   1.00
C330   C     0.06714   0.91103   0.38389   0.00000  Uiso   1.00
C331   C     0.06504   0.89448   0.50018   0.00000  Uiso   1.00
C332   C     0.05806   0.72244   0.16798   0.00000  Uiso   1.00
C333   C     0.03052   0.73211   0.13967   0.00000  Uiso   1.00
C334   C     0.01696   0.58194   0.12438   0.00000  Uiso   1.00
C335   C     0.98583   0.37494   0.09045   0.00000  Uiso   1.00
C336   C     0.10168   0.58695   0.21181   0.00000  Uiso   1.00
C337   C     0.12611   0.69627   0.16163   0.00000  Uiso   1.00
C338   C     0.15845   0.65373   0.13042   0.00000  Uiso   1.00
C339   C     0.17681   0.77099   0.08612   0.00000  Uiso   1.00
C340   C     0.09028   0.69090   0.27733   0.00000  Uiso   1.00
C341   C     0.09249   0.64383   0.34341   0.00000  Uiso   1.00
C342   C     0.08069   0.75655   0.39652   0.00000  Uiso   1.00
C343   C     0.07158   0.56823   0.18058   0.00000  Uiso   1.00
C344   C     0.05807   0.41802   0.16534   0.00000  Uiso   1.00
C345   C     0.03051   0.42746   0.13700   0.00000  Uiso   1.00
H346   H     0.06625   0.99090   0.17881   0.00000  Uiso   1.00
H347   H     0.12043   0.08715   0.09503   0.00000  Uiso   1.00
H348   H     0.05448   0.07724   0.30798   0.00000  Uiso   1.00
H349   H     0.02006   0.85146   0.12993   0.00000  Uiso   1.00
H350   H     0.18646   0.12588   0.00772   0.00000  Uiso   1.00
H351   H     0.04739   0.10496   0.45675   0.00000  Uiso   1.00
H352   H     0.97480   0.62887   0.08130   0.00000  Uiso   1.00
H353   H     0.11221   0.46690   0.22162   0.00000  Uiso   1.00
H354   H     0.16891   0.53439   0.14018   0.00000  Uiso   1.00
H355   H     0.10296   0.52448   0.35314   0.00000  Uiso   1.00
H356   H     0.06854   0.29871   0.17509   0.00000  Uiso   1.00
H357   H     0.22581   0.67724   0.04437   0.00000  Uiso   1.00
H358   H     0.08674   0.65632   0.49341   0.00000  Uiso   1.00
H359   H     0.01416   0.18023   0.11795   0.00000  Uiso   1.00
O360   O     0.24261   0.95544   0.97172   0.00000  Uiso   1.00
O361   O     0.06015   0.92797   0.56083   0.00000  Uiso   1.00
O362   O     0.96492   0.30336   0.06825   0.00000  Uiso   1.00
N363   N     0.18794   0.01102   0.02751   0.00000  Uiso   1.00
N364   N     0.05792   0.99147   0.44733   0.00000  Uiso   1.00
N365   N     0.99005   0.54637   0.09633   0.00000  Uiso   1.00
N366   N     0.20911   0.76961   0.04723   0.00000  Uiso   1.00
N367   N     0.07909   0.75006   0.46705   0.00000  Uiso   1.00
N368   N     0.01123   0.30496   0.11605   0.00000  Uiso   1.00
