data_job_04199
_audit_creation_date              2018-12-19
_audit_creation_method            'Materials Studio'
_symmetry_space_group_name_H-M    'P1'
_symmetry_Int_Tables_number       1
_symmetry_cell_setting            triclinic
loop_
_symmetry_equiv_pos_as_xyz
  x,y,z
_cell_length_a                    17.9145
_cell_length_b                    17.6170
_cell_length_c                    15.0091
_cell_angle_alpha                 90.0000
_cell_angle_beta                  90.0000
_cell_angle_gamma                 90.0000
loop_
_atom_site_label
_atom_site_type_symbol
_atom_site_fract_x
_atom_site_fract_y
_atom_site_fract_z
_atom_site_U_iso_or_equiv
_atom_site_adp_type
_atom_site_occupancy
C1     C     0.72714   0.28598   0.10892   0.00000  Uiso   1.00
C2     C     0.70621   0.34359   0.03733   0.00000  Uiso   1.00
C3     C     0.66484   0.40921   0.05067   0.00000  Uiso   1.00
C4     C     0.65166   0.45448   0.97661   0.00000  Uiso   1.00
C5     C     0.61497   0.54691   0.87826   0.00000  Uiso   1.00
C6     C     0.69756   0.20967   0.07647   0.00000  Uiso   1.00
C7     C     0.64893   0.16269   0.12274   0.00000  Uiso   1.00
C8     C     0.62849   0.09522   0.08163   0.00000  Uiso   1.00
C9     C     0.57843   0.97971   0.04408   0.00000  Uiso   1.00
C10    C     0.81202   0.27981   0.10656   0.00000  Uiso   1.00
C11    C     0.85963   0.29178   0.17814   0.00000  Uiso   1.00
C12    C     0.93555   0.28335   0.16237   0.00000  Uiso   1.00
C13    C     0.06320   0.27674   0.17154   0.00000  Uiso   1.00
C14    C     0.77730   0.24968   0.95365   0.00000  Uiso   1.00
C15    C     0.73345   0.32387   0.95299   0.00000  Uiso   1.00
C16    C     0.72033   0.36906   0.87888   0.00000  Uiso   1.00
C17    C     0.67895   0.43473   0.89212   0.00000  Uiso   1.00
C18    C     0.72481   0.18995   0.99214   0.00000  Uiso   1.00
C19    C     0.70443   0.12253   0.95095   0.00000  Uiso   1.00
C20    C     0.65578   0.07547   0.99714   0.00000  Uiso   1.00
C21    C     0.83927   0.26009   0.02223   0.00000  Uiso   1.00
C22    C     0.91513   0.25163   0.00634   0.00000  Uiso   1.00
C23    C     0.96284   0.26359   0.07788   0.00000  Uiso   1.00
H24    H     0.70593   0.30132   0.17458   0.00000  Uiso   1.00
H25    H     0.64375   0.42445   0.11595   0.00000  Uiso   1.00
H26    H     0.62786   0.17796   0.18801   0.00000  Uiso   1.00
H27    H     0.83853   0.30704   0.24339   0.00000  Uiso   1.00
H28    H     0.58682   0.55224   0.01374   0.00000  Uiso   1.00
H29    H     0.55333   0.03249   0.16570   0.00000  Uiso   1.00
H30    H     0.99755   0.30468   0.28249   0.00000  Uiso   1.00
H31    H     0.79851   0.23433   0.88799   0.00000  Uiso   1.00
H32    H     0.74142   0.35378   0.81363   0.00000  Uiso   1.00
H33    H     0.72553   0.10729   0.88569   0.00000  Uiso   1.00
H34    H     0.93619   0.23637   0.94107   0.00000  Uiso   1.00
H35    H     0.66609   0.49489   0.76837   0.00000  Uiso   1.00
H36    H     0.63260   0.97514   0.92032   0.00000  Uiso   1.00
H37    H     0.07682   0.24733   0.03711   0.00000  Uiso   1.00
O38    O     0.58721   0.60333   0.84730   0.00000  Uiso   1.00
O39    O     0.54328   0.92144   0.04667   0.00000  Uiso   1.00
O40    O     0.12609   0.27855   0.19990   0.00000  Uiso   1.00
N41    N     0.61332   0.52236   0.96620   0.00000  Uiso   1.00
N42    N     0.58200   0.03643   0.10827   0.00000  Uiso   1.00
N43    N     0.99731   0.29088   0.21746   0.00000  Uiso   1.00
N44    N     0.65598   0.49150   0.83417   0.00000  Uiso   1.00
N45    N     0.62466   0.00557   0.97623   0.00000  Uiso   1.00
N46    N     0.03997   0.26002   0.08543   0.00000  Uiso   1.00
C47    C     0.77286   0.71402   0.60892   0.00000  Uiso   1.00
C48    C     0.79379   0.65641   0.53733   0.00000  Uiso   1.00
C49    C     0.83516   0.59079   0.55067   0.00000  Uiso   1.00
C50    C     0.84834   0.54552   0.47661   0.00000  Uiso   1.00
C51    C     0.88503   0.45309   0.37826   0.00000  Uiso   1.00
C52    C     0.80244   0.79033   0.57647   0.00000  Uiso   1.00
C53    C     0.85107   0.83731   0.62274   0.00000  Uiso   1.00
C54    C     0.87151   0.90478   0.58163   0.00000  Uiso   1.00
C55    C     0.92157   0.02029   0.54408   0.00000  Uiso   1.00
C56    C     0.68798   0.72019   0.60656   0.00000  Uiso   1.00
C57    C     0.64037   0.70822   0.67814   0.00000  Uiso   1.00
C58    C     0.56445   0.71665   0.66237   0.00000  Uiso   1.00
C59    C     0.43680   0.72326   0.67154   0.00000  Uiso   1.00
C60    C     0.72270   0.75032   0.45365   0.00000  Uiso   1.00
C61    C     0.76655   0.67613   0.45299   0.00000  Uiso   1.00
C62    C     0.77967   0.63094   0.37888   0.00000  Uiso   1.00
C63    C     0.82105   0.56527   0.39212   0.00000  Uiso   1.00
C64    C     0.77519   0.81005   0.49214   0.00000  Uiso   1.00
C65    C     0.79557   0.87747   0.45095   0.00000  Uiso   1.00
C66    C     0.84422   0.92453   0.49714   0.00000  Uiso   1.00
C67    C     0.66073   0.73991   0.52223   0.00000  Uiso   1.00
C68    C     0.58487   0.74837   0.50634   0.00000  Uiso   1.00
C69    C     0.53716   0.73641   0.57788   0.00000  Uiso   1.00
H70    H     0.79407   0.69868   0.67458   0.00000  Uiso   1.00
H71    H     0.85625   0.57555   0.61595   0.00000  Uiso   1.00
H72    H     0.87214   0.82204   0.68801   0.00000  Uiso   1.00
H73    H     0.66147   0.69296   0.74339   0.00000  Uiso   1.00
H74    H     0.91318   0.44776   0.51374   0.00000  Uiso   1.00
H75    H     0.94667   0.96751   0.66570   0.00000  Uiso   1.00
H76    H     0.50245   0.69532   0.78249   0.00000  Uiso   1.00
H77    H     0.70149   0.76567   0.38799   0.00000  Uiso   1.00
H78    H     0.75858   0.64622   0.31363   0.00000  Uiso   1.00
H79    H     0.77447   0.89271   0.38569   0.00000  Uiso   1.00
H80    H     0.56381   0.76363   0.44107   0.00000  Uiso   1.00
H81    H     0.83391   0.50511   0.26837   0.00000  Uiso   1.00
H82    H     0.86740   0.02486   0.42032   0.00000  Uiso   1.00
H83    H     0.42318   0.75267   0.53711   0.00000  Uiso   1.00
O84    O     0.91279   0.39667   0.34730   0.00000  Uiso   1.00
O85    O     0.95672   0.07856   0.54667   0.00000  Uiso   1.00
O86    O     0.37391   0.72145   0.69990   0.00000  Uiso   1.00
N87    N     0.88668   0.47764   0.46620   0.00000  Uiso   1.00
N88    N     0.91800   0.96357   0.60827   0.00000  Uiso   1.00
N89    N     0.50269   0.70912   0.71746   0.00000  Uiso   1.00
N90    N     0.84402   0.50850   0.33417   0.00000  Uiso   1.00
N91    N     0.87534   0.99443   0.47623   0.00000  Uiso   1.00
N92    N     0.46003   0.73998   0.58543   0.00000  Uiso   1.00
C93    C     0.27286   0.78598   0.39108   0.00000  Uiso   1.00
C94    C     0.29379   0.84359   0.46267   0.00000  Uiso   1.00
C95    C     0.33516   0.90921   0.44933   0.00000  Uiso   1.00
C96    C     0.34834   0.95448   0.52339   0.00000  Uiso   1.00
C97    C     0.38503   0.04691   0.62174   0.00000  Uiso   1.00
C98    C     0.30244   0.70967   0.42353   0.00000  Uiso   1.00
C99    C     0.35107   0.66269   0.37726   0.00000  Uiso   1.00
C100   C     0.37151   0.59522   0.41837   0.00000  Uiso   1.00
C101   C     0.42157   0.47971   0.45592   0.00000  Uiso   1.00
C102   C     0.18798   0.77981   0.39344   0.00000  Uiso   1.00
C103   C     0.14037   0.79178   0.32186   0.00000  Uiso   1.00
C104   C     0.06445   0.78335   0.33763   0.00000  Uiso   1.00
C105   C     0.93680   0.77674   0.32846   0.00000  Uiso   1.00
C106   C     0.22270   0.74968   0.54635   0.00000  Uiso   1.00
C107   C     0.26655   0.82387   0.54701   0.00000  Uiso   1.00
C108   C     0.27967   0.86906   0.62112   0.00000  Uiso   1.00
C109   C     0.32105   0.93473   0.60788   0.00000  Uiso   1.00
C110   C     0.27519   0.68995   0.50786   0.00000  Uiso   1.00
C111   C     0.29557   0.62253   0.54905   0.00000  Uiso   1.00
C112   C     0.34422   0.57547   0.50286   0.00000  Uiso   1.00
C113   C     0.16073   0.76009   0.47777   0.00000  Uiso   1.00
C114   C     0.08487   0.75163   0.49366   0.00000  Uiso   1.00
C115   C     0.03716   0.76359   0.42212   0.00000  Uiso   1.00
H116   H     0.29407   0.80132   0.32542   0.00000  Uiso   1.00
H117   H     0.35625   0.92445   0.38405   0.00000  Uiso   1.00
H118   H     0.37214   0.67796   0.31199   0.00000  Uiso   1.00
H119   H     0.16147   0.80704   0.25661   0.00000  Uiso   1.00
H120   H     0.41318   0.05224   0.48626   0.00000  Uiso   1.00
H121   H     0.44667   0.53249   0.33430   0.00000  Uiso   1.00
H122   H     0.00245   0.80468   0.21751   0.00000  Uiso   1.00
H123   H     0.20149   0.73433   0.61201   0.00000  Uiso   1.00
H124   H     0.25858   0.85378   0.68637   0.00000  Uiso   1.00
H125   H     0.27447   0.60729   0.61431   0.00000  Uiso   1.00
H126   H     0.06381   0.73637   0.55893   0.00000  Uiso   1.00
H127   H     0.33391   0.99489   0.73163   0.00000  Uiso   1.00
H128   H     0.36740   0.47514   0.57968   0.00000  Uiso   1.00
H129   H     0.92318   0.74733   0.46289   0.00000  Uiso   1.00
O130   O     0.41279   0.10333   0.65270   0.00000  Uiso   1.00
O131   O     0.45672   0.42144   0.45333   0.00000  Uiso   1.00
O132   O     0.87391   0.77855   0.30010   0.00000  Uiso   1.00
N133   N     0.38668   0.02236   0.53380   0.00000  Uiso   1.00
N134   N     0.41800   0.53643   0.39173   0.00000  Uiso   1.00
N135   N     0.00269   0.79088   0.28254   0.00000  Uiso   1.00
N136   N     0.34402   0.99150   0.66583   0.00000  Uiso   1.00
N137   N     0.37534   0.50557   0.52377   0.00000  Uiso   1.00
N138   N     0.96003   0.76002   0.41457   0.00000  Uiso   1.00
C139   C     0.22714   0.21402   0.89108   0.00000  Uiso   1.00
C140   C     0.20621   0.15641   0.96267   0.00000  Uiso   1.00
C141   C     0.16484   0.09079   0.94933   0.00000  Uiso   1.00
C142   C     0.15166   0.04552   0.02339   0.00000  Uiso   1.00
C143   C     0.11497   0.95309   0.12174   0.00000  Uiso   1.00
C144   C     0.19756   0.29033   0.92353   0.00000  Uiso   1.00
C145   C     0.14893   0.33731   0.87726   0.00000  Uiso   1.00
C146   C     0.12849   0.40478   0.91837   0.00000  Uiso   1.00
C147   C     0.07843   0.52029   0.95592   0.00000  Uiso   1.00
C148   C     0.31202   0.22019   0.89344   0.00000  Uiso   1.00
C149   C     0.35963   0.20822   0.82186   0.00000  Uiso   1.00
C150   C     0.43555   0.21665   0.83763   0.00000  Uiso   1.00
C151   C     0.56320   0.22326   0.82846   0.00000  Uiso   1.00
C152   C     0.27730   0.25032   0.04635   0.00000  Uiso   1.00
C153   C     0.23345   0.17613   0.04701   0.00000  Uiso   1.00
C154   C     0.22033   0.13094   0.12112   0.00000  Uiso   1.00
C155   C     0.17895   0.06527   0.10788   0.00000  Uiso   1.00
C156   C     0.22481   0.31005   0.00786   0.00000  Uiso   1.00
C157   C     0.20443   0.37747   0.04905   0.00000  Uiso   1.00
C158   C     0.15578   0.42453   0.00286   0.00000  Uiso   1.00
C159   C     0.33927   0.23991   0.97777   0.00000  Uiso   1.00
C160   C     0.41513   0.24837   0.99366   0.00000  Uiso   1.00
C161   C     0.46284   0.23641   0.92212   0.00000  Uiso   1.00
H162   H     0.20593   0.19868   0.82542   0.00000  Uiso   1.00
H163   H     0.14375   0.07555   0.88405   0.00000  Uiso   1.00
H164   H     0.12786   0.32204   0.81199   0.00000  Uiso   1.00
H165   H     0.33853   0.19296   0.75661   0.00000  Uiso   1.00
H166   H     0.08682   0.94776   0.98626   0.00000  Uiso   1.00
H167   H     0.05333   0.46751   0.83430   0.00000  Uiso   1.00
H168   H     0.49755   0.19532   0.71751   0.00000  Uiso   1.00
H169   H     0.29851   0.26567   0.11201   0.00000  Uiso   1.00
H170   H     0.24142   0.14622   0.18637   0.00000  Uiso   1.00
H171   H     0.22553   0.39271   0.11431   0.00000  Uiso   1.00
H172   H     0.43619   0.26363   0.05893   0.00000  Uiso   1.00
H173   H     0.16609   0.00511   0.23163   0.00000  Uiso   1.00
H174   H     0.13260   0.52486   0.07968   0.00000  Uiso   1.00
H175   H     0.57682   0.25267   0.96289   0.00000  Uiso   1.00
O176   O     0.08721   0.89667   0.15270   0.00000  Uiso   1.00
O177   O     0.04328   0.57856   0.95333   0.00000  Uiso   1.00
O178   O     0.62609   0.22145   0.80010   0.00000  Uiso   1.00
N179   N     0.11332   0.97764   0.03380   0.00000  Uiso   1.00
N180   N     0.08200   0.46357   0.89173   0.00000  Uiso   1.00
N181   N     0.49731   0.20912   0.78254   0.00000  Uiso   1.00
N182   N     0.15598   0.00850   0.16583   0.00000  Uiso   1.00
N183   N     0.12466   0.49443   0.02377   0.00000  Uiso   1.00
N184   N     0.53997   0.23998   0.91457   0.00000  Uiso   1.00
C185   C     0.27286   0.71402   0.89108   0.00000  Uiso   1.00
C186   C     0.29379   0.65641   0.96267   0.00000  Uiso   1.00
C187   C     0.33516   0.59079   0.94933   0.00000  Uiso   1.00
C188   C     0.34834   0.54552   0.02339   0.00000  Uiso   1.00
C189   C     0.38503   0.45309   0.12174   0.00000  Uiso   1.00
C190   C     0.30244   0.79033   0.92353   0.00000  Uiso   1.00
C191   C     0.35107   0.83731   0.87726   0.00000  Uiso   1.00
C192   C     0.37151   0.90478   0.91837   0.00000  Uiso   1.00
C193   C     0.42157   0.02029   0.95592   0.00000  Uiso   1.00
C194   C     0.18798   0.72019   0.89344   0.00000  Uiso   1.00
C195   C     0.14037   0.70822   0.82186   0.00000  Uiso   1.00
C196   C     0.06445   0.71665   0.83763   0.00000  Uiso   1.00
C197   C     0.93680   0.72326   0.82846   0.00000  Uiso   1.00
C198   C     0.22270   0.75032   0.04635   0.00000  Uiso   1.00
C199   C     0.26655   0.67613   0.04701   0.00000  Uiso   1.00
C200   C     0.27967   0.63094   0.12112   0.00000  Uiso   1.00
C201   C     0.32105   0.56527   0.10788   0.00000  Uiso   1.00
C202   C     0.27519   0.81005   0.00786   0.00000  Uiso   1.00
C203   C     0.29557   0.87747   0.04905   0.00000  Uiso   1.00
C204   C     0.34422   0.92453   0.00286   0.00000  Uiso   1.00
C205   C     0.16073   0.73991   0.97777   0.00000  Uiso   1.00
C206   C     0.08487   0.74837   0.99366   0.00000  Uiso   1.00
C207   C     0.03716   0.73641   0.92212   0.00000  Uiso   1.00
H208   H     0.29407   0.69868   0.82542   0.00000  Uiso   1.00
H209   H     0.35625   0.57555   0.88405   0.00000  Uiso   1.00
H210   H     0.37214   0.82204   0.81199   0.00000  Uiso   1.00
H211   H     0.16147   0.69296   0.75661   0.00000  Uiso   1.00
H212   H     0.41318   0.44776   0.98626   0.00000  Uiso   1.00
H213   H     0.44667   0.96751   0.83430   0.00000  Uiso   1.00
H214   H     0.00245   0.69532   0.71751   0.00000  Uiso   1.00
H215   H     0.20149   0.76567   0.11201   0.00000  Uiso   1.00
H216   H     0.25858   0.64622   0.18637   0.00000  Uiso   1.00
H217   H     0.27447   0.89271   0.11431   0.00000  Uiso   1.00
H218   H     0.06381   0.76363   0.05893   0.00000  Uiso   1.00
H219   H     0.33391   0.50511   0.23163   0.00000  Uiso   1.00
H220   H     0.36740   0.02486   0.07968   0.00000  Uiso   1.00
H221   H     0.92318   0.75267   0.96289   0.00000  Uiso   1.00
O222   O     0.41279   0.39667   0.15270   0.00000  Uiso   1.00
O223   O     0.45672   0.07856   0.95333   0.00000  Uiso   1.00
O224   O     0.87391   0.72145   0.80010   0.00000  Uiso   1.00
N225   N     0.38668   0.47764   0.03380   0.00000  Uiso   1.00
N226   N     0.41800   0.96357   0.89173   0.00000  Uiso   1.00
N227   N     0.00269   0.70912   0.78254   0.00000  Uiso   1.00
N228   N     0.34402   0.50850   0.16583   0.00000  Uiso   1.00
N229   N     0.37534   0.99443   0.02377   0.00000  Uiso   1.00
N230   N     0.96003   0.73998   0.91457   0.00000  Uiso   1.00
C231   C     0.22714   0.28598   0.39108   0.00000  Uiso   1.00
C232   C     0.20621   0.34359   0.46267   0.00000  Uiso   1.00
C233   C     0.16484   0.40921   0.44933   0.00000  Uiso   1.00
C234   C     0.15166   0.45448   0.52339   0.00000  Uiso   1.00
C235   C     0.11497   0.54691   0.62174   0.00000  Uiso   1.00
C236   C     0.19756   0.20967   0.42353   0.00000  Uiso   1.00
C237   C     0.14893   0.16269   0.37726   0.00000  Uiso   1.00
C238   C     0.12849   0.09522   0.41837   0.00000  Uiso   1.00
C239   C     0.07843   0.97971   0.45592   0.00000  Uiso   1.00
C240   C     0.31202   0.27981   0.39344   0.00000  Uiso   1.00
C241   C     0.35963   0.29178   0.32186   0.00000  Uiso   1.00
C242   C     0.43555   0.28335   0.33763   0.00000  Uiso   1.00
C243   C     0.56320   0.27674   0.32846   0.00000  Uiso   1.00
C244   C     0.27730   0.24968   0.54635   0.00000  Uiso   1.00
C245   C     0.23345   0.32387   0.54701   0.00000  Uiso   1.00
C246   C     0.22033   0.36906   0.62112   0.00000  Uiso   1.00
C247   C     0.17895   0.43473   0.60788   0.00000  Uiso   1.00
C248   C     0.22481   0.18995   0.50786   0.00000  Uiso   1.00
C249   C     0.20443   0.12253   0.54905   0.00000  Uiso   1.00
C250   C     0.15578   0.07547   0.50286   0.00000  Uiso   1.00
C251   C     0.33927   0.26009   0.47777   0.00000  Uiso   1.00
C252   C     0.41513   0.25163   0.49366   0.00000  Uiso   1.00
C253   C     0.46284   0.26359   0.42212   0.00000  Uiso   1.00
H254   H     0.20593   0.30132   0.32542   0.00000  Uiso   1.00
H255   H     0.14375   0.42445   0.38405   0.00000  Uiso   1.00
H256   H     0.12786   0.17796   0.31199   0.00000  Uiso   1.00
H257   H     0.33853   0.30704   0.25661   0.00000  Uiso   1.00
H258   H     0.08682   0.55224   0.48626   0.00000  Uiso   1.00
H259   H     0.05333   0.03249   0.33430   0.00000  Uiso   1.00
H260   H     0.49755   0.30468   0.21751   0.00000  Uiso   1.00
H261   H     0.29851   0.23433   0.61201   0.00000  Uiso   1.00
H262   H     0.24142   0.35378   0.68637   0.00000  Uiso   1.00
H263   H     0.22553   0.10729   0.61431   0.00000  Uiso   1.00
H264   H     0.43619   0.23637   0.55893   0.00000  Uiso   1.00
H265   H     0.16609   0.49489   0.73163   0.00000  Uiso   1.00
H266   H     0.13260   0.97514   0.57968   0.00000  Uiso   1.00
H267   H     0.57682   0.24733   0.46289   0.00000  Uiso   1.00
O268   O     0.08721   0.60333   0.65270   0.00000  Uiso   1.00
O269   O     0.04328   0.92144   0.45333   0.00000  Uiso   1.00
O270   O     0.62609   0.27855   0.30010   0.00000  Uiso   1.00
N271   N     0.11332   0.52236   0.53380   0.00000  Uiso   1.00
N272   N     0.08200   0.03643   0.39173   0.00000  Uiso   1.00
N273   N     0.49731   0.29088   0.28254   0.00000  Uiso   1.00
N274   N     0.15598   0.49150   0.66583   0.00000  Uiso   1.00
N275   N     0.12466   0.00557   0.52377   0.00000  Uiso   1.00
N276   N     0.53997   0.26002   0.41457   0.00000  Uiso   1.00
C277   C     0.72714   0.21402   0.60892   0.00000  Uiso   1.00
C278   C     0.70621   0.15641   0.53733   0.00000  Uiso   1.00
C279   C     0.66484   0.09079   0.55067   0.00000  Uiso   1.00
C280   C     0.65166   0.04552   0.47661   0.00000  Uiso   1.00
C281   C     0.61497   0.95309   0.37826   0.00000  Uiso   1.00
C282   C     0.69756   0.29033   0.57647   0.00000  Uiso   1.00
C283   C     0.64893   0.33731   0.62274   0.00000  Uiso   1.00
C284   C     0.62849   0.40478   0.58163   0.00000  Uiso   1.00
C285   C     0.57843   0.52029   0.54408   0.00000  Uiso   1.00
C286   C     0.81202   0.22019   0.60656   0.00000  Uiso   1.00
C287   C     0.85963   0.20822   0.67814   0.00000  Uiso   1.00
C288   C     0.93555   0.21665   0.66237   0.00000  Uiso   1.00
C289   C     0.06320   0.22326   0.67154   0.00000  Uiso   1.00
C290   C     0.77730   0.25032   0.45365   0.00000  Uiso   1.00
C291   C     0.73345   0.17613   0.45299   0.00000  Uiso   1.00
C292   C     0.72033   0.13094   0.37888   0.00000  Uiso   1.00
C293   C     0.67895   0.06527   0.39212   0.00000  Uiso   1.00
C294   C     0.72481   0.31005   0.49214   0.00000  Uiso   1.00
C295   C     0.70443   0.37747   0.45095   0.00000  Uiso   1.00
C296   C     0.65578   0.42453   0.49714   0.00000  Uiso   1.00
C297   C     0.83927   0.23991   0.52223   0.00000  Uiso   1.00
C298   C     0.91513   0.24837   0.50634   0.00000  Uiso   1.00
C299   C     0.96284   0.23641   0.57788   0.00000  Uiso   1.00
H300   H     0.70593   0.19868   0.67458   0.00000  Uiso   1.00
H301   H     0.64375   0.07555   0.61595   0.00000  Uiso   1.00
H302   H     0.62786   0.32204   0.68801   0.00000  Uiso   1.00
H303   H     0.83853   0.19296   0.74339   0.00000  Uiso   1.00
H304   H     0.58682   0.94776   0.51374   0.00000  Uiso   1.00
H305   H     0.55333   0.46751   0.66570   0.00000  Uiso   1.00
H306   H     0.99755   0.19532   0.78249   0.00000  Uiso   1.00
H307   H     0.79851   0.26567   0.38799   0.00000  Uiso   1.00
H308   H     0.74142   0.14622   0.31363   0.00000  Uiso   1.00
H309   H     0.72553   0.39271   0.38569   0.00000  Uiso   1.00
H310   H     0.93619   0.26363   0.44107   0.00000  Uiso   1.00
H311   H     0.66609   0.00511   0.26837   0.00000  Uiso   1.00
H312   H     0.63260   0.52486   0.42032   0.00000  Uiso   1.00
H313   H     0.07682   0.25267   0.53711   0.00000  Uiso   1.00
O314   O     0.58721   0.89667   0.34730   0.00000  Uiso   1.00
O315   O     0.54328   0.57856   0.54667   0.00000  Uiso   1.00
O316   O     0.12609   0.22145   0.69990   0.00000  Uiso   1.00
N317   N     0.61332   0.97764   0.46620   0.00000  Uiso   1.00
N318   N     0.58200   0.46357   0.60827   0.00000  Uiso   1.00
N319   N     0.99731   0.20912   0.71746   0.00000  Uiso   1.00
N320   N     0.65598   0.00850   0.33417   0.00000  Uiso   1.00
N321   N     0.62466   0.49443   0.47623   0.00000  Uiso   1.00
N322   N     0.03997   0.23998   0.58543   0.00000  Uiso   1.00
C323   C     0.77286   0.78598   0.10892   0.00000  Uiso   1.00
C324   C     0.79379   0.84359   0.03733   0.00000  Uiso   1.00
C325   C     0.83516   0.90921   0.05067   0.00000  Uiso   1.00
C326   C     0.84834   0.95448   0.97661   0.00000  Uiso   1.00
C327   C     0.88503   0.04691   0.87826   0.00000  Uiso   1.00
C328   C     0.80244   0.70967   0.07647   0.00000  Uiso   1.00
C329   C     0.85107   0.66269   0.12274   0.00000  Uiso   1.00
C330   C     0.87151   0.59522   0.08163   0.00000  Uiso   1.00
C331   C     0.92157   0.47971   0.04408   0.00000  Uiso   1.00
C332   C     0.68798   0.77981   0.10656   0.00000  Uiso   1.00
C333   C     0.64037   0.79178   0.17814   0.00000  Uiso   1.00
C334   C     0.56445   0.78335   0.16237   0.00000  Uiso   1.00
C335   C     0.43680   0.77674   0.17154   0.00000  Uiso   1.00
C336   C     0.72270   0.74968   0.95365   0.00000  Uiso   1.00
C337   C     0.76655   0.82387   0.95299   0.00000  Uiso   1.00
C338   C     0.77967   0.86906   0.87888   0.00000  Uiso   1.00
C339   C     0.82105   0.93473   0.89212   0.00000  Uiso   1.00
C340   C     0.77519   0.68995   0.99214   0.00000  Uiso   1.00
C341   C     0.79557   0.62253   0.95095   0.00000  Uiso   1.00
C342   C     0.84422   0.57547   0.99714   0.00000  Uiso   1.00
C343   C     0.66073   0.76009   0.02223   0.00000  Uiso   1.00
C344   C     0.58487   0.75163   0.00634   0.00000  Uiso   1.00
C345   C     0.53716   0.76359   0.07788   0.00000  Uiso   1.00
H346   H     0.79407   0.80132   0.17458   0.00000  Uiso   1.00
H347   H     0.85625   0.92445   0.11595   0.00000  Uiso   1.00
H348   H     0.87214   0.67796   0.18801   0.00000  Uiso   1.00
H349   H     0.66147   0.80704   0.24339   0.00000  Uiso   1.00
H350   H     0.91318   0.05224   0.01374   0.00000  Uiso   1.00
H351   H     0.94667   0.53249   0.16570   0.00000  Uiso   1.00
H352   H     0.50245   0.80468   0.28249   0.00000  Uiso   1.00
H353   H     0.70149   0.73433   0.88799   0.00000  Uiso   1.00
H354   H     0.75858   0.85378   0.81363   0.00000  Uiso   1.00
H355   H     0.77447   0.60729   0.88569   0.00000  Uiso   1.00
H356   H     0.56381   0.73637   0.94107   0.00000  Uiso   1.00
H357   H     0.83391   0.99489   0.76837   0.00000  Uiso   1.00
H358   H     0.86740   0.47514   0.92032   0.00000  Uiso   1.00
H359   H     0.42318   0.74733   0.03711   0.00000  Uiso   1.00
O360   O     0.91279   0.10333   0.84730   0.00000  Uiso   1.00
O361   O     0.95672   0.42144   0.04667   0.00000  Uiso   1.00
O362   O     0.37391   0.77855   0.19990   0.00000  Uiso   1.00
N363   N     0.88668   0.02236   0.96620   0.00000  Uiso   1.00
N364   N     0.91800   0.53643   0.10827   0.00000  Uiso   1.00
N365   N     0.50269   0.79088   0.21746   0.00000  Uiso   1.00
N366   N     0.84402   0.99150   0.83417   0.00000  Uiso   1.00
N367   N     0.87534   0.50557   0.97623   0.00000  Uiso   1.00
N368   N     0.46003   0.76002   0.08543   0.00000  Uiso   1.00
