data_job_03857
_audit_creation_date              2018-12-19
_audit_creation_method            'Materials Studio'
_symmetry_space_group_name_H-M    'P1'
_symmetry_Int_Tables_number       1
_symmetry_cell_setting            triclinic
loop_
_symmetry_equiv_pos_as_xyz
  x,y,z
_cell_length_a                    11.7896
_cell_length_b                    27.8542
_cell_length_c                    14.8150
_cell_angle_alpha                 90.0000
_cell_angle_beta                  90.0000
_cell_angle_gamma                 90.0000
loop_
_atom_site_label
_atom_site_type_symbol
_atom_site_fract_x
_atom_site_fract_y
_atom_site_fract_z
_atom_site_U_iso_or_equiv
_atom_site_adp_type
_atom_site_occupancy
C1     C     0.55837   0.13295   0.55821   0.00000  Uiso   1.00
C2     C     0.44383   0.10842   0.54562   0.00000  Uiso   1.00
C3     C     0.40646   0.08611   0.46732   0.00000  Uiso   1.00
C4     C     0.29897   0.06578   0.46940   0.00000  Uiso   1.00
C5     C     0.13137   0.02742   0.43802   0.00000  Uiso   1.00
C6     C     0.53230   0.18422   0.58772   0.00000  Uiso   1.00
C7     C     0.56933   0.22565   0.54482   0.00000  Uiso   1.00
C8     C     0.53632   0.26914   0.58236   0.00000  Uiso   1.00
C9     C     0.50614   0.34846   0.61638   0.00000  Uiso   1.00
C10    C     0.61371   0.10865   0.63926   0.00000  Uiso   1.00
C11    C     0.71920   0.08655   0.63970   0.00000  Uiso   1.00
C12    C     0.75475   0.06642   0.72064   0.00000  Uiso   1.00
C13    C     0.85097   0.02841   0.83468   0.00000  Uiso   1.00
C14    C     0.43392   0.13651   0.70116   0.00000  Uiso   1.00
C15    C     0.37623   0.11035   0.62326   0.00000  Uiso   1.00
C16    C     0.26877   0.09005   0.62547   0.00000  Uiso   1.00
C17    C     0.23125   0.06772   0.54719   0.00000  Uiso   1.00
C18    C     0.46470   0.18616   0.66536   0.00000  Uiso   1.00
C19    C     0.43164   0.22959   0.70298   0.00000  Uiso   1.00
C20    C     0.46860   0.27108   0.66014   0.00000  Uiso   1.00
C21    C     0.54611   0.11059   0.71690   0.00000  Uiso   1.00
C22    C     0.58151   0.09049   0.79786   0.00000  Uiso   1.00
C23    C     0.68703   0.06836   0.79843   0.00000  Uiso   1.00
H24    H     0.61100   0.13144   0.49777   0.00000  Uiso   1.00
H25    H     0.45880   0.08462   0.40724   0.00000  Uiso   1.00
H26    H     0.62165   0.22414   0.48474   0.00000  Uiso   1.00
H27    H     0.77149   0.08506   0.57961   0.00000  Uiso   1.00
H28    H     0.26022   0.03358   0.34110   0.00000  Uiso   1.00
H29    H     0.60363   0.32776   0.50454   0.00000  Uiso   1.00
H30    H     0.91961   0.03448   0.70458   0.00000  Uiso   1.00
H31    H     0.38130   0.13802   0.76162   0.00000  Uiso   1.00
H32    H     0.21648   0.09156   0.68557   0.00000  Uiso   1.00
H33    H     0.37933   0.23108   0.76306   0.00000  Uiso   1.00
H34    H     0.52918   0.09199   0.85793   0.00000  Uiso   1.00
H35    H     0.06355   0.03921   0.56700   0.00000  Uiso   1.00
H36    H     0.40697   0.33340   0.73044   0.00000  Uiso   1.00
H37    H     0.72294   0.04011   0.93048   0.00000  Uiso   1.00
O38    O     0.05759   0.00573   0.39926   0.00000  Uiso   1.00
O39    O     0.50816   0.39168   0.61368   0.00000  Uiso   1.00
O40    O     0.92271   0.00690   0.87613   0.00000  Uiso   1.00
N41    N     0.23656   0.04127   0.40471   0.00000  Uiso   1.00
N42    N     0.55762   0.31632   0.55750   0.00000  Uiso   1.00
N43    N     0.85304   0.04213   0.74453   0.00000  Uiso   1.00
N44    N     0.13073   0.04430   0.52627   0.00000  Uiso   1.00
N45    N     0.45179   0.31935   0.67906   0.00000  Uiso   1.00
N46    N     0.74722   0.04516   0.86609   0.00000  Uiso   1.00
C47    C     0.94163   0.36705   0.55821   0.00000  Uiso   1.00
C48    C     0.05617   0.39158   0.54562   0.00000  Uiso   1.00
C49    C     0.09354   0.41389   0.46732   0.00000  Uiso   1.00
C50    C     0.20103   0.43422   0.46940   0.00000  Uiso   1.00
C51    C     0.36863   0.47258   0.43802   0.00000  Uiso   1.00
C52    C     0.96770   0.31578   0.58772   0.00000  Uiso   1.00
C53    C     0.93067   0.27435   0.54482   0.00000  Uiso   1.00
C54    C     0.96368   0.23086   0.58236   0.00000  Uiso   1.00
C55    C     0.99386   0.15154   0.61638   0.00000  Uiso   1.00
C56    C     0.88629   0.39135   0.63926   0.00000  Uiso   1.00
C57    C     0.78080   0.41345   0.63970   0.00000  Uiso   1.00
C58    C     0.74525   0.43358   0.72064   0.00000  Uiso   1.00
C59    C     0.64903   0.47159   0.83468   0.00000  Uiso   1.00
C60    C     0.06608   0.36349   0.70116   0.00000  Uiso   1.00
C61    C     0.12377   0.38965   0.62326   0.00000  Uiso   1.00
C62    C     0.23123   0.40995   0.62547   0.00000  Uiso   1.00
C63    C     0.26875   0.43228   0.54719   0.00000  Uiso   1.00
C64    C     0.03530   0.31384   0.66536   0.00000  Uiso   1.00
C65    C     0.06836   0.27041   0.70298   0.00000  Uiso   1.00
C66    C     0.03140   0.22892   0.66014   0.00000  Uiso   1.00
C67    C     0.95389   0.38941   0.71690   0.00000  Uiso   1.00
C68    C     0.91849   0.40951   0.79786   0.00000  Uiso   1.00
C69    C     0.81297   0.43164   0.79843   0.00000  Uiso   1.00
H70    H     0.88900   0.36856   0.49777   0.00000  Uiso   1.00
H71    H     0.04120   0.41538   0.40724   0.00000  Uiso   1.00
H72    H     0.87835   0.27586   0.48474   0.00000  Uiso   1.00
H73    H     0.72851   0.41494   0.57961   0.00000  Uiso   1.00
H74    H     0.23978   0.46642   0.34110   0.00000  Uiso   1.00
H75    H     0.89637   0.17224   0.50454   0.00000  Uiso   1.00
H76    H     0.58039   0.46552   0.70458   0.00000  Uiso   1.00
H77    H     0.11870   0.36198   0.76162   0.00000  Uiso   1.00
H78    H     0.28352   0.40844   0.68557   0.00000  Uiso   1.00
H79    H     0.12067   0.26892   0.76306   0.00000  Uiso   1.00
H80    H     0.97082   0.40801   0.85793   0.00000  Uiso   1.00
H81    H     0.43645   0.46079   0.56700   0.00000  Uiso   1.00
H82    H     0.09303   0.16660   0.73044   0.00000  Uiso   1.00
H83    H     0.77706   0.45989   0.93048   0.00000  Uiso   1.00
O84    O     0.44241   0.49427   0.39926   0.00000  Uiso   1.00
O85    O     0.99184   0.10832   0.61368   0.00000  Uiso   1.00
O86    O     0.57729   0.49310   0.87613   0.00000  Uiso   1.00
N87    N     0.26344   0.45873   0.40471   0.00000  Uiso   1.00
N88    N     0.94238   0.18368   0.55750   0.00000  Uiso   1.00
N89    N     0.64696   0.45787   0.74453   0.00000  Uiso   1.00
N90    N     0.36927   0.45570   0.52627   0.00000  Uiso   1.00
N91    N     0.04821   0.18065   0.67906   0.00000  Uiso   1.00
N92    N     0.75278   0.45484   0.86609   0.00000  Uiso   1.00
C93    C     0.44163   0.63295   0.94179   0.00000  Uiso   1.00
C94    C     0.55617   0.60842   0.95438   0.00000  Uiso   1.00
C95    C     0.59354   0.58611   0.03268   0.00000  Uiso   1.00
C96    C     0.70103   0.56578   0.03060   0.00000  Uiso   1.00
C97    C     0.86863   0.52742   0.06198   0.00000  Uiso   1.00
C98    C     0.46770   0.68422   0.91228   0.00000  Uiso   1.00
C99    C     0.43067   0.72565   0.95518   0.00000  Uiso   1.00
C100   C     0.46368   0.76914   0.91764   0.00000  Uiso   1.00
C101   C     0.49386   0.84846   0.88362   0.00000  Uiso   1.00
C102   C     0.38629   0.60865   0.86074   0.00000  Uiso   1.00
C103   C     0.28080   0.58655   0.86030   0.00000  Uiso   1.00
C104   C     0.24525   0.56642   0.77936   0.00000  Uiso   1.00
C105   C     0.14903   0.52841   0.66532   0.00000  Uiso   1.00
C106   C     0.56608   0.63651   0.79884   0.00000  Uiso   1.00
C107   C     0.62377   0.61035   0.87674   0.00000  Uiso   1.00
C108   C     0.73123   0.59005   0.87453   0.00000  Uiso   1.00
C109   C     0.76875   0.56772   0.95281   0.00000  Uiso   1.00
C110   C     0.53530   0.68616   0.83464   0.00000  Uiso   1.00
C111   C     0.56836   0.72959   0.79702   0.00000  Uiso   1.00
C112   C     0.53140   0.77108   0.83986   0.00000  Uiso   1.00
C113   C     0.45389   0.61059   0.78310   0.00000  Uiso   1.00
C114   C     0.41849   0.59049   0.70214   0.00000  Uiso   1.00
C115   C     0.31297   0.56836   0.70157   0.00000  Uiso   1.00
H116   H     0.38900   0.63144   0.00223   0.00000  Uiso   1.00
H117   H     0.54120   0.58462   0.09276   0.00000  Uiso   1.00
H118   H     0.37835   0.72414   0.01526   0.00000  Uiso   1.00
H119   H     0.22851   0.58506   0.92039   0.00000  Uiso   1.00
H120   H     0.73978   0.53358   0.15890   0.00000  Uiso   1.00
H121   H     0.39637   0.82776   0.99546   0.00000  Uiso   1.00
H122   H     0.08039   0.53448   0.79542   0.00000  Uiso   1.00
H123   H     0.61870   0.63802   0.73838   0.00000  Uiso   1.00
H124   H     0.78352   0.59156   0.81443   0.00000  Uiso   1.00
H125   H     0.62067   0.73108   0.73694   0.00000  Uiso   1.00
H126   H     0.47082   0.59199   0.64207   0.00000  Uiso   1.00
H127   H     0.93645   0.53921   0.93300   0.00000  Uiso   1.00
H128   H     0.59303   0.83340   0.76956   0.00000  Uiso   1.00
H129   H     0.27706   0.54011   0.56952   0.00000  Uiso   1.00
O130   O     0.94241   0.50573   0.10074   0.00000  Uiso   1.00
O131   O     0.49184   0.89168   0.88632   0.00000  Uiso   1.00
O132   O     0.07729   0.50690   0.62387   0.00000  Uiso   1.00
N133   N     0.76344   0.54127   0.09529   0.00000  Uiso   1.00
N134   N     0.44238   0.81632   0.94250   0.00000  Uiso   1.00
N135   N     0.14696   0.54213   0.75547   0.00000  Uiso   1.00
N136   N     0.86927   0.54430   0.97373   0.00000  Uiso   1.00
N137   N     0.54821   0.81935   0.82094   0.00000  Uiso   1.00
N138   N     0.25278   0.54516   0.63391   0.00000  Uiso   1.00
C139   C     0.05837   0.86705   0.94179   0.00000  Uiso   1.00
C140   C     0.94383   0.89158   0.95438   0.00000  Uiso   1.00
C141   C     0.90646   0.91389   0.03268   0.00000  Uiso   1.00
C142   C     0.79897   0.93422   0.03060   0.00000  Uiso   1.00
C143   C     0.63137   0.97258   0.06198   0.00000  Uiso   1.00
C144   C     0.03230   0.81578   0.91228   0.00000  Uiso   1.00
C145   C     0.06933   0.77435   0.95518   0.00000  Uiso   1.00
C146   C     0.03632   0.73086   0.91764   0.00000  Uiso   1.00
C147   C     0.00614   0.65154   0.88362   0.00000  Uiso   1.00
C148   C     0.11371   0.89135   0.86074   0.00000  Uiso   1.00
C149   C     0.21920   0.91345   0.86030   0.00000  Uiso   1.00
C150   C     0.25475   0.93358   0.77936   0.00000  Uiso   1.00
C151   C     0.35097   0.97159   0.66532   0.00000  Uiso   1.00
C152   C     0.93392   0.86349   0.79884   0.00000  Uiso   1.00
C153   C     0.87623   0.88965   0.87674   0.00000  Uiso   1.00
C154   C     0.76877   0.90995   0.87453   0.00000  Uiso   1.00
C155   C     0.73125   0.93228   0.95281   0.00000  Uiso   1.00
C156   C     0.96470   0.81384   0.83464   0.00000  Uiso   1.00
C157   C     0.93164   0.77041   0.79702   0.00000  Uiso   1.00
C158   C     0.96860   0.72892   0.83986   0.00000  Uiso   1.00
C159   C     0.04611   0.88941   0.78310   0.00000  Uiso   1.00
C160   C     0.08151   0.90951   0.70214   0.00000  Uiso   1.00
C161   C     0.18703   0.93164   0.70157   0.00000  Uiso   1.00
H162   H     0.11100   0.86856   0.00223   0.00000  Uiso   1.00
H163   H     0.95880   0.91538   0.09276   0.00000  Uiso   1.00
H164   H     0.12165   0.77586   0.01526   0.00000  Uiso   1.00
H165   H     0.27149   0.91494   0.92039   0.00000  Uiso   1.00
H166   H     0.76022   0.96642   0.15890   0.00000  Uiso   1.00
H167   H     0.10363   0.67224   0.99546   0.00000  Uiso   1.00
H168   H     0.41961   0.96552   0.79542   0.00000  Uiso   1.00
H169   H     0.88130   0.86198   0.73838   0.00000  Uiso   1.00
H170   H     0.71648   0.90844   0.81443   0.00000  Uiso   1.00
H171   H     0.87933   0.76892   0.73694   0.00000  Uiso   1.00
H172   H     0.02918   0.90801   0.64207   0.00000  Uiso   1.00
H173   H     0.56355   0.96079   0.93300   0.00000  Uiso   1.00
H174   H     0.90697   0.66660   0.76956   0.00000  Uiso   1.00
H175   H     0.22294   0.95989   0.56952   0.00000  Uiso   1.00
O176   O     0.55759   0.99427   0.10074   0.00000  Uiso   1.00
O177   O     0.00816   0.60832   0.88632   0.00000  Uiso   1.00
O178   O     0.42271   0.99310   0.62387   0.00000  Uiso   1.00
N179   N     0.73656   0.95873   0.09529   0.00000  Uiso   1.00
N180   N     0.05762   0.68368   0.94250   0.00000  Uiso   1.00
N181   N     0.35304   0.95787   0.75547   0.00000  Uiso   1.00
N182   N     0.63073   0.95570   0.97373   0.00000  Uiso   1.00
N183   N     0.95179   0.68065   0.82094   0.00000  Uiso   1.00
N184   N     0.24722   0.95484   0.63391   0.00000  Uiso   1.00
C185   C     0.44163   0.86705   0.44179   0.00000  Uiso   1.00
C186   C     0.55617   0.89158   0.45438   0.00000  Uiso   1.00
C187   C     0.59354   0.91389   0.53268   0.00000  Uiso   1.00
C188   C     0.70103   0.93422   0.53060   0.00000  Uiso   1.00
C189   C     0.86863   0.97258   0.56198   0.00000  Uiso   1.00
C190   C     0.46770   0.81578   0.41228   0.00000  Uiso   1.00
C191   C     0.43067   0.77435   0.45518   0.00000  Uiso   1.00
C192   C     0.46368   0.73086   0.41764   0.00000  Uiso   1.00
C193   C     0.49386   0.65154   0.38362   0.00000  Uiso   1.00
C194   C     0.38629   0.89135   0.36074   0.00000  Uiso   1.00
C195   C     0.28080   0.91345   0.36030   0.00000  Uiso   1.00
C196   C     0.24525   0.93358   0.27936   0.00000  Uiso   1.00
C197   C     0.14903   0.97159   0.16532   0.00000  Uiso   1.00
C198   C     0.56608   0.86349   0.29884   0.00000  Uiso   1.00
C199   C     0.62377   0.88965   0.37674   0.00000  Uiso   1.00
C200   C     0.73123   0.90995   0.37453   0.00000  Uiso   1.00
C201   C     0.76875   0.93228   0.45281   0.00000  Uiso   1.00
C202   C     0.53530   0.81384   0.33464   0.00000  Uiso   1.00
C203   C     0.56836   0.77041   0.29702   0.00000  Uiso   1.00
C204   C     0.53140   0.72892   0.33986   0.00000  Uiso   1.00
C205   C     0.45389   0.88941   0.28310   0.00000  Uiso   1.00
C206   C     0.41849   0.90951   0.20214   0.00000  Uiso   1.00
C207   C     0.31297   0.93164   0.20157   0.00000  Uiso   1.00
H208   H     0.38900   0.86856   0.50223   0.00000  Uiso   1.00
H209   H     0.54120   0.91538   0.59276   0.00000  Uiso   1.00
H210   H     0.37835   0.77586   0.51526   0.00000  Uiso   1.00
H211   H     0.22851   0.91494   0.42039   0.00000  Uiso   1.00
H212   H     0.73978   0.96642   0.65890   0.00000  Uiso   1.00
H213   H     0.39637   0.67224   0.49546   0.00000  Uiso   1.00
H214   H     0.08039   0.96552   0.29542   0.00000  Uiso   1.00
H215   H     0.61870   0.86198   0.23838   0.00000  Uiso   1.00
H216   H     0.78352   0.90844   0.31443   0.00000  Uiso   1.00
H217   H     0.62067   0.76892   0.23694   0.00000  Uiso   1.00
H218   H     0.47082   0.90801   0.14207   0.00000  Uiso   1.00
H219   H     0.93645   0.96079   0.43300   0.00000  Uiso   1.00
H220   H     0.59303   0.66660   0.26956   0.00000  Uiso   1.00
H221   H     0.27706   0.95989   0.06952   0.00000  Uiso   1.00
O222   O     0.94241   0.99427   0.60074   0.00000  Uiso   1.00
O223   O     0.49184   0.60832   0.38632   0.00000  Uiso   1.00
O224   O     0.07729   0.99310   0.12387   0.00000  Uiso   1.00
N225   N     0.76344   0.95873   0.59529   0.00000  Uiso   1.00
N226   N     0.44238   0.68368   0.44250   0.00000  Uiso   1.00
N227   N     0.14696   0.95787   0.25547   0.00000  Uiso   1.00
N228   N     0.86927   0.95570   0.47373   0.00000  Uiso   1.00
N229   N     0.54821   0.68065   0.32094   0.00000  Uiso   1.00
N230   N     0.25278   0.95484   0.13391   0.00000  Uiso   1.00
C231   C     0.05837   0.63295   0.44179   0.00000  Uiso   1.00
C232   C     0.94383   0.60842   0.45438   0.00000  Uiso   1.00
C233   C     0.90646   0.58611   0.53268   0.00000  Uiso   1.00
C234   C     0.79897   0.56578   0.53060   0.00000  Uiso   1.00
C235   C     0.63137   0.52742   0.56198   0.00000  Uiso   1.00
C236   C     0.03230   0.68422   0.41228   0.00000  Uiso   1.00
C237   C     0.06933   0.72565   0.45518   0.00000  Uiso   1.00
C238   C     0.03632   0.76914   0.41764   0.00000  Uiso   1.00
C239   C     0.00614   0.84846   0.38362   0.00000  Uiso   1.00
C240   C     0.11371   0.60865   0.36074   0.00000  Uiso   1.00
C241   C     0.21920   0.58655   0.36030   0.00000  Uiso   1.00
C242   C     0.25475   0.56642   0.27936   0.00000  Uiso   1.00
C243   C     0.35097   0.52841   0.16532   0.00000  Uiso   1.00
C244   C     0.93392   0.63651   0.29884   0.00000  Uiso   1.00
C245   C     0.87623   0.61035   0.37674   0.00000  Uiso   1.00
C246   C     0.76877   0.59005   0.37453   0.00000  Uiso   1.00
C247   C     0.73125   0.56772   0.45281   0.00000  Uiso   1.00
C248   C     0.96470   0.68616   0.33464   0.00000  Uiso   1.00
C249   C     0.93164   0.72959   0.29702   0.00000  Uiso   1.00
C250   C     0.96860   0.77108   0.33986   0.00000  Uiso   1.00
C251   C     0.04611   0.61059   0.28310   0.00000  Uiso   1.00
C252   C     0.08151   0.59049   0.20214   0.00000  Uiso   1.00
C253   C     0.18703   0.56836   0.20157   0.00000  Uiso   1.00
H254   H     0.11100   0.63144   0.50223   0.00000  Uiso   1.00
H255   H     0.95880   0.58462   0.59276   0.00000  Uiso   1.00
H256   H     0.12165   0.72414   0.51526   0.00000  Uiso   1.00
H257   H     0.27149   0.58506   0.42039   0.00000  Uiso   1.00
H258   H     0.76022   0.53358   0.65890   0.00000  Uiso   1.00
H259   H     0.10363   0.82776   0.49546   0.00000  Uiso   1.00
H260   H     0.41961   0.53448   0.29542   0.00000  Uiso   1.00
H261   H     0.88130   0.63802   0.23838   0.00000  Uiso   1.00
H262   H     0.71648   0.59156   0.31443   0.00000  Uiso   1.00
H263   H     0.87933   0.73108   0.23694   0.00000  Uiso   1.00
H264   H     0.02918   0.59199   0.14207   0.00000  Uiso   1.00
H265   H     0.56355   0.53921   0.43300   0.00000  Uiso   1.00
H266   H     0.90697   0.83340   0.26956   0.00000  Uiso   1.00
H267   H     0.22294   0.54011   0.06952   0.00000  Uiso   1.00
O268   O     0.55759   0.50573   0.60074   0.00000  Uiso   1.00
O269   O     0.00816   0.89168   0.38632   0.00000  Uiso   1.00
O270   O     0.42271   0.50690   0.12387   0.00000  Uiso   1.00
N271   N     0.73656   0.54127   0.59529   0.00000  Uiso   1.00
N272   N     0.05762   0.81632   0.44250   0.00000  Uiso   1.00
N273   N     0.35304   0.54213   0.25547   0.00000  Uiso   1.00
N274   N     0.63073   0.54430   0.47373   0.00000  Uiso   1.00
N275   N     0.95179   0.81935   0.32094   0.00000  Uiso   1.00
N276   N     0.24722   0.54516   0.13391   0.00000  Uiso   1.00
C277   C     0.55837   0.36705   0.05821   0.00000  Uiso   1.00
C278   C     0.44383   0.39158   0.04562   0.00000  Uiso   1.00
C279   C     0.40646   0.41389   0.96732   0.00000  Uiso   1.00
C280   C     0.29897   0.43422   0.96940   0.00000  Uiso   1.00
C281   C     0.13137   0.47258   0.93802   0.00000  Uiso   1.00
C282   C     0.53230   0.31578   0.08772   0.00000  Uiso   1.00
C283   C     0.56933   0.27435   0.04482   0.00000  Uiso   1.00
C284   C     0.53632   0.23086   0.08236   0.00000  Uiso   1.00
C285   C     0.50614   0.15154   0.11638   0.00000  Uiso   1.00
C286   C     0.61371   0.39135   0.13926   0.00000  Uiso   1.00
C287   C     0.71920   0.41345   0.13970   0.00000  Uiso   1.00
C288   C     0.75475   0.43358   0.22064   0.00000  Uiso   1.00
C289   C     0.85097   0.47159   0.33468   0.00000  Uiso   1.00
C290   C     0.43392   0.36349   0.20116   0.00000  Uiso   1.00
C291   C     0.37623   0.38965   0.12326   0.00000  Uiso   1.00
C292   C     0.26877   0.40995   0.12547   0.00000  Uiso   1.00
C293   C     0.23125   0.43228   0.04719   0.00000  Uiso   1.00
C294   C     0.46470   0.31384   0.16536   0.00000  Uiso   1.00
C295   C     0.43164   0.27041   0.20298   0.00000  Uiso   1.00
C296   C     0.46860   0.22892   0.16014   0.00000  Uiso   1.00
C297   C     0.54611   0.38941   0.21690   0.00000  Uiso   1.00
C298   C     0.58151   0.40951   0.29786   0.00000  Uiso   1.00
C299   C     0.68703   0.43164   0.29843   0.00000  Uiso   1.00
H300   H     0.61100   0.36856   0.99777   0.00000  Uiso   1.00
H301   H     0.45880   0.41538   0.90724   0.00000  Uiso   1.00
H302   H     0.62165   0.27586   0.98474   0.00000  Uiso   1.00
H303   H     0.77149   0.41494   0.07961   0.00000  Uiso   1.00
H304   H     0.26022   0.46642   0.84110   0.00000  Uiso   1.00
H305   H     0.60363   0.17224   0.00454   0.00000  Uiso   1.00
H306   H     0.91961   0.46552   0.20458   0.00000  Uiso   1.00
H307   H     0.38130   0.36198   0.26162   0.00000  Uiso   1.00
H308   H     0.21648   0.40844   0.18557   0.00000  Uiso   1.00
H309   H     0.37933   0.26892   0.26306   0.00000  Uiso   1.00
H310   H     0.52918   0.40801   0.35793   0.00000  Uiso   1.00
H311   H     0.06355   0.46079   0.06700   0.00000  Uiso   1.00
H312   H     0.40697   0.16660   0.23044   0.00000  Uiso   1.00
H313   H     0.72294   0.45989   0.43048   0.00000  Uiso   1.00
O314   O     0.05759   0.49427   0.89926   0.00000  Uiso   1.00
O315   O     0.50816   0.10832   0.11368   0.00000  Uiso   1.00
O316   O     0.92271   0.49310   0.37613   0.00000  Uiso   1.00
N317   N     0.23656   0.45873   0.90471   0.00000  Uiso   1.00
N318   N     0.55762   0.18368   0.05750   0.00000  Uiso   1.00
N319   N     0.85304   0.45787   0.24453   0.00000  Uiso   1.00
N320   N     0.13073   0.45570   0.02627   0.00000  Uiso   1.00
N321   N     0.45179   0.18065   0.17906   0.00000  Uiso   1.00
N322   N     0.74722   0.45484   0.36609   0.00000  Uiso   1.00
C323   C     0.94163   0.13295   0.05821   0.00000  Uiso   1.00
C324   C     0.05617   0.10842   0.04562   0.00000  Uiso   1.00
C325   C     0.09354   0.08611   0.96732   0.00000  Uiso   1.00
C326   C     0.20103   0.06578   0.96940   0.00000  Uiso   1.00
C327   C     0.36863   0.02742   0.93802   0.00000  Uiso   1.00
C328   C     0.96770   0.18422   0.08772   0.00000  Uiso   1.00
C329   C     0.93067   0.22565   0.04482   0.00000  Uiso   1.00
C330   C     0.96368   0.26914   0.08236   0.00000  Uiso   1.00
C331   C     0.99386   0.34846   0.11638   0.00000  Uiso   1.00
C332   C     0.88629   0.10865   0.13926   0.00000  Uiso   1.00
C333   C     0.78080   0.08655   0.13970   0.00000  Uiso   1.00
C334   C     0.74525   0.06642   0.22064   0.00000  Uiso   1.00
C335   C     0.64903   0.02841   0.33468   0.00000  Uiso   1.00
C336   C     0.06608   0.13651   0.20116   0.00000  Uiso   1.00
C337   C     0.12377   0.11035   0.12326   0.00000  Uiso   1.00
C338   C     0.23123   0.09005   0.12547   0.00000  Uiso   1.00
C339   C     0.26875   0.06772   0.04719   0.00000  Uiso   1.00
C340   C     0.03530   0.18616   0.16536   0.00000  Uiso   1.00
C341   C     0.06836   0.22959   0.20298   0.00000  Uiso   1.00
C342   C     0.03140   0.27108   0.16014   0.00000  Uiso   1.00
C343   C     0.95389   0.11059   0.21690   0.00000  Uiso   1.00
C344   C     0.91849   0.09049   0.29786   0.00000  Uiso   1.00
C345   C     0.81297   0.06836   0.29843   0.00000  Uiso   1.00
H346   H     0.88900   0.13144   0.99777   0.00000  Uiso   1.00
H347   H     0.04120   0.08462   0.90724   0.00000  Uiso   1.00
H348   H     0.87835   0.22414   0.98474   0.00000  Uiso   1.00
H349   H     0.72851   0.08506   0.07961   0.00000  Uiso   1.00
H350   H     0.23978   0.03358   0.84110   0.00000  Uiso   1.00
H351   H     0.89637   0.32776   0.00454   0.00000  Uiso   1.00
H352   H     0.58039   0.03448   0.20458   0.00000  Uiso   1.00
H353   H     0.11870   0.13802   0.26162   0.00000  Uiso   1.00
H354   H     0.28352   0.09156   0.18557   0.00000  Uiso   1.00
H355   H     0.12067   0.23108   0.26306   0.00000  Uiso   1.00
H356   H     0.97082   0.09199   0.35793   0.00000  Uiso   1.00
H357   H     0.43645   0.03921   0.06700   0.00000  Uiso   1.00
H358   H     0.09303   0.33340   0.23044   0.00000  Uiso   1.00
H359   H     0.77706   0.04011   0.43048   0.00000  Uiso   1.00
O360   O     0.44241   0.00573   0.89926   0.00000  Uiso   1.00
O361   O     0.99184   0.39168   0.11368   0.00000  Uiso   1.00
O362   O     0.57729   0.00690   0.37613   0.00000  Uiso   1.00
N363   N     0.26344   0.04127   0.90471   0.00000  Uiso   1.00
N364   N     0.94238   0.31632   0.05750   0.00000  Uiso   1.00
N365   N     0.64696   0.04213   0.24453   0.00000  Uiso   1.00
N366   N     0.36927   0.04430   0.02627   0.00000  Uiso   1.00
N367   N     0.04821   0.31935   0.17906   0.00000  Uiso   1.00
N368   N     0.75278   0.04516   0.36609   0.00000  Uiso   1.00
