data_job_03810
_audit_creation_date              2018-12-19
_audit_creation_method            'Materials Studio'
_symmetry_space_group_name_H-M    'P1'
_symmetry_Int_Tables_number       1
_symmetry_cell_setting            triclinic
loop_
_symmetry_equiv_pos_as_xyz
  x,y,z
_cell_length_a                    15.4893
_cell_length_b                    15.4893
_cell_length_c                    19.0766
_cell_angle_alpha                 90.0000
_cell_angle_beta                  90.0000
_cell_angle_gamma                 120.0000
loop_
_atom_site_label
_atom_site_type_symbol
_atom_site_fract_x
_atom_site_fract_y
_atom_site_fract_z
_atom_site_U_iso_or_equiv
_atom_site_adp_type
_atom_site_occupancy
C1     C     0.41197   0.33235   0.53257   0.00000  Uiso   1.00
C2     C     0.39912   0.25272   0.58525   0.00000  Uiso   1.00
C3     C     0.31420   0.19410   0.62467   0.00000  Uiso   1.00
C4     C     0.31729   0.12552   0.66995   0.00000  Uiso   1.00
C5     C     0.28443   0.00336   0.75093   0.00000  Uiso   1.00
C6     C     0.50378   0.42851   0.55617   0.00000  Uiso   1.00
C7     C     0.50686   0.51769   0.57114   0.00000  Uiso   1.00
C8     C     0.59805   0.59709   0.59192   0.00000  Uiso   1.00
C9     C     0.72769   0.74786   0.62771   0.00000  Uiso   1.00
C10    C     0.44025   0.30379   0.46334   0.00000  Uiso   1.00
C11    C     0.38992   0.28813   0.40025   0.00000  Uiso   1.00
C12    C     0.42764   0.26254   0.34288   0.00000  Uiso   1.00
C13    C     0.45863   0.21967   0.23453   0.00000  Uiso   1.00
C14    C     0.56846   0.31478   0.54286   0.00000  Uiso   1.00
C15    C     0.48412   0.24318   0.59084   0.00000  Uiso   1.00
C16    C     0.48734   0.17466   0.63607   0.00000  Uiso   1.00
C17    C     0.40244   0.11595   0.67555   0.00000  Uiso   1.00
C18    C     0.58878   0.41897   0.56176   0.00000  Uiso   1.00
C19    C     0.67999   0.49825   0.58253   0.00000  Uiso   1.00
C20    C     0.68320   0.58753   0.59753   0.00000  Uiso   1.00
C21    C     0.52524   0.29424   0.46893   0.00000  Uiso   1.00
C22    C     0.56305   0.26869   0.41165   0.00000  Uiso   1.00
C23    C     0.51279   0.25299   0.34848   0.00000  Uiso   1.00
H24    H     0.34580   0.33979   0.52821   0.00000  Uiso   1.00
H25    H     0.24844   0.20152   0.62034   0.00000  Uiso   1.00
H26    H     0.44107   0.52506   0.56680   0.00000  Uiso   1.00
H27    H     0.32415   0.29552   0.39594   0.00000  Uiso   1.00
H28    H     0.17800   0.04404   0.72496   0.00000  Uiso   1.00
H29    H     0.58417   0.72624   0.61205   0.00000  Uiso   1.00
H30    H     0.33762   0.24224   0.25176   0.00000  Uiso   1.00
H31    H     0.63464   0.30736   0.54722   0.00000  Uiso   1.00
H32    H     0.55313   0.16730   0.64038   0.00000  Uiso   1.00
H33    H     0.74576   0.49084   0.58685   0.00000  Uiso   1.00
H34    H     0.62883   0.26131   0.41599   0.00000  Uiso   1.00
H35    H     0.42529   0.01627   0.74123   0.00000  Uiso   1.00
H36    H     0.83147   0.69848   0.62832   0.00000  Uiso   1.00
H37    H     0.58492   0.21447   0.26804   0.00000  Uiso   1.00
O38    O     0.24283   0.93863   0.79405   0.00000  Uiso   1.00
O39    O     0.77571   0.83366   0.64591   0.00000  Uiso   1.00
O40    O     0.45224   0.19865   0.17323   0.00000  Uiso   1.00
N41    N     0.24738   0.05671   0.71599   0.00000  Uiso   1.00
N42    N     0.62712   0.69453   0.61044   0.00000  Uiso   1.00
N43    N     0.39663   0.24205   0.27360   0.00000  Uiso   1.00
N44    N     0.38045   0.04176   0.72474   0.00000  Uiso   1.00
N45    N     0.76019   0.67958   0.61919   0.00000  Uiso   1.00
N46    N     0.52970   0.22710   0.28235   0.00000  Uiso   1.00
C47    C     0.66765   0.07962   0.86590   0.00000  Uiso   1.00
C48    C     0.74728   0.14640   0.91858   0.00000  Uiso   1.00
C49    C     0.80590   0.12010   0.95801   0.00000  Uiso   1.00
C50    C     0.87448   0.19177   0.00328   0.00000  Uiso   1.00
C51    C     0.99664   0.28107   0.08426   0.00000  Uiso   1.00
C52    C     0.57149   0.07527   0.88951   0.00000  Uiso   1.00
C53    C     0.48231   0.98916   0.90447   0.00000  Uiso   1.00
C54    C     0.40291   0.00097   0.92526   0.00000  Uiso   1.00
C55    C     0.25214   0.97983   0.96104   0.00000  Uiso   1.00
C56    C     0.69621   0.13646   0.79668   0.00000  Uiso   1.00
C57    C     0.71187   0.10179   0.73358   0.00000  Uiso   1.00
C58    C     0.73746   0.16509   0.67621   0.00000  Uiso   1.00
C59    C     0.78033   0.23896   0.56786   0.00000  Uiso   1.00
C60    C     0.68522   0.25368   0.87620   0.00000  Uiso   1.00
C61    C     0.75682   0.24094   0.92418   0.00000  Uiso   1.00
C62    C     0.82534   0.31267   0.96940   0.00000  Uiso   1.00
C63    C     0.88405   0.28648   0.00888   0.00000  Uiso   1.00
C64    C     0.58103   0.16981   0.89510   0.00000  Uiso   1.00
C65    C     0.50175   0.18174   0.91586   0.00000  Uiso   1.00
C66    C     0.41247   0.09568   0.93086   0.00000  Uiso   1.00
C67    C     0.70576   0.23100   0.80227   0.00000  Uiso   1.00
C68    C     0.73131   0.29437   0.74498   0.00000  Uiso   1.00
C69    C     0.74701   0.25980   0.68181   0.00000  Uiso   1.00
H70    H     0.66021   0.00601   0.86155   0.00000  Uiso   1.00
H71    H     0.79848   0.04692   0.95367   0.00000  Uiso   1.00
H72    H     0.47494   0.91601   0.90013   0.00000  Uiso   1.00
H73    H     0.70448   0.02862   0.72928   0.00000  Uiso   1.00
H74    H     0.95596   0.13396   0.05829   0.00000  Uiso   1.00
H75    H     0.27376   0.85793   0.94538   0.00000  Uiso   1.00
H76    H     0.75776   0.09538   0.58510   0.00000  Uiso   1.00
H77    H     0.69264   0.32728   0.88055   0.00000  Uiso   1.00
H78    H     0.83270   0.38583   0.97372   0.00000  Uiso   1.00
H79    H     0.50916   0.25491   0.92018   0.00000  Uiso   1.00
H80    H     0.73869   0.36752   0.74933   0.00000  Uiso   1.00
H81    H     0.98373   0.40903   0.07456   0.00000  Uiso   1.00
H82    H     0.30152   0.13299   0.96165   0.00000  Uiso   1.00
H83    H     0.78553   0.37045   0.60137   0.00000  Uiso   1.00
O84    O     0.06137   0.30420   0.12739   0.00000  Uiso   1.00
O85    O     0.16634   0.94205   0.97924   0.00000  Uiso   1.00
O86    O     0.80135   0.25359   0.50656   0.00000  Uiso   1.00
N87    N     0.94329   0.19067   0.04932   0.00000  Uiso   1.00
N88    N     0.30547   0.93260   0.94377   0.00000  Uiso   1.00
N89    N     0.75795   0.15459   0.60693   0.00000  Uiso   1.00
N90    N     0.95824   0.33868   0.05808   0.00000  Uiso   1.00
N91    N     0.32042   0.08061   0.95253   0.00000  Uiso   1.00
N92    N     0.77290   0.30260   0.61569   0.00000  Uiso   1.00
C93    C     0.92038   0.58803   0.19923   0.00000  Uiso   1.00
C94    C     0.85360   0.60088   0.25192   0.00000  Uiso   1.00
C95    C     0.87990   0.68580   0.29134   0.00000  Uiso   1.00
C96    C     0.80823   0.68271   0.33662   0.00000  Uiso   1.00
C97    C     0.71893   0.71557   0.41759   0.00000  Uiso   1.00
C98    C     0.92473   0.49622   0.22284   0.00000  Uiso   1.00
C99    C     0.01084   0.49314   0.23780   0.00000  Uiso   1.00
C100   C     0.99903   0.40195   0.25859   0.00000  Uiso   1.00
C101   C     0.02017   0.27231   0.29437   0.00000  Uiso   1.00
C102   C     0.86354   0.55975   0.13001   0.00000  Uiso   1.00
C103   C     0.89821   0.61008   0.06692   0.00000  Uiso   1.00
C104   C     0.83491   0.57236   0.00955   0.00000  Uiso   1.00
C105   C     0.76104   0.54137   0.90120   0.00000  Uiso   1.00
C106   C     0.74632   0.43154   0.20953   0.00000  Uiso   1.00
C107   C     0.75906   0.51588   0.25751   0.00000  Uiso   1.00
C108   C     0.68733   0.51266   0.30273   0.00000  Uiso   1.00
C109   C     0.71352   0.59756   0.34222   0.00000  Uiso   1.00
C110   C     0.83019   0.41122   0.22843   0.00000  Uiso   1.00
C111   C     0.81826   0.32001   0.24920   0.00000  Uiso   1.00
C112   C     0.90432   0.31680   0.26419   0.00000  Uiso   1.00
C113   C     0.76900   0.47476   0.13560   0.00000  Uiso   1.00
C114   C     0.70563   0.43695   0.07831   0.00000  Uiso   1.00
C115   C     0.74020   0.48721   0.01515   0.00000  Uiso   1.00
H116   H     0.99399   0.65420   0.19488   0.00000  Uiso   1.00
H117   H     0.95308   0.75156   0.28700   0.00000  Uiso   1.00
H118   H     0.08399   0.55893   0.23346   0.00000  Uiso   1.00
H119   H     0.97138   0.67585   0.06261   0.00000  Uiso   1.00
H120   H     0.86604   0.82200   0.39162   0.00000  Uiso   1.00
H121   H     0.14207   0.41583   0.27871   0.00000  Uiso   1.00
H122   H     0.90462   0.66238   0.91843   0.00000  Uiso   1.00
H123   H     0.67272   0.36536   0.21388   0.00000  Uiso   1.00
H124   H     0.61417   0.44687   0.30705   0.00000  Uiso   1.00
H125   H     0.74509   0.25424   0.25351   0.00000  Uiso   1.00
H126   H     0.63248   0.37117   0.08266   0.00000  Uiso   1.00
H127   H     0.59097   0.57471   0.40790   0.00000  Uiso   1.00
H128   H     0.86701   0.16853   0.29498   0.00000  Uiso   1.00
H129   H     0.62955   0.41508   0.93470   0.00000  Uiso   1.00
O130   O     0.69580   0.75717   0.46072   0.00000  Uiso   1.00
O131   O     0.05795   0.22429   0.31257   0.00000  Uiso   1.00
O132   O     0.74641   0.54776   0.83989   0.00000  Uiso   1.00
N133   N     0.80933   0.75262   0.38266   0.00000  Uiso   1.00
N134   N     0.06740   0.37288   0.27710   0.00000  Uiso   1.00
N135   N     0.84541   0.60337   0.94026   0.00000  Uiso   1.00
N136   N     0.66132   0.61955   0.39141   0.00000  Uiso   1.00
N137   N     0.91939   0.23981   0.28586   0.00000  Uiso   1.00
N138   N     0.69740   0.47030   0.94902   0.00000  Uiso   1.00
C139   C     0.58803   0.66765   0.03257   0.00000  Uiso   1.00
C140   C     0.60088   0.74728   0.08525   0.00000  Uiso   1.00
C141   C     0.68580   0.80590   0.12467   0.00000  Uiso   1.00
C142   C     0.68271   0.87448   0.16995   0.00000  Uiso   1.00
C143   C     0.71557   0.99664   0.25093   0.00000  Uiso   1.00
C144   C     0.49622   0.57149   0.05617   0.00000  Uiso   1.00
C145   C     0.49314   0.48231   0.07114   0.00000  Uiso   1.00
C146   C     0.40195   0.40291   0.09192   0.00000  Uiso   1.00
C147   C     0.27231   0.25214   0.12771   0.00000  Uiso   1.00
C148   C     0.55975   0.69621   0.96334   0.00000  Uiso   1.00
C149   C     0.61008   0.71187   0.90025   0.00000  Uiso   1.00
C150   C     0.57236   0.73746   0.84288   0.00000  Uiso   1.00
C151   C     0.54137   0.78033   0.73453   0.00000  Uiso   1.00
C152   C     0.43154   0.68522   0.04286   0.00000  Uiso   1.00
C153   C     0.51588   0.75682   0.09084   0.00000  Uiso   1.00
C154   C     0.51266   0.82534   0.13607   0.00000  Uiso   1.00
C155   C     0.59756   0.88405   0.17555   0.00000  Uiso   1.00
C156   C     0.41122   0.58103   0.06176   0.00000  Uiso   1.00
C157   C     0.32001   0.50175   0.08253   0.00000  Uiso   1.00
C158   C     0.31680   0.41247   0.09753   0.00000  Uiso   1.00
C159   C     0.47476   0.70576   0.96893   0.00000  Uiso   1.00
C160   C     0.43695   0.73131   0.91165   0.00000  Uiso   1.00
C161   C     0.48721   0.74701   0.84848   0.00000  Uiso   1.00
H162   H     0.65420   0.66021   0.02821   0.00000  Uiso   1.00
H163   H     0.75156   0.79848   0.12034   0.00000  Uiso   1.00
H164   H     0.55893   0.47494   0.06680   0.00000  Uiso   1.00
H165   H     0.67585   0.70448   0.89594   0.00000  Uiso   1.00
H166   H     0.82200   0.95596   0.22496   0.00000  Uiso   1.00
H167   H     0.41583   0.27376   0.11205   0.00000  Uiso   1.00
H168   H     0.66238   0.75776   0.75176   0.00000  Uiso   1.00
H169   H     0.36536   0.69264   0.04722   0.00000  Uiso   1.00
H170   H     0.44687   0.83270   0.14038   0.00000  Uiso   1.00
H171   H     0.25424   0.50916   0.08685   0.00000  Uiso   1.00
H172   H     0.37117   0.73869   0.91599   0.00000  Uiso   1.00
H173   H     0.57471   0.98373   0.24123   0.00000  Uiso   1.00
H174   H     0.16853   0.30152   0.12832   0.00000  Uiso   1.00
H175   H     0.41508   0.78553   0.76804   0.00000  Uiso   1.00
O176   O     0.75717   0.06137   0.29405   0.00000  Uiso   1.00
O177   O     0.22429   0.16634   0.14591   0.00000  Uiso   1.00
O178   O     0.54776   0.80135   0.67323   0.00000  Uiso   1.00
N179   N     0.75262   0.94329   0.21599   0.00000  Uiso   1.00
N180   N     0.37288   0.30547   0.11044   0.00000  Uiso   1.00
N181   N     0.60337   0.75795   0.77360   0.00000  Uiso   1.00
N182   N     0.61955   0.95824   0.22474   0.00000  Uiso   1.00
N183   N     0.23981   0.32042   0.11919   0.00000  Uiso   1.00
N184   N     0.47030   0.77290   0.78235   0.00000  Uiso   1.00
C185   C     0.33235   0.92038   0.36590   0.00000  Uiso   1.00
C186   C     0.25272   0.85360   0.41858   0.00000  Uiso   1.00
C187   C     0.19410   0.87990   0.45801   0.00000  Uiso   1.00
C188   C     0.12552   0.80823   0.50328   0.00000  Uiso   1.00
C189   C     0.00336   0.71893   0.58426   0.00000  Uiso   1.00
C190   C     0.42851   0.92473   0.38951   0.00000  Uiso   1.00
C191   C     0.51769   0.01084   0.40447   0.00000  Uiso   1.00
C192   C     0.59709   0.99903   0.42526   0.00000  Uiso   1.00
C193   C     0.74786   0.02017   0.46104   0.00000  Uiso   1.00
C194   C     0.30379   0.86354   0.29668   0.00000  Uiso   1.00
C195   C     0.28813   0.89821   0.23358   0.00000  Uiso   1.00
C196   C     0.26254   0.83491   0.17621   0.00000  Uiso   1.00
C197   C     0.21967   0.76104   0.06786   0.00000  Uiso   1.00
C198   C     0.31478   0.74632   0.37620   0.00000  Uiso   1.00
C199   C     0.24318   0.75906   0.42418   0.00000  Uiso   1.00
C200   C     0.17466   0.68733   0.46940   0.00000  Uiso   1.00
C201   C     0.11595   0.71352   0.50888   0.00000  Uiso   1.00
C202   C     0.41897   0.83019   0.39510   0.00000  Uiso   1.00
C203   C     0.49825   0.81826   0.41586   0.00000  Uiso   1.00
C204   C     0.58753   0.90432   0.43086   0.00000  Uiso   1.00
C205   C     0.29424   0.76900   0.30227   0.00000  Uiso   1.00
C206   C     0.26869   0.70563   0.24498   0.00000  Uiso   1.00
C207   C     0.25299   0.74020   0.18181   0.00000  Uiso   1.00
H208   H     0.33979   0.99399   0.36155   0.00000  Uiso   1.00
H209   H     0.20152   0.95308   0.45367   0.00000  Uiso   1.00
H210   H     0.52506   0.08399   0.40013   0.00000  Uiso   1.00
H211   H     0.29552   0.97138   0.22928   0.00000  Uiso   1.00
H212   H     0.04404   0.86604   0.55829   0.00000  Uiso   1.00
H213   H     0.72624   0.14207   0.44538   0.00000  Uiso   1.00
H214   H     0.24224   0.90462   0.08510   0.00000  Uiso   1.00
H215   H     0.30736   0.67272   0.38055   0.00000  Uiso   1.00
H216   H     0.16730   0.61417   0.47372   0.00000  Uiso   1.00
H217   H     0.49084   0.74509   0.42018   0.00000  Uiso   1.00
H218   H     0.26131   0.63248   0.24933   0.00000  Uiso   1.00
H219   H     0.01627   0.59097   0.57456   0.00000  Uiso   1.00
H220   H     0.69848   0.86701   0.46165   0.00000  Uiso   1.00
H221   H     0.21447   0.62955   0.10137   0.00000  Uiso   1.00
O222   O     0.93863   0.69580   0.62739   0.00000  Uiso   1.00
O223   O     0.83366   0.05795   0.47924   0.00000  Uiso   1.00
O224   O     0.19865   0.74641   0.00656   0.00000  Uiso   1.00
N225   N     0.05671   0.80933   0.54932   0.00000  Uiso   1.00
N226   N     0.69453   0.06740   0.44377   0.00000  Uiso   1.00
N227   N     0.24205   0.84541   0.10693   0.00000  Uiso   1.00
N228   N     0.04176   0.66132   0.55808   0.00000  Uiso   1.00
N229   N     0.67958   0.91939   0.45253   0.00000  Uiso   1.00
N230   N     0.22710   0.69740   0.11569   0.00000  Uiso   1.00
C231   C     0.07962   0.41197   0.69923   0.00000  Uiso   1.00
C232   C     0.14640   0.39912   0.75192   0.00000  Uiso   1.00
C233   C     0.12010   0.31420   0.79134   0.00000  Uiso   1.00
C234   C     0.19177   0.31729   0.83662   0.00000  Uiso   1.00
C235   C     0.28107   0.28443   0.91759   0.00000  Uiso   1.00
C236   C     0.07527   0.50378   0.72284   0.00000  Uiso   1.00
C237   C     0.98916   0.50686   0.73780   0.00000  Uiso   1.00
C238   C     0.00097   0.59805   0.75859   0.00000  Uiso   1.00
C239   C     0.97983   0.72769   0.79437   0.00000  Uiso   1.00
C240   C     0.13646   0.44025   0.63001   0.00000  Uiso   1.00
C241   C     0.10179   0.38992   0.56692   0.00000  Uiso   1.00
C242   C     0.16509   0.42764   0.50955   0.00000  Uiso   1.00
C243   C     0.23896   0.45863   0.40120   0.00000  Uiso   1.00
C244   C     0.25368   0.56846   0.70953   0.00000  Uiso   1.00
C245   C     0.24094   0.48412   0.75751   0.00000  Uiso   1.00
C246   C     0.31267   0.48734   0.80273   0.00000  Uiso   1.00
C247   C     0.28648   0.40244   0.84222   0.00000  Uiso   1.00
C248   C     0.16981   0.58878   0.72843   0.00000  Uiso   1.00
C249   C     0.18174   0.67999   0.74920   0.00000  Uiso   1.00
C250   C     0.09568   0.68320   0.76419   0.00000  Uiso   1.00
C251   C     0.23100   0.52524   0.63560   0.00000  Uiso   1.00
C252   C     0.29437   0.56305   0.57831   0.00000  Uiso   1.00
C253   C     0.25980   0.51279   0.51515   0.00000  Uiso   1.00
H254   H     0.00601   0.34580   0.69488   0.00000  Uiso   1.00
H255   H     0.04692   0.24844   0.78700   0.00000  Uiso   1.00
H256   H     0.91601   0.44107   0.73346   0.00000  Uiso   1.00
H257   H     0.02862   0.32415   0.56261   0.00000  Uiso   1.00
H258   H     0.13396   0.17800   0.89162   0.00000  Uiso   1.00
H259   H     0.85793   0.58417   0.77871   0.00000  Uiso   1.00
H260   H     0.09538   0.33762   0.41843   0.00000  Uiso   1.00
H261   H     0.32728   0.63464   0.71388   0.00000  Uiso   1.00
H262   H     0.38583   0.55313   0.80705   0.00000  Uiso   1.00
H263   H     0.25491   0.74576   0.75351   0.00000  Uiso   1.00
H264   H     0.36752   0.62883   0.58266   0.00000  Uiso   1.00
H265   H     0.40903   0.42529   0.90790   0.00000  Uiso   1.00
H266   H     0.13299   0.83147   0.79498   0.00000  Uiso   1.00
H267   H     0.37045   0.58492   0.43470   0.00000  Uiso   1.00
O268   O     0.30420   0.24283   0.96072   0.00000  Uiso   1.00
O269   O     0.94205   0.77571   0.81257   0.00000  Uiso   1.00
O270   O     0.25359   0.45224   0.33989   0.00000  Uiso   1.00
N271   N     0.19067   0.24738   0.88266   0.00000  Uiso   1.00
N272   N     0.93260   0.62712   0.77710   0.00000  Uiso   1.00
N273   N     0.15459   0.39663   0.44026   0.00000  Uiso   1.00
N274   N     0.33868   0.38045   0.89141   0.00000  Uiso   1.00
N275   N     0.08061   0.76019   0.78586   0.00000  Uiso   1.00
N276   N     0.30260   0.52970   0.44902   0.00000  Uiso   1.00
