data_job_00086
_audit_creation_date              2018-12-19
_audit_creation_method            'Materials Studio'
_symmetry_space_group_name_H-M    'P1'
_symmetry_Int_Tables_number       1
_symmetry_cell_setting            triclinic
loop_
_symmetry_equiv_pos_as_xyz
  x,y,z
_cell_length_a                    22.8374
_cell_length_b                    9.8473
_cell_length_c                    21.2280
_cell_angle_alpha                 90.0000
_cell_angle_beta                  69.4748
_cell_angle_gamma                 90.0000
loop_
_atom_site_label
_atom_site_type_symbol
_atom_site_fract_x
_atom_site_fract_y
_atom_site_fract_z
_atom_site_U_iso_or_equiv
_atom_site_adp_type
_atom_site_occupancy
C1     C     0.79530   0.49781   0.76938   0.00000  Uiso   1.00
C2     C     0.84482   0.57894   0.71528   0.00000  Uiso   1.00
C3     C     0.84993   0.58951   0.64837   0.00000  Uiso   1.00
C4     C     0.89848   0.66859   0.60684   0.00000  Uiso   1.00
C5     C     0.96902   0.78445   0.51910   0.00000  Uiso   1.00
C6     C     0.83092   0.39961   0.79834   0.00000  Uiso   1.00
C7     C     0.82432   0.25941   0.80128   0.00000  Uiso   1.00
C8     C     0.86116   0.18754   0.82968   0.00000  Uiso   1.00
C9     C     0.91008   0.02501   0.87093   0.00000  Uiso   1.00
C10    C     0.76303   0.59824   0.82551   0.00000  Uiso   1.00
C11    C     0.69934   0.62502   0.85130   0.00000  Uiso   1.00
C12    C     0.67902   0.72036   0.90259   0.00000  Uiso   1.00
C13    C     0.62253   0.86623   0.98602   0.00000  Uiso   1.00
C14    C     0.87244   0.61947   0.81462   0.00000  Uiso   1.00
C15    C     0.88673   0.64501   0.73986   0.00000  Uiso   1.00
C16    C     0.93528   0.72411   0.69842   0.00000  Uiso   1.00
C17    C     0.94045   0.73479   0.63145   0.00000  Uiso   1.00
C18    C     0.87282   0.46569   0.82291   0.00000  Uiso   1.00
C19    C     0.90967   0.39401   0.85132   0.00000  Uiso   1.00
C20    C     0.90314   0.25374   0.85429   0.00000  Uiso   1.00
C21    C     0.80493   0.66432   0.85008   0.00000  Uiso   1.00
C22    C     0.78470   0.75963   0.90134   0.00000  Uiso   1.00
C23    C     0.72100   0.78656   0.92720   0.00000  Uiso   1.00
H24    H     0.76268   0.44635   0.75026   0.00000  Uiso   1.00
H25    H     0.81749   0.53834   0.62938   0.00000  Uiso   1.00
H26    H     0.79188   0.20830   0.78226   0.00000  Uiso   1.00
H27    H     0.66693   0.57386   0.83228   0.00000  Uiso   1.00
H28    H     0.89676   0.66942   0.50619   0.00000  Uiso   1.00
H29    H     0.84275   0.97352   0.82858   0.00000  Uiso   1.00
H30    H     0.57926   0.74438   0.93405   0.00000  Uiso   1.00
H31    H     0.90507   0.67092   0.83375   0.00000  Uiso   1.00
H32    H     0.96770   0.77523   0.71744   0.00000  Uiso   1.00
H33    H     0.94209   0.44519   0.87033   0.00000  Uiso   1.00
H34    H     0.81714   0.81075   0.92035   0.00000  Uiso   1.00
H35    H     0.01868   0.86169   0.57767   0.00000  Uiso   1.00
H36    H     0.96466   0.16578   0.90006   0.00000  Uiso   1.00
H37    H     0.70118   0.93664   0.00553   0.00000  Uiso   1.00
O38    O     0.99636   0.83009   0.46391   0.00000  Uiso   1.00
O39    O     0.92549   0.91710   0.88689   0.00000  Uiso   1.00
O40    O     0.57980   0.92844   0.02525   0.00000  Uiso   1.00
N41    N     0.91685   0.70038   0.53897   0.00000  Uiso   1.00
N42    N     0.86636   0.04975   0.84038   0.00000  Uiso   1.00
N43    N     0.62002   0.77041   0.93900   0.00000  Uiso   1.00
N44    N     0.98245   0.80384   0.57744   0.00000  Uiso   1.00
N45    N     0.93196   0.15321   0.87885   0.00000  Uiso   1.00
N46    N     0.68562   0.87387   0.97746   0.00000  Uiso   1.00
C47    C     0.29530   0.99781   0.76938   0.00000  Uiso   1.00
C48    C     0.34482   0.07894   0.71528   0.00000  Uiso   1.00
C49    C     0.34993   0.08951   0.64837   0.00000  Uiso   1.00
C50    C     0.39848   0.16859   0.60684   0.00000  Uiso   1.00
C51    C     0.46902   0.28445   0.51910   0.00000  Uiso   1.00
C52    C     0.33092   0.89961   0.79834   0.00000  Uiso   1.00
C53    C     0.32432   0.75941   0.80128   0.00000  Uiso   1.00
C54    C     0.36116   0.68754   0.82968   0.00000  Uiso   1.00
C55    C     0.41008   0.52501   0.87093   0.00000  Uiso   1.00
C56    C     0.26303   0.09824   0.82551   0.00000  Uiso   1.00
C57    C     0.19934   0.12502   0.85130   0.00000  Uiso   1.00
C58    C     0.17902   0.22036   0.90259   0.00000  Uiso   1.00
C59    C     0.12253   0.36623   0.98602   0.00000  Uiso   1.00
C60    C     0.37244   0.11947   0.81462   0.00000  Uiso   1.00
C61    C     0.38673   0.14501   0.73986   0.00000  Uiso   1.00
C62    C     0.43528   0.22411   0.69842   0.00000  Uiso   1.00
C63    C     0.44045   0.23479   0.63145   0.00000  Uiso   1.00
C64    C     0.37282   0.96569   0.82291   0.00000  Uiso   1.00
C65    C     0.40967   0.89401   0.85132   0.00000  Uiso   1.00
C66    C     0.40314   0.75374   0.85429   0.00000  Uiso   1.00
C67    C     0.30493   0.16432   0.85008   0.00000  Uiso   1.00
C68    C     0.28470   0.25963   0.90134   0.00000  Uiso   1.00
C69    C     0.22100   0.28656   0.92720   0.00000  Uiso   1.00
H70    H     0.26268   0.94635   0.75026   0.00000  Uiso   1.00
H71    H     0.31749   0.03834   0.62938   0.00000  Uiso   1.00
H72    H     0.29188   0.70830   0.78226   0.00000  Uiso   1.00
H73    H     0.16693   0.07386   0.83228   0.00000  Uiso   1.00
H74    H     0.39676   0.16942   0.50619   0.00000  Uiso   1.00
H75    H     0.34275   0.47352   0.82858   0.00000  Uiso   1.00
H76    H     0.07926   0.24438   0.93405   0.00000  Uiso   1.00
H77    H     0.40507   0.17092   0.83375   0.00000  Uiso   1.00
H78    H     0.46770   0.27523   0.71744   0.00000  Uiso   1.00
H79    H     0.44209   0.94519   0.87033   0.00000  Uiso   1.00
H80    H     0.31714   0.31075   0.92035   0.00000  Uiso   1.00
H81    H     0.51868   0.36169   0.57767   0.00000  Uiso   1.00
H82    H     0.46466   0.66578   0.90006   0.00000  Uiso   1.00
H83    H     0.20118   0.43664   0.00553   0.00000  Uiso   1.00
O84    O     0.49636   0.33009   0.46391   0.00000  Uiso   1.00
O85    O     0.42549   0.41710   0.88689   0.00000  Uiso   1.00
O86    O     0.07980   0.42844   0.02525   0.00000  Uiso   1.00
N87    N     0.41685   0.20038   0.53897   0.00000  Uiso   1.00
N88    N     0.36636   0.54975   0.84038   0.00000  Uiso   1.00
N89    N     0.12002   0.27041   0.93900   0.00000  Uiso   1.00
N90    N     0.48245   0.30384   0.57744   0.00000  Uiso   1.00
N91    N     0.43196   0.65321   0.87885   0.00000  Uiso   1.00
N92    N     0.18562   0.37387   0.97746   0.00000  Uiso   1.00
C93    C     0.20470   0.49781   0.73062   0.00000  Uiso   1.00
C94    C     0.15518   0.57894   0.78472   0.00000  Uiso   1.00
C95    C     0.15007   0.58951   0.85163   0.00000  Uiso   1.00
C96    C     0.10152   0.66859   0.89316   0.00000  Uiso   1.00
C97    C     0.03098   0.78445   0.98090   0.00000  Uiso   1.00
C98    C     0.16908   0.39961   0.70166   0.00000  Uiso   1.00
C99    C     0.17568   0.25941   0.69872   0.00000  Uiso   1.00
C100   C     0.13884   0.18754   0.67032   0.00000  Uiso   1.00
C101   C     0.08992   0.02501   0.62907   0.00000  Uiso   1.00
C102   C     0.23697   0.59824   0.67449   0.00000  Uiso   1.00
C103   C     0.30066   0.62502   0.64870   0.00000  Uiso   1.00
C104   C     0.32098   0.72036   0.59741   0.00000  Uiso   1.00
C105   C     0.37747   0.86623   0.51398   0.00000  Uiso   1.00
C106   C     0.12756   0.61947   0.68538   0.00000  Uiso   1.00
C107   C     0.11327   0.64501   0.76014   0.00000  Uiso   1.00
C108   C     0.06472   0.72411   0.80158   0.00000  Uiso   1.00
C109   C     0.05955   0.73479   0.86855   0.00000  Uiso   1.00
C110   C     0.12718   0.46569   0.67709   0.00000  Uiso   1.00
C111   C     0.09033   0.39401   0.64868   0.00000  Uiso   1.00
C112   C     0.09686   0.25374   0.64571   0.00000  Uiso   1.00
C113   C     0.19507   0.66432   0.64992   0.00000  Uiso   1.00
C114   C     0.21530   0.75963   0.59866   0.00000  Uiso   1.00
C115   C     0.27900   0.78656   0.57280   0.00000  Uiso   1.00
H116   H     0.23732   0.44635   0.74974   0.00000  Uiso   1.00
H117   H     0.18251   0.53834   0.87062   0.00000  Uiso   1.00
H118   H     0.20812   0.20830   0.71774   0.00000  Uiso   1.00
H119   H     0.33307   0.57386   0.66772   0.00000  Uiso   1.00
H120   H     0.10324   0.66942   0.99381   0.00000  Uiso   1.00
H121   H     0.15725   0.97352   0.67142   0.00000  Uiso   1.00
H122   H     0.42074   0.74438   0.56595   0.00000  Uiso   1.00
H123   H     0.09493   0.67092   0.66625   0.00000  Uiso   1.00
H124   H     0.03230   0.77523   0.78256   0.00000  Uiso   1.00
H125   H     0.05791   0.44519   0.62967   0.00000  Uiso   1.00
H126   H     0.18286   0.81075   0.57965   0.00000  Uiso   1.00
H127   H     0.98132   0.86169   0.92233   0.00000  Uiso   1.00
H128   H     0.03534   0.16578   0.59994   0.00000  Uiso   1.00
H129   H     0.29882   0.93664   0.49447   0.00000  Uiso   1.00
O130   O     0.00364   0.83009   0.03609   0.00000  Uiso   1.00
O131   O     0.07451   0.91710   0.61311   0.00000  Uiso   1.00
O132   O     0.42020   0.92844   0.47475   0.00000  Uiso   1.00
N133   N     0.08315   0.70038   0.96103   0.00000  Uiso   1.00
N134   N     0.13364   0.04975   0.65962   0.00000  Uiso   1.00
N135   N     0.37998   0.77041   0.56100   0.00000  Uiso   1.00
N136   N     0.01755   0.80384   0.92256   0.00000  Uiso   1.00
N137   N     0.06804   0.15321   0.62115   0.00000  Uiso   1.00
N138   N     0.31438   0.87387   0.52254   0.00000  Uiso   1.00
C139   C     0.70470   0.99781   0.73062   0.00000  Uiso   1.00
C140   C     0.65518   0.07894   0.78472   0.00000  Uiso   1.00
C141   C     0.65007   0.08951   0.85163   0.00000  Uiso   1.00
C142   C     0.60152   0.16859   0.89316   0.00000  Uiso   1.00
C143   C     0.53098   0.28445   0.98090   0.00000  Uiso   1.00
C144   C     0.66908   0.89961   0.70166   0.00000  Uiso   1.00
C145   C     0.67568   0.75941   0.69872   0.00000  Uiso   1.00
C146   C     0.63884   0.68754   0.67032   0.00000  Uiso   1.00
C147   C     0.58992   0.52501   0.62907   0.00000  Uiso   1.00
C148   C     0.73697   0.09824   0.67449   0.00000  Uiso   1.00
C149   C     0.80066   0.12502   0.64870   0.00000  Uiso   1.00
C150   C     0.82098   0.22036   0.59741   0.00000  Uiso   1.00
C151   C     0.87747   0.36623   0.51398   0.00000  Uiso   1.00
C152   C     0.62756   0.11947   0.68538   0.00000  Uiso   1.00
C153   C     0.61327   0.14501   0.76014   0.00000  Uiso   1.00
C154   C     0.56472   0.22411   0.80158   0.00000  Uiso   1.00
C155   C     0.55955   0.23479   0.86855   0.00000  Uiso   1.00
C156   C     0.62718   0.96569   0.67709   0.00000  Uiso   1.00
C157   C     0.59033   0.89401   0.64868   0.00000  Uiso   1.00
C158   C     0.59686   0.75374   0.64571   0.00000  Uiso   1.00
C159   C     0.69507   0.16432   0.64992   0.00000  Uiso   1.00
C160   C     0.71530   0.25963   0.59866   0.00000  Uiso   1.00
C161   C     0.77900   0.28656   0.57280   0.00000  Uiso   1.00
H162   H     0.73732   0.94635   0.74974   0.00000  Uiso   1.00
H163   H     0.68251   0.03834   0.87062   0.00000  Uiso   1.00
H164   H     0.70812   0.70830   0.71774   0.00000  Uiso   1.00
H165   H     0.83307   0.07386   0.66772   0.00000  Uiso   1.00
H166   H     0.60324   0.16942   0.99381   0.00000  Uiso   1.00
H167   H     0.65725   0.47352   0.67142   0.00000  Uiso   1.00
H168   H     0.92074   0.24438   0.56595   0.00000  Uiso   1.00
H169   H     0.59493   0.17092   0.66625   0.00000  Uiso   1.00
H170   H     0.53230   0.27523   0.78256   0.00000  Uiso   1.00
H171   H     0.55791   0.94519   0.62967   0.00000  Uiso   1.00
H172   H     0.68286   0.31075   0.57965   0.00000  Uiso   1.00
H173   H     0.48132   0.36169   0.92233   0.00000  Uiso   1.00
H174   H     0.53534   0.66578   0.59994   0.00000  Uiso   1.00
H175   H     0.79882   0.43664   0.49447   0.00000  Uiso   1.00
O176   O     0.50364   0.33009   0.03609   0.00000  Uiso   1.00
O177   O     0.57451   0.41710   0.61311   0.00000  Uiso   1.00
O178   O     0.92020   0.42844   0.47475   0.00000  Uiso   1.00
N179   N     0.58315   0.20038   0.96103   0.00000  Uiso   1.00
N180   N     0.63364   0.54975   0.65962   0.00000  Uiso   1.00
N181   N     0.87998   0.27041   0.56100   0.00000  Uiso   1.00
N182   N     0.51755   0.30384   0.92256   0.00000  Uiso   1.00
N183   N     0.56804   0.65321   0.62115   0.00000  Uiso   1.00
N184   N     0.81438   0.37387   0.52254   0.00000  Uiso   1.00
C185   C     0.20470   0.50219   0.23062   0.00000  Uiso   1.00
C186   C     0.15518   0.42106   0.28472   0.00000  Uiso   1.00
C187   C     0.15007   0.41049   0.35163   0.00000  Uiso   1.00
C188   C     0.10152   0.33141   0.39316   0.00000  Uiso   1.00
C189   C     0.03098   0.21555   0.48090   0.00000  Uiso   1.00
C190   C     0.16908   0.60039   0.20166   0.00000  Uiso   1.00
C191   C     0.17568   0.74059   0.19872   0.00000  Uiso   1.00
C192   C     0.13884   0.81246   0.17032   0.00000  Uiso   1.00
C193   C     0.08992   0.97499   0.12907   0.00000  Uiso   1.00
C194   C     0.23697   0.40176   0.17449   0.00000  Uiso   1.00
C195   C     0.30066   0.37498   0.14870   0.00000  Uiso   1.00
C196   C     0.32098   0.27964   0.09741   0.00000  Uiso   1.00
C197   C     0.37747   0.13377   0.01398   0.00000  Uiso   1.00
C198   C     0.12756   0.38053   0.18538   0.00000  Uiso   1.00
C199   C     0.11327   0.35499   0.26014   0.00000  Uiso   1.00
C200   C     0.06472   0.27589   0.30158   0.00000  Uiso   1.00
C201   C     0.05955   0.26521   0.36855   0.00000  Uiso   1.00
C202   C     0.12718   0.53431   0.17709   0.00000  Uiso   1.00
C203   C     0.09033   0.60599   0.14868   0.00000  Uiso   1.00
C204   C     0.09686   0.74626   0.14571   0.00000  Uiso   1.00
C205   C     0.19507   0.33568   0.14992   0.00000  Uiso   1.00
C206   C     0.21530   0.24037   0.09866   0.00000  Uiso   1.00
C207   C     0.27900   0.21344   0.07280   0.00000  Uiso   1.00
H208   H     0.23732   0.55365   0.24974   0.00000  Uiso   1.00
H209   H     0.18251   0.46166   0.37062   0.00000  Uiso   1.00
H210   H     0.20812   0.79170   0.21774   0.00000  Uiso   1.00
H211   H     0.33307   0.42614   0.16772   0.00000  Uiso   1.00
H212   H     0.10324   0.33058   0.49381   0.00000  Uiso   1.00
H213   H     0.15725   0.02648   0.17142   0.00000  Uiso   1.00
H214   H     0.42074   0.25562   0.06595   0.00000  Uiso   1.00
H215   H     0.09493   0.32908   0.16625   0.00000  Uiso   1.00
H216   H     0.03230   0.22477   0.28256   0.00000  Uiso   1.00
H217   H     0.05791   0.55481   0.12967   0.00000  Uiso   1.00
H218   H     0.18286   0.18925   0.07965   0.00000  Uiso   1.00
H219   H     0.98132   0.13831   0.42233   0.00000  Uiso   1.00
H220   H     0.03534   0.83422   0.09994   0.00000  Uiso   1.00
H221   H     0.29882   0.06336   0.99447   0.00000  Uiso   1.00
O222   O     0.00364   0.16991   0.53609   0.00000  Uiso   1.00
O223   O     0.07451   0.08290   0.11311   0.00000  Uiso   1.00
O224   O     0.42020   0.07156   0.97475   0.00000  Uiso   1.00
N225   N     0.08315   0.29962   0.46103   0.00000  Uiso   1.00
N226   N     0.13364   0.95025   0.15962   0.00000  Uiso   1.00
N227   N     0.37998   0.22959   0.06100   0.00000  Uiso   1.00
N228   N     0.01755   0.19616   0.42256   0.00000  Uiso   1.00
N229   N     0.06804   0.84679   0.12115   0.00000  Uiso   1.00
N230   N     0.31438   0.12613   0.02254   0.00000  Uiso   1.00
C231   C     0.70470   0.00219   0.23062   0.00000  Uiso   1.00
C232   C     0.65518   0.92106   0.28472   0.00000  Uiso   1.00
C233   C     0.65007   0.91049   0.35163   0.00000  Uiso   1.00
C234   C     0.60152   0.83141   0.39316   0.00000  Uiso   1.00
C235   C     0.53098   0.71555   0.48090   0.00000  Uiso   1.00
C236   C     0.66908   0.10039   0.20166   0.00000  Uiso   1.00
C237   C     0.67568   0.24059   0.19872   0.00000  Uiso   1.00
C238   C     0.63884   0.31246   0.17032   0.00000  Uiso   1.00
C239   C     0.58992   0.47499   0.12907   0.00000  Uiso   1.00
C240   C     0.73697   0.90176   0.17449   0.00000  Uiso   1.00
C241   C     0.80066   0.87498   0.14870   0.00000  Uiso   1.00
C242   C     0.82098   0.77964   0.09741   0.00000  Uiso   1.00
C243   C     0.87747   0.63377   0.01398   0.00000  Uiso   1.00
C244   C     0.62756   0.88053   0.18538   0.00000  Uiso   1.00
C245   C     0.61327   0.85499   0.26014   0.00000  Uiso   1.00
C246   C     0.56472   0.77589   0.30158   0.00000  Uiso   1.00
C247   C     0.55955   0.76521   0.36855   0.00000  Uiso   1.00
C248   C     0.62718   0.03431   0.17709   0.00000  Uiso   1.00
C249   C     0.59033   0.10599   0.14868   0.00000  Uiso   1.00
C250   C     0.59686   0.24626   0.14571   0.00000  Uiso   1.00
C251   C     0.69507   0.83568   0.14992   0.00000  Uiso   1.00
C252   C     0.71530   0.74037   0.09866   0.00000  Uiso   1.00
C253   C     0.77900   0.71344   0.07280   0.00000  Uiso   1.00
H254   H     0.73732   0.05365   0.24974   0.00000  Uiso   1.00
H255   H     0.68251   0.96166   0.37062   0.00000  Uiso   1.00
H256   H     0.70812   0.29170   0.21774   0.00000  Uiso   1.00
H257   H     0.83307   0.92614   0.16772   0.00000  Uiso   1.00
H258   H     0.60324   0.83058   0.49381   0.00000  Uiso   1.00
H259   H     0.65725   0.52648   0.17142   0.00000  Uiso   1.00
H260   H     0.92074   0.75562   0.06595   0.00000  Uiso   1.00
H261   H     0.59493   0.82908   0.16625   0.00000  Uiso   1.00
H262   H     0.53230   0.72477   0.28256   0.00000  Uiso   1.00
H263   H     0.55791   0.05481   0.12967   0.00000  Uiso   1.00
H264   H     0.68286   0.68925   0.07965   0.00000  Uiso   1.00
H265   H     0.48132   0.63831   0.42233   0.00000  Uiso   1.00
H266   H     0.53534   0.33422   0.09994   0.00000  Uiso   1.00
H267   H     0.79882   0.56336   0.99447   0.00000  Uiso   1.00
O268   O     0.50364   0.66991   0.53609   0.00000  Uiso   1.00
O269   O     0.57451   0.58290   0.11311   0.00000  Uiso   1.00
O270   O     0.92020   0.57156   0.97475   0.00000  Uiso   1.00
N271   N     0.58315   0.79962   0.46103   0.00000  Uiso   1.00
N272   N     0.63364   0.45025   0.15962   0.00000  Uiso   1.00
N273   N     0.87998   0.72959   0.06100   0.00000  Uiso   1.00
N274   N     0.51755   0.69616   0.42256   0.00000  Uiso   1.00
N275   N     0.56804   0.34679   0.12115   0.00000  Uiso   1.00
N276   N     0.81438   0.62613   0.02254   0.00000  Uiso   1.00
C277   C     0.79530   0.50219   0.26938   0.00000  Uiso   1.00
C278   C     0.84482   0.42106   0.21528   0.00000  Uiso   1.00
C279   C     0.84993   0.41049   0.14837   0.00000  Uiso   1.00
C280   C     0.89848   0.33141   0.10684   0.00000  Uiso   1.00
C281   C     0.96902   0.21555   0.01910   0.00000  Uiso   1.00
C282   C     0.83092   0.60039   0.29834   0.00000  Uiso   1.00
C283   C     0.82432   0.74059   0.30128   0.00000  Uiso   1.00
C284   C     0.86116   0.81246   0.32968   0.00000  Uiso   1.00
C285   C     0.91008   0.97499   0.37093   0.00000  Uiso   1.00
C286   C     0.76303   0.40176   0.32551   0.00000  Uiso   1.00
C287   C     0.69934   0.37498   0.35130   0.00000  Uiso   1.00
C288   C     0.67902   0.27964   0.40259   0.00000  Uiso   1.00
C289   C     0.62253   0.13377   0.48602   0.00000  Uiso   1.00
C290   C     0.87244   0.38053   0.31462   0.00000  Uiso   1.00
C291   C     0.88673   0.35499   0.23986   0.00000  Uiso   1.00
C292   C     0.93528   0.27589   0.19842   0.00000  Uiso   1.00
C293   C     0.94045   0.26521   0.13145   0.00000  Uiso   1.00
C294   C     0.87282   0.53431   0.32291   0.00000  Uiso   1.00
C295   C     0.90967   0.60599   0.35132   0.00000  Uiso   1.00
C296   C     0.90314   0.74626   0.35429   0.00000  Uiso   1.00
C297   C     0.80493   0.33568   0.35008   0.00000  Uiso   1.00
C298   C     0.78470   0.24037   0.40134   0.00000  Uiso   1.00
C299   C     0.72100   0.21344   0.42720   0.00000  Uiso   1.00
H300   H     0.76268   0.55365   0.25026   0.00000  Uiso   1.00
H301   H     0.81749   0.46166   0.12938   0.00000  Uiso   1.00
H302   H     0.79188   0.79170   0.28226   0.00000  Uiso   1.00
H303   H     0.66693   0.42614   0.33228   0.00000  Uiso   1.00
H304   H     0.89676   0.33058   0.00619   0.00000  Uiso   1.00
H305   H     0.84275   0.02648   0.32858   0.00000  Uiso   1.00
H306   H     0.57926   0.25562   0.43405   0.00000  Uiso   1.00
H307   H     0.90507   0.32908   0.33375   0.00000  Uiso   1.00
H308   H     0.96770   0.22477   0.21744   0.00000  Uiso   1.00
H309   H     0.94209   0.55481   0.37033   0.00000  Uiso   1.00
H310   H     0.81714   0.18925   0.42035   0.00000  Uiso   1.00
H311   H     0.01868   0.13831   0.07767   0.00000  Uiso   1.00
H312   H     0.96466   0.83422   0.40006   0.00000  Uiso   1.00
H313   H     0.70118   0.06336   0.50553   0.00000  Uiso   1.00
O314   O     0.99636   0.16991   0.96391   0.00000  Uiso   1.00
O315   O     0.92549   0.08290   0.38689   0.00000  Uiso   1.00
O316   O     0.57980   0.07156   0.52525   0.00000  Uiso   1.00
N317   N     0.91685   0.29962   0.03897   0.00000  Uiso   1.00
N318   N     0.86636   0.95025   0.34038   0.00000  Uiso   1.00
N319   N     0.62002   0.22959   0.43900   0.00000  Uiso   1.00
N320   N     0.98245   0.19616   0.07744   0.00000  Uiso   1.00
N321   N     0.93196   0.84679   0.37885   0.00000  Uiso   1.00
N322   N     0.68562   0.12613   0.47746   0.00000  Uiso   1.00
C323   C     0.29530   0.00219   0.26938   0.00000  Uiso   1.00
C324   C     0.34482   0.92106   0.21528   0.00000  Uiso   1.00
C325   C     0.34993   0.91049   0.14837   0.00000  Uiso   1.00
C326   C     0.39848   0.83141   0.10684   0.00000  Uiso   1.00
C327   C     0.46902   0.71555   0.01910   0.00000  Uiso   1.00
C328   C     0.33092   0.10039   0.29834   0.00000  Uiso   1.00
C329   C     0.32432   0.24059   0.30128   0.00000  Uiso   1.00
C330   C     0.36116   0.31246   0.32968   0.00000  Uiso   1.00
C331   C     0.41008   0.47499   0.37093   0.00000  Uiso   1.00
C332   C     0.26303   0.90176   0.32551   0.00000  Uiso   1.00
C333   C     0.19934   0.87498   0.35130   0.00000  Uiso   1.00
C334   C     0.17902   0.77964   0.40259   0.00000  Uiso   1.00
C335   C     0.12253   0.63377   0.48602   0.00000  Uiso   1.00
C336   C     0.37244   0.88053   0.31462   0.00000  Uiso   1.00
C337   C     0.38673   0.85499   0.23986   0.00000  Uiso   1.00
C338   C     0.43528   0.77589   0.19842   0.00000  Uiso   1.00
C339   C     0.44045   0.76521   0.13145   0.00000  Uiso   1.00
C340   C     0.37282   0.03431   0.32291   0.00000  Uiso   1.00
C341   C     0.40967   0.10599   0.35132   0.00000  Uiso   1.00
C342   C     0.40314   0.24626   0.35429   0.00000  Uiso   1.00
C343   C     0.30493   0.83568   0.35008   0.00000  Uiso   1.00
C344   C     0.28470   0.74037   0.40134   0.00000  Uiso   1.00
C345   C     0.22100   0.71344   0.42720   0.00000  Uiso   1.00
H346   H     0.26268   0.05365   0.25026   0.00000  Uiso   1.00
H347   H     0.31749   0.96166   0.12938   0.00000  Uiso   1.00
H348   H     0.29188   0.29170   0.28226   0.00000  Uiso   1.00
H349   H     0.16693   0.92614   0.33228   0.00000  Uiso   1.00
H350   H     0.39676   0.83058   0.00619   0.00000  Uiso   1.00
H351   H     0.34275   0.52648   0.32858   0.00000  Uiso   1.00
H352   H     0.07926   0.75562   0.43405   0.00000  Uiso   1.00
H353   H     0.40507   0.82908   0.33375   0.00000  Uiso   1.00
H354   H     0.46770   0.72477   0.21744   0.00000  Uiso   1.00
H355   H     0.44209   0.05481   0.37033   0.00000  Uiso   1.00
H356   H     0.31714   0.68925   0.42035   0.00000  Uiso   1.00
H357   H     0.51868   0.63831   0.07767   0.00000  Uiso   1.00
H358   H     0.46466   0.33422   0.40006   0.00000  Uiso   1.00
H359   H     0.20118   0.56336   0.50553   0.00000  Uiso   1.00
O360   O     0.49636   0.66991   0.96391   0.00000  Uiso   1.00
O361   O     0.42549   0.58290   0.38689   0.00000  Uiso   1.00
O362   O     0.07980   0.57156   0.52525   0.00000  Uiso   1.00
N363   N     0.41685   0.79962   0.03897   0.00000  Uiso   1.00
N364   N     0.36636   0.45025   0.34038   0.00000  Uiso   1.00
N365   N     0.12002   0.72959   0.43900   0.00000  Uiso   1.00
N366   N     0.48245   0.69616   0.07744   0.00000  Uiso   1.00
N367   N     0.43196   0.34679   0.37885   0.00000  Uiso   1.00
N368   N     0.18562   0.62613   0.47746   0.00000  Uiso   1.00
