data_job_01836
_audit_creation_date              2018-12-19
_audit_creation_method            'Materials Studio'
_symmetry_space_group_name_H-M    'P1'
_symmetry_Int_Tables_number       1
_symmetry_cell_setting            triclinic
loop_
_symmetry_equiv_pos_as_xyz
  x,y,z
_cell_length_a                    30.2179
_cell_length_b                    7.0732
_cell_length_c                    11.5800
_cell_angle_alpha                 90.0000
_cell_angle_beta                  76.7795
_cell_angle_gamma                 90.0000
loop_
_atom_site_label
_atom_site_type_symbol
_atom_site_fract_x
_atom_site_fract_y
_atom_site_fract_z
_atom_site_U_iso_or_equiv
_atom_site_adp_type
_atom_site_occupancy
C1     C     0.13315   0.00162   0.32426   0.00000  Uiso   1.00
C2     C     0.11457   0.86678   0.24408   0.00000  Uiso   1.00
C3     C     0.10192   0.91596   0.14014   0.00000  Uiso   1.00
C4     C     0.08571   0.77198   0.07950   0.00000  Uiso   1.00
C5     C     0.05736   0.59098   0.94866   0.00000  Uiso   1.00
C6     C     0.10173   0.98282   0.44713   0.00000  Uiso   1.00
C7     C     0.07831   0.12958   0.51391   0.00000  Uiso   1.00
C8     C     0.05130   0.08327   0.62420   0.00000  Uiso   1.00
C9     C     0.00305   0.08245   0.80863   0.00000  Uiso   1.00
C10    C     0.17882   0.92009   0.33444   0.00000  Uiso   1.00
C11    C     0.22021   0.01412   0.30650   0.00000  Uiso   1.00
C12    C     0.25810   0.91501   0.32194   0.00000  Uiso   1.00
C13    C     0.32953   0.81680   0.33140   0.00000  Uiso   1.00
C14    C     0.12684   0.65846   0.40139   0.00000  Uiso   1.00
C15    C     0.11114   0.68039   0.28598   0.00000  Uiso   1.00
C16    C     0.09494   0.53629   0.22548   0.00000  Uiso   1.00
C17    C     0.08228   0.58525   0.12147   0.00000  Uiso   1.00
C18    C     0.09831   0.79644   0.48902   0.00000  Uiso   1.00
C19    C     0.07133   0.74991   0.59925   0.00000  Uiso   1.00
C20    C     0.04787   0.89654   0.66617   0.00000  Uiso   1.00
C21    C     0.17539   0.73370   0.37633   0.00000  Uiso   1.00
C22    C     0.21322   0.63444   0.39183   0.00000  Uiso   1.00
C23    C     0.25466   0.72829   0.36392   0.00000  Uiso   1.00
H24    H     0.13582   0.14673   0.29165   0.00000  Uiso   1.00
H25    H     0.10458   0.06023   0.10775   0.00000  Uiso   1.00
H26    H     0.08097   0.27380   0.48147   0.00000  Uiso   1.00
H27    H     0.22285   0.15835   0.27408   0.00000  Uiso   1.00
H28    H     0.06842   0.88213   0.92237   0.00000  Uiso   1.00
H29    H     0.01866   0.33248   0.71038   0.00000  Uiso   1.00
H30    H     0.31782   0.08904   0.27307   0.00000  Uiso   1.00
H31    H     0.12417   0.51334   0.43401   0.00000  Uiso   1.00
H32    H     0.09229   0.39207   0.25792   0.00000  Uiso   1.00
H33    H     0.06869   0.60565   0.63164   0.00000  Uiso   1.00
H34    H     0.21056   0.49020   0.42425   0.00000  Uiso   1.00
H35    H     0.05844   0.33983   0.04426   0.00000  Uiso   1.00
H36    H     0.00868   0.79019   0.83228   0.00000  Uiso   1.00
H37    H     0.30785   0.54674   0.39496   0.00000  Uiso   1.00
O38    O     0.04266   0.54264   0.86493   0.00000  Uiso   1.00
O39    O     0.97738   0.13349   0.89878   0.00000  Uiso   1.00
O40    O     0.36988   0.81411   0.32503   0.00000  Uiso   1.00
N41    N     0.07045   0.77113   0.97521   0.00000  Uiso   1.00
N42    N     0.02392   0.19218   0.71195   0.00000  Uiso   1.00
N43    N     0.30362   0.96461   0.30313   0.00000  Uiso   1.00
N44    N     0.06509   0.47933   0.04079   0.00000  Uiso   1.00
N45    N     0.01856   0.90037   0.77753   0.00000  Uiso   1.00
N46    N     0.29825   0.67280   0.36871   0.00000  Uiso   1.00
C47    C     0.63315   0.50162   0.32426   0.00000  Uiso   1.00
C48    C     0.61457   0.36678   0.24408   0.00000  Uiso   1.00
C49    C     0.60192   0.41596   0.14014   0.00000  Uiso   1.00
C50    C     0.58571   0.27198   0.07950   0.00000  Uiso   1.00
C51    C     0.55736   0.09098   0.94866   0.00000  Uiso   1.00
C52    C     0.60173   0.48282   0.44713   0.00000  Uiso   1.00
C53    C     0.57831   0.62958   0.51391   0.00000  Uiso   1.00
C54    C     0.55130   0.58327   0.62420   0.00000  Uiso   1.00
C55    C     0.50305   0.58245   0.80863   0.00000  Uiso   1.00
C56    C     0.67882   0.42009   0.33444   0.00000  Uiso   1.00
C57    C     0.72021   0.51412   0.30650   0.00000  Uiso   1.00
C58    C     0.75810   0.41501   0.32194   0.00000  Uiso   1.00
C59    C     0.82953   0.31680   0.33140   0.00000  Uiso   1.00
C60    C     0.62684   0.15846   0.40139   0.00000  Uiso   1.00
C61    C     0.61114   0.18039   0.28598   0.00000  Uiso   1.00
C62    C     0.59494   0.03629   0.22548   0.00000  Uiso   1.00
C63    C     0.58228   0.08525   0.12147   0.00000  Uiso   1.00
C64    C     0.59831   0.29644   0.48902   0.00000  Uiso   1.00
C65    C     0.57133   0.24991   0.59925   0.00000  Uiso   1.00
C66    C     0.54787   0.39654   0.66617   0.00000  Uiso   1.00
C67    C     0.67539   0.23370   0.37633   0.00000  Uiso   1.00
C68    C     0.71322   0.13444   0.39183   0.00000  Uiso   1.00
C69    C     0.75466   0.22829   0.36392   0.00000  Uiso   1.00
H70    H     0.63582   0.64673   0.29165   0.00000  Uiso   1.00
H71    H     0.60458   0.56023   0.10775   0.00000  Uiso   1.00
H72    H     0.58097   0.77380   0.48147   0.00000  Uiso   1.00
H73    H     0.72285   0.65835   0.27408   0.00000  Uiso   1.00
H74    H     0.56842   0.38213   0.92237   0.00000  Uiso   1.00
H75    H     0.51866   0.83248   0.71038   0.00000  Uiso   1.00
H76    H     0.81782   0.58904   0.27307   0.00000  Uiso   1.00
H77    H     0.62417   0.01334   0.43401   0.00000  Uiso   1.00
H78    H     0.59229   0.89207   0.25792   0.00000  Uiso   1.00
H79    H     0.56869   0.10565   0.63164   0.00000  Uiso   1.00
H80    H     0.71056   0.99020   0.42425   0.00000  Uiso   1.00
H81    H     0.55844   0.83983   0.04426   0.00000  Uiso   1.00
H82    H     0.50868   0.29019   0.83228   0.00000  Uiso   1.00
H83    H     0.80785   0.04674   0.39496   0.00000  Uiso   1.00
O84    O     0.54266   0.04264   0.86493   0.00000  Uiso   1.00
O85    O     0.47738   0.63349   0.89878   0.00000  Uiso   1.00
O86    O     0.86988   0.31411   0.32503   0.00000  Uiso   1.00
N87    N     0.57045   0.27113   0.97521   0.00000  Uiso   1.00
N88    N     0.52392   0.69218   0.71195   0.00000  Uiso   1.00
N89    N     0.80362   0.46461   0.30313   0.00000  Uiso   1.00
N90    N     0.56509   0.97933   0.04079   0.00000  Uiso   1.00
N91    N     0.51856   0.40037   0.77753   0.00000  Uiso   1.00
N92    N     0.79825   0.17280   0.36871   0.00000  Uiso   1.00
C93    C     0.86685   0.00162   0.67574   0.00000  Uiso   1.00
C94    C     0.88543   0.86678   0.75592   0.00000  Uiso   1.00
C95    C     0.89808   0.91596   0.85986   0.00000  Uiso   1.00
C96    C     0.91429   0.77198   0.92050   0.00000  Uiso   1.00
C97    C     0.94264   0.59098   0.05134   0.00000  Uiso   1.00
C98    C     0.89827   0.98282   0.55287   0.00000  Uiso   1.00
C99    C     0.92169   0.12958   0.48609   0.00000  Uiso   1.00
C100   C     0.94870   0.08327   0.37580   0.00000  Uiso   1.00
C101   C     0.99695   0.08245   0.19137   0.00000  Uiso   1.00
C102   C     0.82118   0.92009   0.66556   0.00000  Uiso   1.00
C103   C     0.77979   0.01412   0.69350   0.00000  Uiso   1.00
C104   C     0.74190   0.91501   0.67806   0.00000  Uiso   1.00
C105   C     0.67047   0.81680   0.66860   0.00000  Uiso   1.00
C106   C     0.87316   0.65846   0.59861   0.00000  Uiso   1.00
C107   C     0.88886   0.68039   0.71402   0.00000  Uiso   1.00
C108   C     0.90506   0.53629   0.77452   0.00000  Uiso   1.00
C109   C     0.91772   0.58525   0.87853   0.00000  Uiso   1.00
C110   C     0.90169   0.79644   0.51098   0.00000  Uiso   1.00
C111   C     0.92867   0.74991   0.40075   0.00000  Uiso   1.00
C112   C     0.95213   0.89654   0.33383   0.00000  Uiso   1.00
C113   C     0.82461   0.73370   0.62367   0.00000  Uiso   1.00
C114   C     0.78678   0.63444   0.60817   0.00000  Uiso   1.00
C115   C     0.74534   0.72829   0.63608   0.00000  Uiso   1.00
H116   H     0.86418   0.14673   0.70835   0.00000  Uiso   1.00
H117   H     0.89542   0.06023   0.89225   0.00000  Uiso   1.00
H118   H     0.91903   0.27380   0.51853   0.00000  Uiso   1.00
H119   H     0.77715   0.15835   0.72592   0.00000  Uiso   1.00
H120   H     0.93158   0.88213   0.07763   0.00000  Uiso   1.00
H121   H     0.98134   0.33248   0.28962   0.00000  Uiso   1.00
H122   H     0.68218   0.08904   0.72693   0.00000  Uiso   1.00
H123   H     0.87583   0.51334   0.56599   0.00000  Uiso   1.00
H124   H     0.90771   0.39207   0.74208   0.00000  Uiso   1.00
H125   H     0.93131   0.60565   0.36836   0.00000  Uiso   1.00
H126   H     0.78944   0.49020   0.57575   0.00000  Uiso   1.00
H127   H     0.94156   0.33983   0.95574   0.00000  Uiso   1.00
H128   H     0.99132   0.79019   0.16772   0.00000  Uiso   1.00
H129   H     0.69215   0.54674   0.60504   0.00000  Uiso   1.00
O130   O     0.95734   0.54264   0.13507   0.00000  Uiso   1.00
O131   O     0.02262   0.13349   0.10122   0.00000  Uiso   1.00
O132   O     0.63012   0.81411   0.67497   0.00000  Uiso   1.00
N133   N     0.92955   0.77113   0.02479   0.00000  Uiso   1.00
N134   N     0.97608   0.19218   0.28805   0.00000  Uiso   1.00
N135   N     0.69638   0.96461   0.69687   0.00000  Uiso   1.00
N136   N     0.93491   0.47933   0.95921   0.00000  Uiso   1.00
N137   N     0.98144   0.90037   0.22247   0.00000  Uiso   1.00
N138   N     0.70175   0.67280   0.63129   0.00000  Uiso   1.00
C139   C     0.36685   0.50162   0.67574   0.00000  Uiso   1.00
C140   C     0.38543   0.36678   0.75592   0.00000  Uiso   1.00
C141   C     0.39808   0.41596   0.85986   0.00000  Uiso   1.00
C142   C     0.41429   0.27198   0.92050   0.00000  Uiso   1.00
C143   C     0.44264   0.09098   0.05134   0.00000  Uiso   1.00
C144   C     0.39827   0.48282   0.55287   0.00000  Uiso   1.00
C145   C     0.42169   0.62958   0.48609   0.00000  Uiso   1.00
C146   C     0.44870   0.58327   0.37580   0.00000  Uiso   1.00
C147   C     0.49695   0.58245   0.19137   0.00000  Uiso   1.00
C148   C     0.32118   0.42009   0.66556   0.00000  Uiso   1.00
C149   C     0.27979   0.51412   0.69350   0.00000  Uiso   1.00
C150   C     0.24190   0.41501   0.67806   0.00000  Uiso   1.00
C151   C     0.17047   0.31680   0.66860   0.00000  Uiso   1.00
C152   C     0.37316   0.15846   0.59861   0.00000  Uiso   1.00
C153   C     0.38886   0.18039   0.71402   0.00000  Uiso   1.00
C154   C     0.40506   0.03629   0.77452   0.00000  Uiso   1.00
C155   C     0.41772   0.08525   0.87853   0.00000  Uiso   1.00
C156   C     0.40169   0.29644   0.51098   0.00000  Uiso   1.00
C157   C     0.42867   0.24991   0.40075   0.00000  Uiso   1.00
C158   C     0.45213   0.39654   0.33383   0.00000  Uiso   1.00
C159   C     0.32461   0.23370   0.62367   0.00000  Uiso   1.00
C160   C     0.28678   0.13444   0.60817   0.00000  Uiso   1.00
C161   C     0.24534   0.22829   0.63608   0.00000  Uiso   1.00
H162   H     0.36418   0.64673   0.70835   0.00000  Uiso   1.00
H163   H     0.39542   0.56023   0.89225   0.00000  Uiso   1.00
H164   H     0.41903   0.77380   0.51853   0.00000  Uiso   1.00
H165   H     0.27715   0.65835   0.72592   0.00000  Uiso   1.00
H166   H     0.43158   0.38213   0.07763   0.00000  Uiso   1.00
H167   H     0.48134   0.83248   0.28962   0.00000  Uiso   1.00
H168   H     0.18218   0.58904   0.72693   0.00000  Uiso   1.00
H169   H     0.37583   0.01334   0.56599   0.00000  Uiso   1.00
H170   H     0.40771   0.89207   0.74208   0.00000  Uiso   1.00
H171   H     0.43131   0.10565   0.36836   0.00000  Uiso   1.00
H172   H     0.28944   0.99020   0.57575   0.00000  Uiso   1.00
H173   H     0.44156   0.83983   0.95574   0.00000  Uiso   1.00
H174   H     0.49132   0.29019   0.16772   0.00000  Uiso   1.00
H175   H     0.19215   0.04674   0.60504   0.00000  Uiso   1.00
O176   O     0.45734   0.04264   0.13507   0.00000  Uiso   1.00
O177   O     0.52262   0.63349   0.10122   0.00000  Uiso   1.00
O178   O     0.13012   0.31411   0.67497   0.00000  Uiso   1.00
N179   N     0.42955   0.27113   0.02479   0.00000  Uiso   1.00
N180   N     0.47608   0.69218   0.28805   0.00000  Uiso   1.00
N181   N     0.19638   0.46461   0.69687   0.00000  Uiso   1.00
N182   N     0.43491   0.97933   0.95921   0.00000  Uiso   1.00
N183   N     0.48144   0.40037   0.22247   0.00000  Uiso   1.00
N184   N     0.20175   0.17280   0.63129   0.00000  Uiso   1.00
