data_job_01529
_audit_creation_date              2018-12-19
_audit_creation_method            'Materials Studio'
_symmetry_space_group_name_H-M    'P1'
_symmetry_Int_Tables_number       1
_symmetry_cell_setting            triclinic
loop_
_symmetry_equiv_pos_as_xyz
  x,y,z
_cell_length_a                    23.3167
_cell_length_b                    11.1320
_cell_length_c                    40.3598
_cell_angle_alpha                 90.0000
_cell_angle_beta                  147.8687
_cell_angle_gamma                 90.0000
loop_
_atom_site_label
_atom_site_type_symbol
_atom_site_fract_x
_atom_site_fract_y
_atom_site_fract_z
_atom_site_U_iso_or_equiv
_atom_site_adp_type
_atom_site_occupancy
C1     C     0.36162   0.31710   0.58567   0.00000  Uiso   1.00
C2     C     0.31596   0.41088   0.58703   0.00000  Uiso   1.00
C3     C     0.20738   0.43104   0.54011   0.00000  Uiso   1.00
C4     C     0.18210   0.52098   0.55027   0.00000  Uiso   1.00
C5     C     0.09896   0.65632   0.54402   0.00000  Uiso   1.00
C6     C     0.43786   0.23964   0.64352   0.00000  Uiso   1.00
C7     C     0.43178   0.11581   0.64409   0.00000  Uiso   1.00
C8     C     0.50913   0.06160   0.70181   0.00000  Uiso   1.00
C9     C     0.61529   0.93107   0.78325   0.00000  Uiso   1.00
C10    C     0.43258   0.38567   0.59601   0.00000  Uiso   1.00
C11    C     0.42209   0.38461   0.55664   0.00000  Uiso   1.00
C12    C     0.49501   0.45333   0.57437   0.00000  Uiso   1.00
C13    C     0.59297   0.54954   0.58204   0.00000  Uiso   1.00
C14    C     0.50979   0.44098   0.68716   0.00000  Uiso   1.00
C15    C     0.39644   0.47817   0.64216   0.00000  Uiso   1.00
C16    C     0.37132   0.56810   0.65239   0.00000  Uiso   1.00
C17    C     0.26272   0.58839   0.60549   0.00000  Uiso   1.00
C18    C     0.51834   0.30692   0.69864   0.00000  Uiso   1.00
C19    C     0.59572   0.25288   0.75637   0.00000  Uiso   1.00
C20    C     0.58976   0.12901   0.75703   0.00000  Uiso   1.00
C21    C     0.51306   0.45296   0.65113   0.00000  Uiso   1.00
C22    C     0.58602   0.52168   0.66892   0.00000  Uiso   1.00
C23    C     0.57563   0.52074   0.62959   0.00000  Uiso   1.00
H24    H     0.29896   0.26471   0.54276   0.00000  Uiso   1.00
H25    H     0.14512   0.37894   0.49746   0.00000  Uiso   1.00
H26    H     0.36950   0.06376   0.60143   0.00000  Uiso   1.00
H27    H     0.35980   0.33253   0.51399   0.00000  Uiso   1.00
H28    H     0.01006   0.53523   0.47156   0.00000  Uiso   1.00
H29    H     0.48318   0.87066   0.69078   0.00000  Uiso   1.00
H30    H     0.46273   0.43740   0.50640   0.00000  Uiso   1.00
H31    H     0.57246   0.49337   0.73007   0.00000  Uiso   1.00
H32    H     0.43362   0.62016   0.69505   0.00000  Uiso   1.00
H33    H     0.65799   0.30498   0.79902   0.00000  Uiso   1.00
H34    H     0.64829   0.57374   0.71158   0.00000  Uiso   1.00
H35    H     0.24421   0.73101   0.63194   0.00000  Uiso   1.00
H36    H     0.71734   0.06644   0.85115   0.00000  Uiso   1.00
H37    H     0.69688   0.63318   0.66677   0.00000  Uiso   1.00
O38    O     0.03087   0.71237   0.52534   0.00000  Uiso   1.00
O39    O     0.65160   0.84048   0.81294   0.00000  Uiso   1.00
O40    O     0.62476   0.58403   0.57104   0.00000  Uiso   1.00
N41    N     0.08422   0.56392   0.51411   0.00000  Uiso   1.00
N42    N     0.52655   0.94259   0.71906   0.00000  Uiso   1.00
N43    N     0.50745   0.47242   0.54669   0.00000  Uiso   1.00
N44    N     0.21021   0.66927   0.60040   0.00000  Uiso   1.00
N45    N     0.65255   0.04794   0.80536   0.00000  Uiso   1.00
N46    N     0.63344   0.57777   0.63299   0.00000  Uiso   1.00
C47    C     0.86162   0.81710   0.58567   0.00000  Uiso   1.00
C48    C     0.81596   0.91088   0.58703   0.00000  Uiso   1.00
C49    C     0.70738   0.93104   0.54011   0.00000  Uiso   1.00
C50    C     0.68210   0.02098   0.55027   0.00000  Uiso   1.00
C51    C     0.59896   0.15632   0.54402   0.00000  Uiso   1.00
C52    C     0.93786   0.73964   0.64352   0.00000  Uiso   1.00
C53    C     0.93178   0.61581   0.64409   0.00000  Uiso   1.00
C54    C     0.00913   0.56160   0.70181   0.00000  Uiso   1.00
C55    C     0.11529   0.43107   0.78325   0.00000  Uiso   1.00
C56    C     0.93258   0.88567   0.59601   0.00000  Uiso   1.00
C57    C     0.92209   0.88461   0.55664   0.00000  Uiso   1.00
C58    C     0.99501   0.95333   0.57437   0.00000  Uiso   1.00
C59    C     0.09297   0.04954   0.58204   0.00000  Uiso   1.00
C60    C     0.00979   0.94098   0.68716   0.00000  Uiso   1.00
C61    C     0.89644   0.97817   0.64216   0.00000  Uiso   1.00
C62    C     0.87132   0.06810   0.65239   0.00000  Uiso   1.00
C63    C     0.76272   0.08839   0.60549   0.00000  Uiso   1.00
C64    C     0.01834   0.80692   0.69864   0.00000  Uiso   1.00
C65    C     0.09572   0.75288   0.75637   0.00000  Uiso   1.00
C66    C     0.08976   0.62901   0.75703   0.00000  Uiso   1.00
C67    C     0.01306   0.95296   0.65113   0.00000  Uiso   1.00
C68    C     0.08602   0.02168   0.66892   0.00000  Uiso   1.00
C69    C     0.07563   0.02074   0.62959   0.00000  Uiso   1.00
H70    H     0.79896   0.76471   0.54276   0.00000  Uiso   1.00
H71    H     0.64512   0.87894   0.49746   0.00000  Uiso   1.00
H72    H     0.86950   0.56376   0.60143   0.00000  Uiso   1.00
H73    H     0.85980   0.83253   0.51399   0.00000  Uiso   1.00
H74    H     0.51006   0.03523   0.47156   0.00000  Uiso   1.00
H75    H     0.98318   0.37066   0.69078   0.00000  Uiso   1.00
H76    H     0.96273   0.93740   0.50640   0.00000  Uiso   1.00
H77    H     0.07246   0.99337   0.73007   0.00000  Uiso   1.00
H78    H     0.93362   0.12016   0.69505   0.00000  Uiso   1.00
H79    H     0.15799   0.80498   0.79902   0.00000  Uiso   1.00
H80    H     0.14829   0.07374   0.71158   0.00000  Uiso   1.00
H81    H     0.74421   0.23101   0.63194   0.00000  Uiso   1.00
H82    H     0.21734   0.56644   0.85115   0.00000  Uiso   1.00
H83    H     0.19688   0.13318   0.66677   0.00000  Uiso   1.00
O84    O     0.53087   0.21237   0.52534   0.00000  Uiso   1.00
O85    O     0.15160   0.34048   0.81294   0.00000  Uiso   1.00
O86    O     0.12476   0.08403   0.57104   0.00000  Uiso   1.00
N87    N     0.58422   0.06392   0.51411   0.00000  Uiso   1.00
N88    N     0.02655   0.44259   0.71906   0.00000  Uiso   1.00
N89    N     0.00745   0.97242   0.54669   0.00000  Uiso   1.00
N90    N     0.71021   0.16927   0.60040   0.00000  Uiso   1.00
N91    N     0.15255   0.54794   0.80536   0.00000  Uiso   1.00
N92    N     0.13344   0.07777   0.63299   0.00000  Uiso   1.00
C93    C     0.63838   0.31710   0.91433   0.00000  Uiso   1.00
C94    C     0.68404   0.41088   0.91297   0.00000  Uiso   1.00
C95    C     0.79262   0.43104   0.95989   0.00000  Uiso   1.00
C96    C     0.81790   0.52098   0.94973   0.00000  Uiso   1.00
C97    C     0.90104   0.65632   0.95598   0.00000  Uiso   1.00
C98    C     0.56214   0.23964   0.85648   0.00000  Uiso   1.00
C99    C     0.56822   0.11581   0.85591   0.00000  Uiso   1.00
C100   C     0.49087   0.06160   0.79819   0.00000  Uiso   1.00
C101   C     0.38471   0.93107   0.71675   0.00000  Uiso   1.00
C102   C     0.56742   0.38567   0.90399   0.00000  Uiso   1.00
C103   C     0.57791   0.38461   0.94336   0.00000  Uiso   1.00
C104   C     0.50499   0.45333   0.92563   0.00000  Uiso   1.00
C105   C     0.40703   0.54954   0.91796   0.00000  Uiso   1.00
C106   C     0.49021   0.44098   0.81284   0.00000  Uiso   1.00
C107   C     0.60356   0.47817   0.85784   0.00000  Uiso   1.00
C108   C     0.62868   0.56810   0.84761   0.00000  Uiso   1.00
C109   C     0.73728   0.58839   0.89451   0.00000  Uiso   1.00
C110   C     0.48166   0.30692   0.80136   0.00000  Uiso   1.00
C111   C     0.40428   0.25288   0.74363   0.00000  Uiso   1.00
C112   C     0.41024   0.12901   0.74297   0.00000  Uiso   1.00
C113   C     0.48694   0.45296   0.84887   0.00000  Uiso   1.00
C114   C     0.41398   0.52168   0.83108   0.00000  Uiso   1.00
C115   C     0.42437   0.52074   0.87041   0.00000  Uiso   1.00
H116   H     0.70104   0.26471   0.95724   0.00000  Uiso   1.00
H117   H     0.85488   0.37894   0.00254   0.00000  Uiso   1.00
H118   H     0.63050   0.06376   0.89857   0.00000  Uiso   1.00
H119   H     0.64020   0.33253   0.98601   0.00000  Uiso   1.00
H120   H     0.98994   0.53523   0.02844   0.00000  Uiso   1.00
H121   H     0.51682   0.87066   0.80922   0.00000  Uiso   1.00
H122   H     0.53727   0.43740   0.99360   0.00000  Uiso   1.00
H123   H     0.42754   0.49337   0.76993   0.00000  Uiso   1.00
H124   H     0.56638   0.62016   0.80495   0.00000  Uiso   1.00
H125   H     0.34201   0.30498   0.70098   0.00000  Uiso   1.00
H126   H     0.35171   0.57374   0.78842   0.00000  Uiso   1.00
H127   H     0.75579   0.73101   0.86806   0.00000  Uiso   1.00
H128   H     0.28266   0.06644   0.64885   0.00000  Uiso   1.00
H129   H     0.30312   0.63318   0.83323   0.00000  Uiso   1.00
O130   O     0.96913   0.71237   0.97466   0.00000  Uiso   1.00
O131   O     0.34840   0.84048   0.68706   0.00000  Uiso   1.00
O132   O     0.37524   0.58403   0.92896   0.00000  Uiso   1.00
N133   N     0.91578   0.56392   0.98589   0.00000  Uiso   1.00
N134   N     0.47345   0.94259   0.78094   0.00000  Uiso   1.00
N135   N     0.49255   0.47242   0.95331   0.00000  Uiso   1.00
N136   N     0.78979   0.66927   0.89960   0.00000  Uiso   1.00
N137   N     0.34745   0.04794   0.69464   0.00000  Uiso   1.00
N138   N     0.36656   0.57777   0.86701   0.00000  Uiso   1.00
C139   C     0.13838   0.81710   0.91433   0.00000  Uiso   1.00
C140   C     0.18404   0.91088   0.91297   0.00000  Uiso   1.00
C141   C     0.29262   0.93104   0.95989   0.00000  Uiso   1.00
C142   C     0.31790   0.02098   0.94973   0.00000  Uiso   1.00
C143   C     0.40104   0.15632   0.95598   0.00000  Uiso   1.00
C144   C     0.06214   0.73964   0.85648   0.00000  Uiso   1.00
C145   C     0.06822   0.61581   0.85591   0.00000  Uiso   1.00
C146   C     0.99087   0.56160   0.79819   0.00000  Uiso   1.00
C147   C     0.88471   0.43107   0.71675   0.00000  Uiso   1.00
C148   C     0.06742   0.88567   0.90399   0.00000  Uiso   1.00
C149   C     0.07791   0.88461   0.94336   0.00000  Uiso   1.00
C150   C     0.00499   0.95333   0.92563   0.00000  Uiso   1.00
C151   C     0.90703   0.04954   0.91796   0.00000  Uiso   1.00
C152   C     0.99021   0.94098   0.81284   0.00000  Uiso   1.00
C153   C     0.10356   0.97817   0.85784   0.00000  Uiso   1.00
C154   C     0.12868   0.06810   0.84761   0.00000  Uiso   1.00
C155   C     0.23728   0.08839   0.89451   0.00000  Uiso   1.00
C156   C     0.98166   0.80692   0.80136   0.00000  Uiso   1.00
C157   C     0.90428   0.75288   0.74363   0.00000  Uiso   1.00
C158   C     0.91024   0.62901   0.74297   0.00000  Uiso   1.00
C159   C     0.98694   0.95296   0.84887   0.00000  Uiso   1.00
C160   C     0.91398   0.02168   0.83108   0.00000  Uiso   1.00
C161   C     0.92437   0.02074   0.87041   0.00000  Uiso   1.00
H162   H     0.20104   0.76471   0.95724   0.00000  Uiso   1.00
H163   H     0.35488   0.87894   0.00254   0.00000  Uiso   1.00
H164   H     0.13050   0.56376   0.89857   0.00000  Uiso   1.00
H165   H     0.14020   0.83253   0.98601   0.00000  Uiso   1.00
H166   H     0.48994   0.03523   0.02844   0.00000  Uiso   1.00
H167   H     0.01682   0.37066   0.80922   0.00000  Uiso   1.00
H168   H     0.03727   0.93740   0.99360   0.00000  Uiso   1.00
H169   H     0.92754   0.99337   0.76993   0.00000  Uiso   1.00
H170   H     0.06638   0.12016   0.80495   0.00000  Uiso   1.00
H171   H     0.84201   0.80498   0.70098   0.00000  Uiso   1.00
H172   H     0.85171   0.07374   0.78842   0.00000  Uiso   1.00
H173   H     0.25579   0.23101   0.86806   0.00000  Uiso   1.00
H174   H     0.78266   0.56644   0.64885   0.00000  Uiso   1.00
H175   H     0.80312   0.13318   0.83323   0.00000  Uiso   1.00
O176   O     0.46913   0.21237   0.97466   0.00000  Uiso   1.00
O177   O     0.84840   0.34048   0.68706   0.00000  Uiso   1.00
O178   O     0.87524   0.08403   0.92896   0.00000  Uiso   1.00
N179   N     0.41578   0.06392   0.98589   0.00000  Uiso   1.00
N180   N     0.97345   0.44259   0.78094   0.00000  Uiso   1.00
N181   N     0.99255   0.97242   0.95331   0.00000  Uiso   1.00
N182   N     0.28979   0.16927   0.89960   0.00000  Uiso   1.00
N183   N     0.84745   0.54794   0.69464   0.00000  Uiso   1.00
N184   N     0.86656   0.07777   0.86701   0.00000  Uiso   1.00
C185   C     0.63838   0.68290   0.41433   0.00000  Uiso   1.00
C186   C     0.68404   0.58912   0.41297   0.00000  Uiso   1.00
C187   C     0.79262   0.56896   0.45989   0.00000  Uiso   1.00
C188   C     0.81790   0.47902   0.44973   0.00000  Uiso   1.00
C189   C     0.90104   0.34368   0.45598   0.00000  Uiso   1.00
C190   C     0.56214   0.76036   0.35648   0.00000  Uiso   1.00
C191   C     0.56822   0.88419   0.35591   0.00000  Uiso   1.00
C192   C     0.49087   0.93840   0.29819   0.00000  Uiso   1.00
C193   C     0.38471   0.06893   0.21675   0.00000  Uiso   1.00
C194   C     0.56742   0.61433   0.40399   0.00000  Uiso   1.00
C195   C     0.57791   0.61539   0.44336   0.00000  Uiso   1.00
C196   C     0.50499   0.54667   0.42563   0.00000  Uiso   1.00
C197   C     0.40703   0.45046   0.41796   0.00000  Uiso   1.00
C198   C     0.49021   0.55902   0.31284   0.00000  Uiso   1.00
C199   C     0.60356   0.52183   0.35784   0.00000  Uiso   1.00
C200   C     0.62868   0.43190   0.34761   0.00000  Uiso   1.00
C201   C     0.73728   0.41161   0.39451   0.00000  Uiso   1.00
C202   C     0.48166   0.69308   0.30136   0.00000  Uiso   1.00
C203   C     0.40428   0.74712   0.24363   0.00000  Uiso   1.00
C204   C     0.41024   0.87099   0.24297   0.00000  Uiso   1.00
C205   C     0.48694   0.54704   0.34887   0.00000  Uiso   1.00
C206   C     0.41398   0.47832   0.33108   0.00000  Uiso   1.00
C207   C     0.42437   0.47926   0.37041   0.00000  Uiso   1.00
H208   H     0.70104   0.73529   0.45724   0.00000  Uiso   1.00
H209   H     0.85488   0.62106   0.50254   0.00000  Uiso   1.00
H210   H     0.63050   0.93624   0.39857   0.00000  Uiso   1.00
H211   H     0.64020   0.66747   0.48601   0.00000  Uiso   1.00
H212   H     0.98994   0.46477   0.52844   0.00000  Uiso   1.00
H213   H     0.51682   0.12934   0.30922   0.00000  Uiso   1.00
H214   H     0.53727   0.56260   0.49360   0.00000  Uiso   1.00
H215   H     0.42754   0.50663   0.26993   0.00000  Uiso   1.00
H216   H     0.56638   0.37984   0.30495   0.00000  Uiso   1.00
H217   H     0.34201   0.69502   0.20098   0.00000  Uiso   1.00
H218   H     0.35171   0.42626   0.28842   0.00000  Uiso   1.00
H219   H     0.75579   0.26899   0.36806   0.00000  Uiso   1.00
H220   H     0.28266   0.93356   0.14885   0.00000  Uiso   1.00
H221   H     0.30312   0.36682   0.33323   0.00000  Uiso   1.00
O222   O     0.96913   0.28763   0.47466   0.00000  Uiso   1.00
O223   O     0.34840   0.15952   0.18706   0.00000  Uiso   1.00
O224   O     0.37524   0.41597   0.42896   0.00000  Uiso   1.00
N225   N     0.91578   0.43608   0.48589   0.00000  Uiso   1.00
N226   N     0.47345   0.05741   0.28094   0.00000  Uiso   1.00
N227   N     0.49255   0.52758   0.45331   0.00000  Uiso   1.00
N228   N     0.78979   0.33073   0.39960   0.00000  Uiso   1.00
N229   N     0.34745   0.95206   0.19464   0.00000  Uiso   1.00
N230   N     0.36656   0.42223   0.36701   0.00000  Uiso   1.00
C231   C     0.13838   0.18290   0.41433   0.00000  Uiso   1.00
C232   C     0.18404   0.08912   0.41297   0.00000  Uiso   1.00
C233   C     0.29262   0.06896   0.45989   0.00000  Uiso   1.00
C234   C     0.31790   0.97902   0.44973   0.00000  Uiso   1.00
C235   C     0.40104   0.84368   0.45598   0.00000  Uiso   1.00
C236   C     0.06214   0.26036   0.35648   0.00000  Uiso   1.00
C237   C     0.06822   0.38419   0.35591   0.00000  Uiso   1.00
C238   C     0.99087   0.43840   0.29819   0.00000  Uiso   1.00
C239   C     0.88471   0.56893   0.21675   0.00000  Uiso   1.00
C240   C     0.06742   0.11433   0.40399   0.00000  Uiso   1.00
C241   C     0.07791   0.11539   0.44336   0.00000  Uiso   1.00
C242   C     0.00499   0.04667   0.42563   0.00000  Uiso   1.00
C243   C     0.90703   0.95046   0.41796   0.00000  Uiso   1.00
C244   C     0.99021   0.05902   0.31284   0.00000  Uiso   1.00
C245   C     0.10356   0.02183   0.35784   0.00000  Uiso   1.00
C246   C     0.12868   0.93190   0.34761   0.00000  Uiso   1.00
C247   C     0.23728   0.91161   0.39451   0.00000  Uiso   1.00
C248   C     0.98166   0.19308   0.30136   0.00000  Uiso   1.00
C249   C     0.90428   0.24712   0.24363   0.00000  Uiso   1.00
C250   C     0.91024   0.37099   0.24297   0.00000  Uiso   1.00
C251   C     0.98694   0.04704   0.34887   0.00000  Uiso   1.00
C252   C     0.91398   0.97832   0.33108   0.00000  Uiso   1.00
C253   C     0.92437   0.97926   0.37041   0.00000  Uiso   1.00
H254   H     0.20104   0.23529   0.45724   0.00000  Uiso   1.00
H255   H     0.35488   0.12106   0.50254   0.00000  Uiso   1.00
H256   H     0.13050   0.43624   0.39857   0.00000  Uiso   1.00
H257   H     0.14020   0.16747   0.48601   0.00000  Uiso   1.00
H258   H     0.48994   0.96477   0.52844   0.00000  Uiso   1.00
H259   H     0.01682   0.62934   0.30922   0.00000  Uiso   1.00
H260   H     0.03727   0.06260   0.49360   0.00000  Uiso   1.00
H261   H     0.92754   0.00663   0.26993   0.00000  Uiso   1.00
H262   H     0.06638   0.87984   0.30495   0.00000  Uiso   1.00
H263   H     0.84201   0.19502   0.20098   0.00000  Uiso   1.00
H264   H     0.85171   0.92626   0.28842   0.00000  Uiso   1.00
H265   H     0.25579   0.76899   0.36806   0.00000  Uiso   1.00
H266   H     0.78266   0.43356   0.14885   0.00000  Uiso   1.00
H267   H     0.80312   0.86682   0.33323   0.00000  Uiso   1.00
O268   O     0.46913   0.78763   0.47466   0.00000  Uiso   1.00
O269   O     0.84840   0.65952   0.18706   0.00000  Uiso   1.00
O270   O     0.87524   0.91597   0.42896   0.00000  Uiso   1.00
N271   N     0.41578   0.93608   0.48589   0.00000  Uiso   1.00
N272   N     0.97345   0.55741   0.28094   0.00000  Uiso   1.00
N273   N     0.99255   0.02758   0.45331   0.00000  Uiso   1.00
N274   N     0.28979   0.83073   0.39960   0.00000  Uiso   1.00
N275   N     0.84745   0.45206   0.19464   0.00000  Uiso   1.00
N276   N     0.86656   0.92223   0.36701   0.00000  Uiso   1.00
C277   C     0.36162   0.68290   0.08567   0.00000  Uiso   1.00
C278   C     0.31596   0.58912   0.08703   0.00000  Uiso   1.00
C279   C     0.20738   0.56896   0.04011   0.00000  Uiso   1.00
C280   C     0.18210   0.47902   0.05027   0.00000  Uiso   1.00
C281   C     0.09896   0.34368   0.04402   0.00000  Uiso   1.00
C282   C     0.43786   0.76036   0.14352   0.00000  Uiso   1.00
C283   C     0.43178   0.88419   0.14409   0.00000  Uiso   1.00
C284   C     0.50913   0.93840   0.20181   0.00000  Uiso   1.00
C285   C     0.61529   0.06893   0.28325   0.00000  Uiso   1.00
C286   C     0.43258   0.61433   0.09601   0.00000  Uiso   1.00
C287   C     0.42209   0.61539   0.05664   0.00000  Uiso   1.00
C288   C     0.49501   0.54667   0.07437   0.00000  Uiso   1.00
C289   C     0.59297   0.45046   0.08204   0.00000  Uiso   1.00
C290   C     0.50979   0.55902   0.18716   0.00000  Uiso   1.00
C291   C     0.39644   0.52183   0.14216   0.00000  Uiso   1.00
C292   C     0.37132   0.43190   0.15239   0.00000  Uiso   1.00
C293   C     0.26272   0.41161   0.10549   0.00000  Uiso   1.00
C294   C     0.51834   0.69308   0.19864   0.00000  Uiso   1.00
C295   C     0.59572   0.74712   0.25637   0.00000  Uiso   1.00
C296   C     0.58976   0.87099   0.25703   0.00000  Uiso   1.00
C297   C     0.51306   0.54704   0.15113   0.00000  Uiso   1.00
C298   C     0.58602   0.47832   0.16892   0.00000  Uiso   1.00
C299   C     0.57563   0.47926   0.12959   0.00000  Uiso   1.00
H300   H     0.29896   0.73529   0.04276   0.00000  Uiso   1.00
H301   H     0.14512   0.62106   0.99746   0.00000  Uiso   1.00
H302   H     0.36950   0.93624   0.10143   0.00000  Uiso   1.00
H303   H     0.35980   0.66747   0.01399   0.00000  Uiso   1.00
H304   H     0.01006   0.46477   0.97156   0.00000  Uiso   1.00
H305   H     0.48318   0.12934   0.19078   0.00000  Uiso   1.00
H306   H     0.46273   0.56260   0.00640   0.00000  Uiso   1.00
H307   H     0.57246   0.50663   0.23007   0.00000  Uiso   1.00
H308   H     0.43362   0.37984   0.19505   0.00000  Uiso   1.00
H309   H     0.65799   0.69502   0.29902   0.00000  Uiso   1.00
H310   H     0.64829   0.42626   0.21158   0.00000  Uiso   1.00
H311   H     0.24421   0.26899   0.13194   0.00000  Uiso   1.00
H312   H     0.71734   0.93356   0.35115   0.00000  Uiso   1.00
H313   H     0.69688   0.36682   0.16677   0.00000  Uiso   1.00
O314   O     0.03087   0.28763   0.02534   0.00000  Uiso   1.00
O315   O     0.65160   0.15952   0.31294   0.00000  Uiso   1.00
O316   O     0.62476   0.41597   0.07104   0.00000  Uiso   1.00
N317   N     0.08422   0.43608   0.01411   0.00000  Uiso   1.00
N318   N     0.52655   0.05741   0.21906   0.00000  Uiso   1.00
N319   N     0.50745   0.52758   0.04669   0.00000  Uiso   1.00
N320   N     0.21021   0.33073   0.10040   0.00000  Uiso   1.00
N321   N     0.65255   0.95206   0.30536   0.00000  Uiso   1.00
N322   N     0.63344   0.42223   0.13299   0.00000  Uiso   1.00
C323   C     0.86162   0.18290   0.08567   0.00000  Uiso   1.00
C324   C     0.81596   0.08912   0.08703   0.00000  Uiso   1.00
C325   C     0.70738   0.06896   0.04011   0.00000  Uiso   1.00
C326   C     0.68210   0.97902   0.05027   0.00000  Uiso   1.00
C327   C     0.59896   0.84368   0.04402   0.00000  Uiso   1.00
C328   C     0.93786   0.26036   0.14352   0.00000  Uiso   1.00
C329   C     0.93178   0.38419   0.14409   0.00000  Uiso   1.00
C330   C     0.00913   0.43840   0.20181   0.00000  Uiso   1.00
C331   C     0.11529   0.56893   0.28325   0.00000  Uiso   1.00
C332   C     0.93258   0.11433   0.09601   0.00000  Uiso   1.00
C333   C     0.92209   0.11539   0.05664   0.00000  Uiso   1.00
C334   C     0.99501   0.04667   0.07437   0.00000  Uiso   1.00
C335   C     0.09297   0.95046   0.08204   0.00000  Uiso   1.00
C336   C     0.00979   0.05902   0.18716   0.00000  Uiso   1.00
C337   C     0.89644   0.02183   0.14216   0.00000  Uiso   1.00
C338   C     0.87132   0.93190   0.15239   0.00000  Uiso   1.00
C339   C     0.76272   0.91161   0.10549   0.00000  Uiso   1.00
C340   C     0.01834   0.19308   0.19864   0.00000  Uiso   1.00
C341   C     0.09572   0.24712   0.25637   0.00000  Uiso   1.00
C342   C     0.08976   0.37099   0.25703   0.00000  Uiso   1.00
C343   C     0.01306   0.04704   0.15113   0.00000  Uiso   1.00
C344   C     0.08602   0.97832   0.16892   0.00000  Uiso   1.00
C345   C     0.07563   0.97926   0.12959   0.00000  Uiso   1.00
H346   H     0.79896   0.23529   0.04276   0.00000  Uiso   1.00
H347   H     0.64512   0.12106   0.99746   0.00000  Uiso   1.00
H348   H     0.86950   0.43624   0.10143   0.00000  Uiso   1.00
H349   H     0.85980   0.16747   0.01399   0.00000  Uiso   1.00
H350   H     0.51006   0.96477   0.97156   0.00000  Uiso   1.00
H351   H     0.98318   0.62934   0.19078   0.00000  Uiso   1.00
H352   H     0.96273   0.06260   0.00640   0.00000  Uiso   1.00
H353   H     0.07246   0.00663   0.23007   0.00000  Uiso   1.00
H354   H     0.93362   0.87984   0.19505   0.00000  Uiso   1.00
H355   H     0.15799   0.19502   0.29902   0.00000  Uiso   1.00
H356   H     0.14829   0.92626   0.21158   0.00000  Uiso   1.00
H357   H     0.74421   0.76899   0.13194   0.00000  Uiso   1.00
H358   H     0.21734   0.43356   0.35115   0.00000  Uiso   1.00
H359   H     0.19688   0.86682   0.16677   0.00000  Uiso   1.00
O360   O     0.53087   0.78763   0.02534   0.00000  Uiso   1.00
O361   O     0.15160   0.65952   0.31294   0.00000  Uiso   1.00
O362   O     0.12476   0.91597   0.07104   0.00000  Uiso   1.00
N363   N     0.58422   0.93608   0.01411   0.00000  Uiso   1.00
N364   N     0.02655   0.55741   0.21906   0.00000  Uiso   1.00
N365   N     0.00745   0.02758   0.04669   0.00000  Uiso   1.00
N366   N     0.71021   0.83073   0.10040   0.00000  Uiso   1.00
N367   N     0.15255   0.45206   0.30536   0.00000  Uiso   1.00
N368   N     0.13344   0.92223   0.13299   0.00000  Uiso   1.00
