data_job_00841
_audit_creation_date              2018-12-19
_audit_creation_method            'Materials Studio'
_symmetry_space_group_name_H-M    'P1'
_symmetry_Int_Tables_number       1
_symmetry_cell_setting            triclinic
loop_
_symmetry_equiv_pos_as_xyz
  x,y,z
_cell_length_a                    15.9647
_cell_length_b                    17.1243
_cell_length_c                    16.0171
_cell_angle_alpha                 90.0000
_cell_angle_beta                  90.0000
_cell_angle_gamma                 90.0000
loop_
_atom_site_label
_atom_site_type_symbol
_atom_site_fract_x
_atom_site_fract_y
_atom_site_fract_z
_atom_site_U_iso_or_equiv
_atom_site_adp_type
_atom_site_occupancy
C1     C     0.93841   0.73900   0.37347   0.00000  Uiso   1.00
C2     C     0.88772   0.71137   0.29838   0.00000  Uiso   1.00
C3     C     0.81406   0.66846   0.30167   0.00000  Uiso   1.00
C4     C     0.77721   0.64887   0.22599   0.00000  Uiso   1.00
C5     C     0.69312   0.60251   0.12098   0.00000  Uiso   1.00
C6     C     0.02658   0.70670   0.36127   0.00000  Uiso   1.00
C7     C     0.06966   0.65987   0.41746   0.00000  Uiso   1.00
C8     C     0.14971   0.63636   0.39473   0.00000  Uiso   1.00
C9     C     0.28121   0.58279   0.38739   0.00000  Uiso   1.00
C10    C     0.94586   0.82740   0.36465   0.00000  Uiso   1.00
C11    C     0.92110   0.88205   0.42369   0.00000  Uiso   1.00
C12    C     0.93321   0.96016   0.40382   0.00000  Uiso   1.00
C13    C     0.93939   0.09398   0.40173   0.00000  Uiso   1.00
C14    C     0.00397   0.78055   0.23322   0.00000  Uiso   1.00
C15    C     0.92333   0.73394   0.22220   0.00000  Uiso   1.00
C16    C     0.88659   0.71442   0.14650   0.00000  Uiso   1.00
C17    C     0.81288   0.67148   0.14968   0.00000  Uiso   1.00
C18    C     0.06219   0.72926   0.28510   0.00000  Uiso   1.00
C19    C     0.14219   0.70583   0.26229   0.00000  Uiso   1.00
C20    C     0.18539   0.65896   0.31842   0.00000  Uiso   1.00
C21    C     0.98147   0.84996   0.28848   0.00000  Uiso   1.00
C22    C     0.99363   0.92800   0.26851   0.00000  Uiso   1.00
C23    C     0.96889   0.98276   0.32750   0.00000  Uiso   1.00
H24    H     0.91069   0.72144   0.43278   0.00000  Uiso   1.00
H25    H     0.78652   0.65100   0.36063   0.00000  Uiso   1.00
H26    H     0.04209   0.64242   0.47640   0.00000  Uiso   1.00
H27    H     0.89355   0.86456   0.48263   0.00000  Uiso   1.00
H28    H     0.66458   0.58284   0.24705   0.00000  Uiso   1.00
H29    H     0.20347   0.56477   0.49117   0.00000  Uiso   1.00
H30    H     0.89024   0.03320   0.50431   0.00000  Uiso   1.00
H31    H     0.03169   0.79811   0.17391   0.00000  Uiso   1.00
H32    H     0.91416   0.73189   0.08756   0.00000  Uiso   1.00
H33    H     0.16973   0.72330   0.20333   0.00000  Uiso   1.00
H34    H     0.02119   0.94544   0.20956   0.00000  Uiso   1.00
H35    H     0.76818   0.64848   0.02541   0.00000  Uiso   1.00
H36    H     0.30707   0.63041   0.26954   0.00000  Uiso   1.00
H37    H     0.99384   0.09884   0.28267   0.00000  Uiso   1.00
O38    O     0.63690   0.57069   0.08409   0.00000  Uiso   1.00
O39    O     0.34390   0.54699   0.40438   0.00000  Uiso   1.00
O40    O     0.93294   0.16156   0.42161   0.00000  Uiso   1.00
N41    N     0.70509   0.60739   0.20674   0.00000  Uiso   1.00
N42    N     0.20891   0.59048   0.43497   0.00000  Uiso   1.00
N43    N     0.91608   0.02842   0.44726   0.00000  Uiso   1.00
N44    N     0.76083   0.64271   0.08748   0.00000  Uiso   1.00
N45    N     0.26465   0.62581   0.31571   0.00000  Uiso   1.00
N46    N     0.97183   0.06375   0.32800   0.00000  Uiso   1.00
C47    C     0.56159   0.76100   0.37347   0.00000  Uiso   1.00
C48    C     0.61228   0.78863   0.29838   0.00000  Uiso   1.00
C49    C     0.68594   0.83154   0.30167   0.00000  Uiso   1.00
C50    C     0.72279   0.85113   0.22599   0.00000  Uiso   1.00
C51    C     0.80688   0.89749   0.12098   0.00000  Uiso   1.00
C52    C     0.47342   0.79330   0.36127   0.00000  Uiso   1.00
C53    C     0.43034   0.84013   0.41746   0.00000  Uiso   1.00
C54    C     0.35029   0.86364   0.39473   0.00000  Uiso   1.00
C55    C     0.21879   0.91721   0.38739   0.00000  Uiso   1.00
C56    C     0.55414   0.67260   0.36465   0.00000  Uiso   1.00
C57    C     0.57890   0.61795   0.42369   0.00000  Uiso   1.00
C58    C     0.56679   0.53984   0.40382   0.00000  Uiso   1.00
C59    C     0.56061   0.40602   0.40173   0.00000  Uiso   1.00
C60    C     0.49603   0.71945   0.23322   0.00000  Uiso   1.00
C61    C     0.57667   0.76606   0.22220   0.00000  Uiso   1.00
C62    C     0.61341   0.78558   0.14650   0.00000  Uiso   1.00
C63    C     0.68712   0.82852   0.14968   0.00000  Uiso   1.00
C64    C     0.43781   0.77074   0.28510   0.00000  Uiso   1.00
C65    C     0.35781   0.79417   0.26229   0.00000  Uiso   1.00
C66    C     0.31461   0.84104   0.31842   0.00000  Uiso   1.00
C67    C     0.51853   0.65004   0.28848   0.00000  Uiso   1.00
C68    C     0.50637   0.57200   0.26851   0.00000  Uiso   1.00
C69    C     0.53111   0.51724   0.32750   0.00000  Uiso   1.00
H70    H     0.58931   0.77856   0.43278   0.00000  Uiso   1.00
H71    H     0.71348   0.84900   0.36063   0.00000  Uiso   1.00
H72    H     0.45791   0.85758   0.47640   0.00000  Uiso   1.00
H73    H     0.60645   0.63544   0.48263   0.00000  Uiso   1.00
H74    H     0.83542   0.91716   0.24705   0.00000  Uiso   1.00
H75    H     0.29653   0.93523   0.49117   0.00000  Uiso   1.00
H76    H     0.60976   0.46680   0.50431   0.00000  Uiso   1.00
H77    H     0.46831   0.70189   0.17391   0.00000  Uiso   1.00
H78    H     0.58584   0.76811   0.08756   0.00000  Uiso   1.00
H79    H     0.33027   0.77670   0.20333   0.00000  Uiso   1.00
H80    H     0.47881   0.55456   0.20956   0.00000  Uiso   1.00
H81    H     0.73182   0.85152   0.02541   0.00000  Uiso   1.00
H82    H     0.19293   0.86959   0.26954   0.00000  Uiso   1.00
H83    H     0.50616   0.40116   0.28267   0.00000  Uiso   1.00
O84    O     0.86310   0.92931   0.08409   0.00000  Uiso   1.00
O85    O     0.15610   0.95301   0.40438   0.00000  Uiso   1.00
O86    O     0.56706   0.33844   0.42161   0.00000  Uiso   1.00
N87    N     0.79491   0.89261   0.20674   0.00000  Uiso   1.00
N88    N     0.29109   0.90952   0.43497   0.00000  Uiso   1.00
N89    N     0.58392   0.47158   0.44726   0.00000  Uiso   1.00
N90    N     0.73917   0.85729   0.08748   0.00000  Uiso   1.00
N91    N     0.23535   0.87419   0.31571   0.00000  Uiso   1.00
N92    N     0.52817   0.43625   0.32800   0.00000  Uiso   1.00
C93    C     0.06159   0.23900   0.12653   0.00000  Uiso   1.00
C94    C     0.11228   0.21137   0.20162   0.00000  Uiso   1.00
C95    C     0.18594   0.16846   0.19833   0.00000  Uiso   1.00
C96    C     0.22279   0.14887   0.27401   0.00000  Uiso   1.00
C97    C     0.30688   0.10251   0.37902   0.00000  Uiso   1.00
C98    C     0.97342   0.20670   0.13873   0.00000  Uiso   1.00
C99    C     0.93034   0.15987   0.08254   0.00000  Uiso   1.00
C100   C     0.85029   0.13636   0.10527   0.00000  Uiso   1.00
C101   C     0.71879   0.08279   0.11261   0.00000  Uiso   1.00
C102   C     0.05414   0.32740   0.13535   0.00000  Uiso   1.00
C103   C     0.07890   0.38205   0.07631   0.00000  Uiso   1.00
C104   C     0.06679   0.46016   0.09618   0.00000  Uiso   1.00
C105   C     0.06061   0.59398   0.09827   0.00000  Uiso   1.00
C106   C     0.99603   0.28055   0.26678   0.00000  Uiso   1.00
C107   C     0.07667   0.23394   0.27780   0.00000  Uiso   1.00
C108   C     0.11341   0.21442   0.35350   0.00000  Uiso   1.00
C109   C     0.18712   0.17148   0.35032   0.00000  Uiso   1.00
C110   C     0.93781   0.22926   0.21490   0.00000  Uiso   1.00
C111   C     0.85781   0.20583   0.23771   0.00000  Uiso   1.00
C112   C     0.81461   0.15896   0.18158   0.00000  Uiso   1.00
C113   C     0.01853   0.34996   0.21152   0.00000  Uiso   1.00
C114   C     0.00637   0.42800   0.23149   0.00000  Uiso   1.00
C115   C     0.03111   0.48276   0.17250   0.00000  Uiso   1.00
H116   H     0.08931   0.22144   0.06722   0.00000  Uiso   1.00
H117   H     0.21348   0.15100   0.13937   0.00000  Uiso   1.00
H118   H     0.95791   0.14242   0.02360   0.00000  Uiso   1.00
H119   H     0.10645   0.36456   0.01737   0.00000  Uiso   1.00
H120   H     0.33542   0.08284   0.25295   0.00000  Uiso   1.00
H121   H     0.79653   0.06477   0.00883   0.00000  Uiso   1.00
H122   H     0.10976   0.53320   0.99569   0.00000  Uiso   1.00
H123   H     0.96831   0.29811   0.32609   0.00000  Uiso   1.00
H124   H     0.08584   0.23189   0.41244   0.00000  Uiso   1.00
H125   H     0.83027   0.22330   0.29667   0.00000  Uiso   1.00
H126   H     0.97881   0.44544   0.29044   0.00000  Uiso   1.00
H127   H     0.23182   0.14848   0.47459   0.00000  Uiso   1.00
H128   H     0.69293   0.13041   0.23046   0.00000  Uiso   1.00
H129   H     0.00616   0.59884   0.21733   0.00000  Uiso   1.00
O130   O     0.36310   0.07069   0.41591   0.00000  Uiso   1.00
O131   O     0.65610   0.04699   0.09562   0.00000  Uiso   1.00
O132   O     0.06706   0.66156   0.07839   0.00000  Uiso   1.00
N133   N     0.29491   0.10739   0.29326   0.00000  Uiso   1.00
N134   N     0.79109   0.09048   0.06503   0.00000  Uiso   1.00
N135   N     0.08392   0.52842   0.05274   0.00000  Uiso   1.00
N136   N     0.23917   0.14271   0.41252   0.00000  Uiso   1.00
N137   N     0.73535   0.12581   0.18429   0.00000  Uiso   1.00
N138   N     0.02817   0.56375   0.17200   0.00000  Uiso   1.00
C139   C     0.43841   0.26100   0.12653   0.00000  Uiso   1.00
C140   C     0.38772   0.28863   0.20162   0.00000  Uiso   1.00
C141   C     0.31406   0.33154   0.19833   0.00000  Uiso   1.00
C142   C     0.27721   0.35113   0.27401   0.00000  Uiso   1.00
C143   C     0.19312   0.39749   0.37902   0.00000  Uiso   1.00
C144   C     0.52658   0.29330   0.13873   0.00000  Uiso   1.00
C145   C     0.56966   0.34013   0.08254   0.00000  Uiso   1.00
C146   C     0.64971   0.36364   0.10527   0.00000  Uiso   1.00
C147   C     0.78121   0.41721   0.11261   0.00000  Uiso   1.00
C148   C     0.44586   0.17260   0.13535   0.00000  Uiso   1.00
C149   C     0.42110   0.11795   0.07631   0.00000  Uiso   1.00
C150   C     0.43321   0.03984   0.09618   0.00000  Uiso   1.00
C151   C     0.43939   0.90602   0.09827   0.00000  Uiso   1.00
C152   C     0.50397   0.21945   0.26678   0.00000  Uiso   1.00
C153   C     0.42333   0.26606   0.27780   0.00000  Uiso   1.00
C154   C     0.38659   0.28558   0.35350   0.00000  Uiso   1.00
C155   C     0.31288   0.32852   0.35032   0.00000  Uiso   1.00
C156   C     0.56219   0.27074   0.21490   0.00000  Uiso   1.00
C157   C     0.64219   0.29417   0.23771   0.00000  Uiso   1.00
C158   C     0.68539   0.34104   0.18158   0.00000  Uiso   1.00
C159   C     0.48147   0.15004   0.21152   0.00000  Uiso   1.00
C160   C     0.49363   0.07200   0.23149   0.00000  Uiso   1.00
C161   C     0.46889   0.01724   0.17250   0.00000  Uiso   1.00
H162   H     0.41069   0.27856   0.06722   0.00000  Uiso   1.00
H163   H     0.28652   0.34900   0.13937   0.00000  Uiso   1.00
H164   H     0.54209   0.35758   0.02360   0.00000  Uiso   1.00
H165   H     0.39355   0.13544   0.01737   0.00000  Uiso   1.00
H166   H     0.16458   0.41716   0.25295   0.00000  Uiso   1.00
H167   H     0.70347   0.43523   0.00883   0.00000  Uiso   1.00
H168   H     0.39024   0.96680   0.99569   0.00000  Uiso   1.00
H169   H     0.53169   0.20189   0.32609   0.00000  Uiso   1.00
H170   H     0.41416   0.26811   0.41244   0.00000  Uiso   1.00
H171   H     0.66973   0.27670   0.29667   0.00000  Uiso   1.00
H172   H     0.52119   0.05456   0.29044   0.00000  Uiso   1.00
H173   H     0.26818   0.35152   0.47459   0.00000  Uiso   1.00
H174   H     0.80707   0.36959   0.23046   0.00000  Uiso   1.00
H175   H     0.49384   0.90116   0.21733   0.00000  Uiso   1.00
O176   O     0.13690   0.42931   0.41591   0.00000  Uiso   1.00
O177   O     0.84390   0.45301   0.09562   0.00000  Uiso   1.00
O178   O     0.43294   0.83844   0.07839   0.00000  Uiso   1.00
N179   N     0.20509   0.39261   0.29326   0.00000  Uiso   1.00
N180   N     0.70891   0.40952   0.06503   0.00000  Uiso   1.00
N181   N     0.41608   0.97158   0.05274   0.00000  Uiso   1.00
N182   N     0.26083   0.35729   0.41252   0.00000  Uiso   1.00
N183   N     0.76465   0.37419   0.18429   0.00000  Uiso   1.00
N184   N     0.47183   0.93625   0.17200   0.00000  Uiso   1.00
C185   C     0.06159   0.26100   0.62653   0.00000  Uiso   1.00
C186   C     0.11228   0.28863   0.70162   0.00000  Uiso   1.00
C187   C     0.18594   0.33154   0.69833   0.00000  Uiso   1.00
C188   C     0.22279   0.35113   0.77401   0.00000  Uiso   1.00
C189   C     0.30688   0.39749   0.87902   0.00000  Uiso   1.00
C190   C     0.97342   0.29330   0.63873   0.00000  Uiso   1.00
C191   C     0.93034   0.34013   0.58254   0.00000  Uiso   1.00
C192   C     0.85029   0.36364   0.60527   0.00000  Uiso   1.00
C193   C     0.71879   0.41721   0.61261   0.00000  Uiso   1.00
C194   C     0.05414   0.17260   0.63535   0.00000  Uiso   1.00
C195   C     0.07890   0.11795   0.57631   0.00000  Uiso   1.00
C196   C     0.06679   0.03984   0.59618   0.00000  Uiso   1.00
C197   C     0.06061   0.90602   0.59827   0.00000  Uiso   1.00
C198   C     0.99603   0.21945   0.76678   0.00000  Uiso   1.00
C199   C     0.07667   0.26606   0.77780   0.00000  Uiso   1.00
C200   C     0.11341   0.28558   0.85350   0.00000  Uiso   1.00
C201   C     0.18712   0.32852   0.85032   0.00000  Uiso   1.00
C202   C     0.93781   0.27074   0.71490   0.00000  Uiso   1.00
C203   C     0.85781   0.29417   0.73771   0.00000  Uiso   1.00
C204   C     0.81461   0.34104   0.68158   0.00000  Uiso   1.00
C205   C     0.01853   0.15004   0.71152   0.00000  Uiso   1.00
C206   C     0.00637   0.07200   0.73149   0.00000  Uiso   1.00
C207   C     0.03111   0.01724   0.67250   0.00000  Uiso   1.00
H208   H     0.08931   0.27856   0.56722   0.00000  Uiso   1.00
H209   H     0.21348   0.34900   0.63937   0.00000  Uiso   1.00
H210   H     0.95791   0.35758   0.52360   0.00000  Uiso   1.00
H211   H     0.10645   0.13544   0.51737   0.00000  Uiso   1.00
H212   H     0.33542   0.41716   0.75295   0.00000  Uiso   1.00
H213   H     0.79653   0.43523   0.50883   0.00000  Uiso   1.00
H214   H     0.10976   0.96680   0.49569   0.00000  Uiso   1.00
H215   H     0.96831   0.20189   0.82609   0.00000  Uiso   1.00
H216   H     0.08584   0.26811   0.91244   0.00000  Uiso   1.00
H217   H     0.83027   0.27670   0.79667   0.00000  Uiso   1.00
H218   H     0.97881   0.05456   0.79044   0.00000  Uiso   1.00
H219   H     0.23182   0.35152   0.97459   0.00000  Uiso   1.00
H220   H     0.69293   0.36959   0.73046   0.00000  Uiso   1.00
H221   H     0.00616   0.90116   0.71733   0.00000  Uiso   1.00
O222   O     0.36310   0.42931   0.91591   0.00000  Uiso   1.00
O223   O     0.65610   0.45301   0.59562   0.00000  Uiso   1.00
O224   O     0.06706   0.83844   0.57839   0.00000  Uiso   1.00
N225   N     0.29491   0.39261   0.79326   0.00000  Uiso   1.00
N226   N     0.79109   0.40952   0.56503   0.00000  Uiso   1.00
N227   N     0.08392   0.97158   0.55274   0.00000  Uiso   1.00
N228   N     0.23917   0.35729   0.91252   0.00000  Uiso   1.00
N229   N     0.73535   0.37419   0.68429   0.00000  Uiso   1.00
N230   N     0.02817   0.93625   0.67200   0.00000  Uiso   1.00
C231   C     0.43841   0.23900   0.62653   0.00000  Uiso   1.00
C232   C     0.38772   0.21137   0.70162   0.00000  Uiso   1.00
C233   C     0.31406   0.16846   0.69833   0.00000  Uiso   1.00
C234   C     0.27721   0.14887   0.77401   0.00000  Uiso   1.00
C235   C     0.19312   0.10251   0.87902   0.00000  Uiso   1.00
C236   C     0.52658   0.20670   0.63873   0.00000  Uiso   1.00
C237   C     0.56966   0.15987   0.58254   0.00000  Uiso   1.00
C238   C     0.64971   0.13636   0.60527   0.00000  Uiso   1.00
C239   C     0.78121   0.08279   0.61261   0.00000  Uiso   1.00
C240   C     0.44586   0.32740   0.63535   0.00000  Uiso   1.00
C241   C     0.42110   0.38205   0.57631   0.00000  Uiso   1.00
C242   C     0.43321   0.46016   0.59618   0.00000  Uiso   1.00
C243   C     0.43939   0.59398   0.59827   0.00000  Uiso   1.00
C244   C     0.50397   0.28055   0.76678   0.00000  Uiso   1.00
C245   C     0.42333   0.23394   0.77780   0.00000  Uiso   1.00
C246   C     0.38659   0.21442   0.85350   0.00000  Uiso   1.00
C247   C     0.31288   0.17148   0.85032   0.00000  Uiso   1.00
C248   C     0.56219   0.22926   0.71490   0.00000  Uiso   1.00
C249   C     0.64219   0.20583   0.73771   0.00000  Uiso   1.00
C250   C     0.68539   0.15896   0.68158   0.00000  Uiso   1.00
C251   C     0.48147   0.34996   0.71152   0.00000  Uiso   1.00
C252   C     0.49363   0.42800   0.73149   0.00000  Uiso   1.00
C253   C     0.46889   0.48276   0.67250   0.00000  Uiso   1.00
H254   H     0.41069   0.22144   0.56722   0.00000  Uiso   1.00
H255   H     0.28652   0.15100   0.63937   0.00000  Uiso   1.00
H256   H     0.54209   0.14242   0.52360   0.00000  Uiso   1.00
H257   H     0.39355   0.36456   0.51737   0.00000  Uiso   1.00
H258   H     0.16458   0.08284   0.75295   0.00000  Uiso   1.00
H259   H     0.70347   0.06477   0.50883   0.00000  Uiso   1.00
H260   H     0.39024   0.53320   0.49569   0.00000  Uiso   1.00
H261   H     0.53169   0.29811   0.82609   0.00000  Uiso   1.00
H262   H     0.41416   0.23189   0.91244   0.00000  Uiso   1.00
H263   H     0.66973   0.22330   0.79667   0.00000  Uiso   1.00
H264   H     0.52119   0.44544   0.79044   0.00000  Uiso   1.00
H265   H     0.26818   0.14848   0.97459   0.00000  Uiso   1.00
H266   H     0.80707   0.13041   0.73046   0.00000  Uiso   1.00
H267   H     0.49384   0.59884   0.71733   0.00000  Uiso   1.00
O268   O     0.13690   0.07069   0.91591   0.00000  Uiso   1.00
O269   O     0.84390   0.04699   0.59562   0.00000  Uiso   1.00
O270   O     0.43294   0.66156   0.57839   0.00000  Uiso   1.00
N271   N     0.20509   0.10739   0.79326   0.00000  Uiso   1.00
N272   N     0.70891   0.09048   0.56503   0.00000  Uiso   1.00
N273   N     0.41608   0.52842   0.55274   0.00000  Uiso   1.00
N274   N     0.26083   0.14271   0.91252   0.00000  Uiso   1.00
N275   N     0.76465   0.12581   0.68429   0.00000  Uiso   1.00
N276   N     0.47183   0.56375   0.67200   0.00000  Uiso   1.00
C277   C     0.93841   0.76100   0.87347   0.00000  Uiso   1.00
C278   C     0.88772   0.78863   0.79838   0.00000  Uiso   1.00
C279   C     0.81406   0.83154   0.80167   0.00000  Uiso   1.00
C280   C     0.77721   0.85113   0.72599   0.00000  Uiso   1.00
C281   C     0.69312   0.89749   0.62098   0.00000  Uiso   1.00
C282   C     0.02658   0.79330   0.86127   0.00000  Uiso   1.00
C283   C     0.06966   0.84013   0.91746   0.00000  Uiso   1.00
C284   C     0.14971   0.86364   0.89473   0.00000  Uiso   1.00
C285   C     0.28121   0.91721   0.88739   0.00000  Uiso   1.00
C286   C     0.94586   0.67260   0.86465   0.00000  Uiso   1.00
C287   C     0.92110   0.61795   0.92369   0.00000  Uiso   1.00
C288   C     0.93321   0.53984   0.90382   0.00000  Uiso   1.00
C289   C     0.93939   0.40602   0.90173   0.00000  Uiso   1.00
C290   C     0.00397   0.71945   0.73322   0.00000  Uiso   1.00
C291   C     0.92333   0.76606   0.72220   0.00000  Uiso   1.00
C292   C     0.88659   0.78558   0.64650   0.00000  Uiso   1.00
C293   C     0.81288   0.82852   0.64968   0.00000  Uiso   1.00
C294   C     0.06219   0.77074   0.78510   0.00000  Uiso   1.00
C295   C     0.14219   0.79417   0.76229   0.00000  Uiso   1.00
C296   C     0.18539   0.84104   0.81842   0.00000  Uiso   1.00
C297   C     0.98147   0.65004   0.78848   0.00000  Uiso   1.00
C298   C     0.99363   0.57200   0.76851   0.00000  Uiso   1.00
C299   C     0.96889   0.51724   0.82750   0.00000  Uiso   1.00
H300   H     0.91069   0.77856   0.93278   0.00000  Uiso   1.00
H301   H     0.78652   0.84900   0.86063   0.00000  Uiso   1.00
H302   H     0.04209   0.85758   0.97640   0.00000  Uiso   1.00
H303   H     0.89355   0.63544   0.98263   0.00000  Uiso   1.00
H304   H     0.66458   0.91716   0.74705   0.00000  Uiso   1.00
H305   H     0.20347   0.93523   0.99117   0.00000  Uiso   1.00
H306   H     0.89024   0.46680   0.00431   0.00000  Uiso   1.00
H307   H     0.03169   0.70189   0.67391   0.00000  Uiso   1.00
H308   H     0.91416   0.76811   0.58756   0.00000  Uiso   1.00
H309   H     0.16973   0.77670   0.70333   0.00000  Uiso   1.00
H310   H     0.02119   0.55456   0.70956   0.00000  Uiso   1.00
H311   H     0.76818   0.85152   0.52541   0.00000  Uiso   1.00
H312   H     0.30707   0.86959   0.76954   0.00000  Uiso   1.00
H313   H     0.99384   0.40116   0.78267   0.00000  Uiso   1.00
O314   O     0.63690   0.92931   0.58409   0.00000  Uiso   1.00
O315   O     0.34390   0.95301   0.90438   0.00000  Uiso   1.00
O316   O     0.93294   0.33844   0.92161   0.00000  Uiso   1.00
N317   N     0.70509   0.89261   0.70674   0.00000  Uiso   1.00
N318   N     0.20891   0.90952   0.93497   0.00000  Uiso   1.00
N319   N     0.91608   0.47158   0.94726   0.00000  Uiso   1.00
N320   N     0.76083   0.85729   0.58748   0.00000  Uiso   1.00
N321   N     0.26465   0.87419   0.81571   0.00000  Uiso   1.00
N322   N     0.97183   0.43625   0.82800   0.00000  Uiso   1.00
C323   C     0.56159   0.73900   0.87347   0.00000  Uiso   1.00
C324   C     0.61228   0.71137   0.79838   0.00000  Uiso   1.00
C325   C     0.68594   0.66846   0.80167   0.00000  Uiso   1.00
C326   C     0.72279   0.64887   0.72599   0.00000  Uiso   1.00
C327   C     0.80688   0.60251   0.62098   0.00000  Uiso   1.00
C328   C     0.47342   0.70670   0.86127   0.00000  Uiso   1.00
C329   C     0.43034   0.65987   0.91746   0.00000  Uiso   1.00
C330   C     0.35029   0.63636   0.89473   0.00000  Uiso   1.00
C331   C     0.21879   0.58279   0.88739   0.00000  Uiso   1.00
C332   C     0.55414   0.82740   0.86465   0.00000  Uiso   1.00
C333   C     0.57890   0.88205   0.92369   0.00000  Uiso   1.00
C334   C     0.56679   0.96016   0.90382   0.00000  Uiso   1.00
C335   C     0.56061   0.09398   0.90173   0.00000  Uiso   1.00
C336   C     0.49603   0.78055   0.73322   0.00000  Uiso   1.00
C337   C     0.57667   0.73394   0.72220   0.00000  Uiso   1.00
C338   C     0.61341   0.71442   0.64650   0.00000  Uiso   1.00
C339   C     0.68712   0.67148   0.64968   0.00000  Uiso   1.00
C340   C     0.43781   0.72926   0.78510   0.00000  Uiso   1.00
C341   C     0.35781   0.70583   0.76229   0.00000  Uiso   1.00
C342   C     0.31461   0.65896   0.81842   0.00000  Uiso   1.00
C343   C     0.51853   0.84996   0.78848   0.00000  Uiso   1.00
C344   C     0.50637   0.92800   0.76851   0.00000  Uiso   1.00
C345   C     0.53111   0.98276   0.82750   0.00000  Uiso   1.00
H346   H     0.58931   0.72144   0.93278   0.00000  Uiso   1.00
H347   H     0.71348   0.65100   0.86063   0.00000  Uiso   1.00
H348   H     0.45791   0.64242   0.97640   0.00000  Uiso   1.00
H349   H     0.60645   0.86456   0.98263   0.00000  Uiso   1.00
H350   H     0.83542   0.58284   0.74705   0.00000  Uiso   1.00
H351   H     0.29653   0.56477   0.99117   0.00000  Uiso   1.00
H352   H     0.60976   0.03320   0.00431   0.00000  Uiso   1.00
H353   H     0.46831   0.79811   0.67391   0.00000  Uiso   1.00
H354   H     0.58584   0.73189   0.58756   0.00000  Uiso   1.00
H355   H     0.33027   0.72330   0.70333   0.00000  Uiso   1.00
H356   H     0.47881   0.94544   0.70956   0.00000  Uiso   1.00
H357   H     0.73182   0.64848   0.52541   0.00000  Uiso   1.00
H358   H     0.19293   0.63041   0.76954   0.00000  Uiso   1.00
H359   H     0.50616   0.09884   0.78267   0.00000  Uiso   1.00
O360   O     0.86310   0.57069   0.58409   0.00000  Uiso   1.00
O361   O     0.15610   0.54699   0.90438   0.00000  Uiso   1.00
O362   O     0.56706   0.16156   0.92161   0.00000  Uiso   1.00
N363   N     0.79491   0.60739   0.70674   0.00000  Uiso   1.00
N364   N     0.29109   0.59048   0.93497   0.00000  Uiso   1.00
N365   N     0.58392   0.02842   0.94726   0.00000  Uiso   1.00
N366   N     0.73917   0.64271   0.58748   0.00000  Uiso   1.00
N367   N     0.23535   0.62581   0.81571   0.00000  Uiso   1.00
N368   N     0.52817   0.06375   0.82800   0.00000  Uiso   1.00
