data_job_05359
_audit_creation_date              2018-12-19
_audit_creation_method            'Materials Studio'
_symmetry_space_group_name_H-M    'P1'
_symmetry_Int_Tables_number       1
_symmetry_cell_setting            triclinic
loop_
_symmetry_equiv_pos_as_xyz
  x,y,z
_cell_length_a                    23.7889
_cell_length_b                    23.7889
_cell_length_c                    8.0176
_cell_angle_alpha                 90.0000
_cell_angle_beta                  90.0000
_cell_angle_gamma                 120.0000
loop_
_atom_site_label
_atom_site_type_symbol
_atom_site_fract_x
_atom_site_fract_y
_atom_site_fract_z
_atom_site_U_iso_or_equiv
_atom_site_adp_type
_atom_site_occupancy
C1     C     0.95091   0.28436   0.63327   0.00000  Uiso   1.00
C2     C     0.99466   0.35674   0.60036   0.00000  Uiso   1.00
C3     C     0.99894   0.40665   0.69910   0.00000  Uiso   1.00
C4     C     0.04186   0.46964   0.64769   0.00000  Uiso   1.00
C5     C     0.10410   0.58011   0.61860   0.00000  Uiso   1.00
C6     C     0.90949   0.25653   0.47706   0.00000  Uiso   1.00
C7     C     0.84215   0.22218   0.47214   0.00000  Uiso   1.00
C8     C     0.81337   0.20080   0.31693   0.00000  Uiso   1.00
C9     C     0.74338   0.15566   0.09643   0.00000  Uiso   1.00
C10    C     0.99559   0.25565   0.63947   0.00000  Uiso   1.00
C11    C     0.00065   0.22053   0.77108   0.00000  Uiso   1.00
C12    C     0.04436   0.19840   0.75259   0.00000  Uiso   1.00
C13    C     0.10806   0.15188   0.78426   0.00000  Uiso   1.00
C14    C     0.01952   0.30747   0.36638   0.00000  Uiso   1.00
C15    C     0.03193   0.36929   0.45540   0.00000  Uiso   1.00
C16    C     0.07485   0.43222   0.40383   0.00000  Uiso   1.00
C17    C     0.07920   0.48221   0.50247   0.00000  Uiso   1.00
C18    C     0.94675   0.26908   0.33210   0.00000  Uiso   1.00
C19    C     0.91806   0.24774   0.17686   0.00000  Uiso   1.00
C20    C     0.85071   0.21338   0.17170   0.00000  Uiso   1.00
C21    C     0.03286   0.26820   0.49451   0.00000  Uiso   1.00
C22    C     0.07656   0.24610   0.47581   0.00000  Uiso   1.00
C23    C     0.08169   0.21097   0.60737   0.00000  Uiso   1.00
H24    H     0.92189   0.27459   0.74612   0.00000  Uiso   1.00
H25    H     0.97009   0.39692   0.81127   0.00000  Uiso   1.00
H26    H     0.81333   0.21247   0.58434   0.00000  Uiso   1.00
H27    H     0.97180   0.21083   0.88324   0.00000  Uiso   1.00
H28    H     0.03994   0.53808   0.81954   0.00000  Uiso   1.00
H29    H     0.70940   0.14915   0.34106   0.00000  Uiso   1.00
H30    H     0.04357   0.14568   0.97135   0.00000  Uiso   1.00
H31    H     0.04854   0.31724   0.25352   0.00000  Uiso   1.00
H32    H     0.10369   0.44191   0.29164   0.00000  Uiso   1.00
H33    H     0.94692   0.25746   0.06471   0.00000  Uiso   1.00
H34    H     0.10540   0.25582   0.36361   0.00000  Uiso   1.00
H35    H     0.14837   0.57460   0.39778   0.00000  Uiso   1.00
H36    H     0.81783   0.18566   0.91931   0.00000  Uiso   1.00
H37    H     0.15200   0.18220   0.54959   0.00000  Uiso   1.00
O38    O     0.12813   0.63758   0.64259   0.00000  Uiso   1.00
O39    O     0.69447   0.12730   0.01486   0.00000  Uiso   1.00
O40    O     0.13291   0.12277   0.84178   0.00000  Uiso   1.00
N41    N     0.05790   0.52957   0.71506   0.00000  Uiso   1.00
N42    N     0.74886   0.16594   0.26771   0.00000  Uiso   1.00
N43    N     0.06128   0.16269   0.85696   0.00000  Uiso   1.00
N44    N     0.11625   0.54922   0.48812   0.00000  Uiso   1.00
N45    N     0.80721   0.18559   0.04077   0.00000  Uiso   1.00
N46    N     0.11962   0.18234   0.63002   0.00000  Uiso   1.00
C47    C     0.71564   0.66655   0.63327   0.00000  Uiso   1.00
C48    C     0.64326   0.63792   0.60036   0.00000  Uiso   1.00
C49    C     0.59335   0.59229   0.69910   0.00000  Uiso   1.00
C50    C     0.53036   0.57222   0.64769   0.00000  Uiso   1.00
C51    C     0.41989   0.52399   0.61860   0.00000  Uiso   1.00
C52    C     0.74347   0.65295   0.47706   0.00000  Uiso   1.00
C53    C     0.77782   0.61997   0.47214   0.00000  Uiso   1.00
C54    C     0.79920   0.61257   0.31693   0.00000  Uiso   1.00
C55    C     0.84434   0.58771   0.09643   0.00000  Uiso   1.00
C56    C     0.74435   0.73995   0.63947   0.00000  Uiso   1.00
C57    C     0.77947   0.78012   0.77108   0.00000  Uiso   1.00
C58    C     0.80160   0.84596   0.75259   0.00000  Uiso   1.00
C59    C     0.84812   0.95618   0.78426   0.00000  Uiso   1.00
C60    C     0.69253   0.71206   0.36638   0.00000  Uiso   1.00
C61    C     0.63071   0.66264   0.45540   0.00000  Uiso   1.00
C62    C     0.56778   0.64264   0.40383   0.00000  Uiso   1.00
C63    C     0.51779   0.59699   0.50247   0.00000  Uiso   1.00
C64    C     0.73092   0.67767   0.33210   0.00000  Uiso   1.00
C65    C     0.75226   0.67032   0.17686   0.00000  Uiso   1.00
C66    C     0.78662   0.63733   0.17170   0.00000  Uiso   1.00
C67    C     0.73180   0.76467   0.49451   0.00000  Uiso   1.00
C68    C     0.75390   0.83046   0.47581   0.00000  Uiso   1.00
C69    C     0.78903   0.87072   0.60737   0.00000  Uiso   1.00
H70    H     0.72541   0.64730   0.74612   0.00000  Uiso   1.00
H71    H     0.60308   0.57317   0.81127   0.00000  Uiso   1.00
H72    H     0.78753   0.60085   0.58434   0.00000  Uiso   1.00
H73    H     0.78917   0.76097   0.88324   0.00000  Uiso   1.00
H74    H     0.46192   0.50186   0.81954   0.00000  Uiso   1.00
H75    H     0.85085   0.56025   0.34106   0.00000  Uiso   1.00
H76    H     0.85432   0.89789   0.97135   0.00000  Uiso   1.00
H77    H     0.68276   0.73130   0.25352   0.00000  Uiso   1.00
H78    H     0.55809   0.66177   0.29164   0.00000  Uiso   1.00
H79    H     0.74254   0.68946   0.06471   0.00000  Uiso   1.00
H80    H     0.74418   0.84957   0.36361   0.00000  Uiso   1.00
H81    H     0.42540   0.57377   0.39778   0.00000  Uiso   1.00
H82    H     0.81434   0.63217   0.91931   0.00000  Uiso   1.00
H83    H     0.81780   0.96981   0.54959   0.00000  Uiso   1.00
O84    O     0.36242   0.49055   0.64259   0.00000  Uiso   1.00
O85    O     0.87270   0.56717   0.01486   0.00000  Uiso   1.00
O86    O     0.87723   0.01014   0.84178   0.00000  Uiso   1.00
N87    N     0.47043   0.52834   0.71506   0.00000  Uiso   1.00
N88    N     0.83406   0.58292   0.26771   0.00000  Uiso   1.00
N89    N     0.83731   0.89859   0.85696   0.00000  Uiso   1.00
N90    N     0.45078   0.56703   0.48812   0.00000  Uiso   1.00
N91    N     0.81441   0.62162   0.04077   0.00000  Uiso   1.00
N92    N     0.81766   0.93728   0.63002   0.00000  Uiso   1.00
C93    C     0.33345   0.04909   0.63327   0.00000  Uiso   1.00
C94    C     0.36208   0.00534   0.60036   0.00000  Uiso   1.00
C95    C     0.40771   0.00106   0.69910   0.00000  Uiso   1.00
C96    C     0.42778   0.95814   0.64769   0.00000  Uiso   1.00
C97    C     0.47601   0.89590   0.61860   0.00000  Uiso   1.00
C98    C     0.34705   0.09051   0.47706   0.00000  Uiso   1.00
C99    C     0.38003   0.15785   0.47214   0.00000  Uiso   1.00
C100   C     0.38743   0.18663   0.31693   0.00000  Uiso   1.00
C101   C     0.41229   0.25662   0.09643   0.00000  Uiso   1.00
C102   C     0.26005   0.00441   0.63947   0.00000  Uiso   1.00
C103   C     0.21988   0.99935   0.77108   0.00000  Uiso   1.00
C104   C     0.15404   0.95564   0.75259   0.00000  Uiso   1.00
C105   C     0.04382   0.89194   0.78426   0.00000  Uiso   1.00
C106   C     0.28794   0.98048   0.36638   0.00000  Uiso   1.00
C107   C     0.33736   0.96807   0.45540   0.00000  Uiso   1.00
C108   C     0.35736   0.92515   0.40383   0.00000  Uiso   1.00
C109   C     0.40301   0.92080   0.50247   0.00000  Uiso   1.00
C110   C     0.32233   0.05325   0.33210   0.00000  Uiso   1.00
C111   C     0.32968   0.08194   0.17686   0.00000  Uiso   1.00
C112   C     0.36267   0.14929   0.17170   0.00000  Uiso   1.00
C113   C     0.23533   0.96714   0.49451   0.00000  Uiso   1.00
C114   C     0.16954   0.92344   0.47581   0.00000  Uiso   1.00
C115   C     0.12928   0.91831   0.60737   0.00000  Uiso   1.00
H116   H     0.35270   0.07811   0.74612   0.00000  Uiso   1.00
H117   H     0.42683   0.02991   0.81127   0.00000  Uiso   1.00
H118   H     0.39915   0.18667   0.58434   0.00000  Uiso   1.00
H119   H     0.23903   0.02820   0.88324   0.00000  Uiso   1.00
H120   H     0.49814   0.96006   0.81954   0.00000  Uiso   1.00
H121   H     0.43975   0.29060   0.34106   0.00000  Uiso   1.00
H122   H     0.10211   0.95643   0.97135   0.00000  Uiso   1.00
H123   H     0.26870   0.95146   0.25352   0.00000  Uiso   1.00
H124   H     0.33823   0.89631   0.29164   0.00000  Uiso   1.00
H125   H     0.31054   0.05308   0.06471   0.00000  Uiso   1.00
H126   H     0.15043   0.89460   0.36361   0.00000  Uiso   1.00
H127   H     0.42623   0.85163   0.39778   0.00000  Uiso   1.00
H128   H     0.36783   0.18217   0.91931   0.00000  Uiso   1.00
H129   H     0.03019   0.84800   0.54959   0.00000  Uiso   1.00
O130   O     0.50945   0.87187   0.64259   0.00000  Uiso   1.00
O131   O     0.43283   0.30553   0.01486   0.00000  Uiso   1.00
O132   O     0.98986   0.86709   0.84178   0.00000  Uiso   1.00
N133   N     0.47166   0.94210   0.71506   0.00000  Uiso   1.00
N134   N     0.41708   0.25114   0.26771   0.00000  Uiso   1.00
N135   N     0.10141   0.93872   0.85696   0.00000  Uiso   1.00
N136   N     0.43297   0.88375   0.48812   0.00000  Uiso   1.00
N137   N     0.37838   0.19279   0.04077   0.00000  Uiso   1.00
N138   N     0.06272   0.88038   0.63002   0.00000  Uiso   1.00
C139   C     0.04909   0.71564   0.36673   0.00000  Uiso   1.00
C140   C     0.00534   0.64326   0.39964   0.00000  Uiso   1.00
C141   C     0.00106   0.59335   0.30090   0.00000  Uiso   1.00
C142   C     0.95814   0.53036   0.35231   0.00000  Uiso   1.00
C143   C     0.89590   0.41989   0.38140   0.00000  Uiso   1.00
C144   C     0.09051   0.74347   0.52294   0.00000  Uiso   1.00
C145   C     0.15785   0.77782   0.52786   0.00000  Uiso   1.00
C146   C     0.18663   0.79920   0.68307   0.00000  Uiso   1.00
C147   C     0.25662   0.84434   0.90357   0.00000  Uiso   1.00
C148   C     0.00441   0.74435   0.36053   0.00000  Uiso   1.00
C149   C     0.99935   0.77947   0.22892   0.00000  Uiso   1.00
C150   C     0.95564   0.80160   0.24741   0.00000  Uiso   1.00
C151   C     0.89194   0.84812   0.21574   0.00000  Uiso   1.00
C152   C     0.98048   0.69253   0.63362   0.00000  Uiso   1.00
C153   C     0.96807   0.63071   0.54460   0.00000  Uiso   1.00
C154   C     0.92515   0.56778   0.59617   0.00000  Uiso   1.00
C155   C     0.92080   0.51779   0.49753   0.00000  Uiso   1.00
C156   C     0.05325   0.73092   0.66790   0.00000  Uiso   1.00
C157   C     0.08194   0.75226   0.82314   0.00000  Uiso   1.00
C158   C     0.14929   0.78662   0.82830   0.00000  Uiso   1.00
C159   C     0.96714   0.73180   0.50549   0.00000  Uiso   1.00
C160   C     0.92344   0.75390   0.52419   0.00000  Uiso   1.00
C161   C     0.91831   0.78903   0.39263   0.00000  Uiso   1.00
H162   H     0.07811   0.72541   0.25388   0.00000  Uiso   1.00
H163   H     0.02991   0.60308   0.18873   0.00000  Uiso   1.00
H164   H     0.18667   0.78753   0.41566   0.00000  Uiso   1.00
H165   H     0.02820   0.78917   0.11676   0.00000  Uiso   1.00
H166   H     0.96006   0.46192   0.18046   0.00000  Uiso   1.00
H167   H     0.29060   0.85085   0.65894   0.00000  Uiso   1.00
H168   H     0.95643   0.85432   0.02865   0.00000  Uiso   1.00
H169   H     0.95146   0.68276   0.74648   0.00000  Uiso   1.00
H170   H     0.89631   0.55809   0.70836   0.00000  Uiso   1.00
H171   H     0.05308   0.74254   0.93529   0.00000  Uiso   1.00
H172   H     0.89460   0.74418   0.63639   0.00000  Uiso   1.00
H173   H     0.85163   0.42540   0.60222   0.00000  Uiso   1.00
H174   H     0.18217   0.81434   0.08069   0.00000  Uiso   1.00
H175   H     0.84800   0.81780   0.45041   0.00000  Uiso   1.00
O176   O     0.87187   0.36242   0.35741   0.00000  Uiso   1.00
O177   O     0.30553   0.87270   0.98514   0.00000  Uiso   1.00
O178   O     0.86709   0.87723   0.15822   0.00000  Uiso   1.00
N179   N     0.94210   0.47043   0.28494   0.00000  Uiso   1.00
N180   N     0.25114   0.83406   0.73229   0.00000  Uiso   1.00
N181   N     0.93872   0.83731   0.14304   0.00000  Uiso   1.00
N182   N     0.88375   0.45078   0.51188   0.00000  Uiso   1.00
N183   N     0.19279   0.81441   0.95923   0.00000  Uiso   1.00
N184   N     0.88038   0.81766   0.36998   0.00000  Uiso   1.00
C185   C     0.28436   0.33345   0.36673   0.00000  Uiso   1.00
C186   C     0.35674   0.36208   0.39964   0.00000  Uiso   1.00
C187   C     0.40665   0.40771   0.30090   0.00000  Uiso   1.00
C188   C     0.46964   0.42778   0.35231   0.00000  Uiso   1.00
C189   C     0.58011   0.47601   0.38140   0.00000  Uiso   1.00
C190   C     0.25653   0.34705   0.52294   0.00000  Uiso   1.00
C191   C     0.22218   0.38003   0.52786   0.00000  Uiso   1.00
C192   C     0.20080   0.38743   0.68307   0.00000  Uiso   1.00
C193   C     0.15566   0.41229   0.90357   0.00000  Uiso   1.00
C194   C     0.25565   0.26005   0.36053   0.00000  Uiso   1.00
C195   C     0.22053   0.21988   0.22892   0.00000  Uiso   1.00
C196   C     0.19840   0.15404   0.24741   0.00000  Uiso   1.00
C197   C     0.15188   0.04382   0.21574   0.00000  Uiso   1.00
C198   C     0.30747   0.28794   0.63362   0.00000  Uiso   1.00
C199   C     0.36929   0.33736   0.54460   0.00000  Uiso   1.00
C200   C     0.43222   0.35736   0.59617   0.00000  Uiso   1.00
C201   C     0.48221   0.40301   0.49753   0.00000  Uiso   1.00
C202   C     0.26908   0.32233   0.66790   0.00000  Uiso   1.00
C203   C     0.24774   0.32968   0.82314   0.00000  Uiso   1.00
C204   C     0.21338   0.36267   0.82830   0.00000  Uiso   1.00
C205   C     0.26820   0.23533   0.50549   0.00000  Uiso   1.00
C206   C     0.24610   0.16954   0.52419   0.00000  Uiso   1.00
C207   C     0.21097   0.12928   0.39263   0.00000  Uiso   1.00
H208   H     0.27459   0.35270   0.25388   0.00000  Uiso   1.00
H209   H     0.39692   0.42683   0.18873   0.00000  Uiso   1.00
H210   H     0.21247   0.39915   0.41566   0.00000  Uiso   1.00
H211   H     0.21083   0.23903   0.11676   0.00000  Uiso   1.00
H212   H     0.53808   0.49814   0.18046   0.00000  Uiso   1.00
H213   H     0.14915   0.43975   0.65894   0.00000  Uiso   1.00
H214   H     0.14568   0.10211   0.02865   0.00000  Uiso   1.00
H215   H     0.31724   0.26870   0.74648   0.00000  Uiso   1.00
H216   H     0.44191   0.33823   0.70836   0.00000  Uiso   1.00
H217   H     0.25746   0.31054   0.93529   0.00000  Uiso   1.00
H218   H     0.25582   0.15043   0.63639   0.00000  Uiso   1.00
H219   H     0.57460   0.42623   0.60222   0.00000  Uiso   1.00
H220   H     0.18566   0.36783   0.08069   0.00000  Uiso   1.00
H221   H     0.18220   0.03019   0.45041   0.00000  Uiso   1.00
O222   O     0.63758   0.50945   0.35741   0.00000  Uiso   1.00
O223   O     0.12730   0.43283   0.98514   0.00000  Uiso   1.00
O224   O     0.12277   0.98986   0.15822   0.00000  Uiso   1.00
N225   N     0.52957   0.47166   0.28494   0.00000  Uiso   1.00
N226   N     0.16594   0.41708   0.73229   0.00000  Uiso   1.00
N227   N     0.16269   0.10141   0.14304   0.00000  Uiso   1.00
N228   N     0.54922   0.43297   0.51188   0.00000  Uiso   1.00
N229   N     0.18559   0.37838   0.95923   0.00000  Uiso   1.00
N230   N     0.18234   0.06272   0.36998   0.00000  Uiso   1.00
C231   C     0.66655   0.95091   0.36673   0.00000  Uiso   1.00
C232   C     0.63792   0.99466   0.39964   0.00000  Uiso   1.00
C233   C     0.59229   0.99894   0.30090   0.00000  Uiso   1.00
C234   C     0.57222   0.04186   0.35231   0.00000  Uiso   1.00
C235   C     0.52399   0.10410   0.38140   0.00000  Uiso   1.00
C236   C     0.65295   0.90949   0.52294   0.00000  Uiso   1.00
C237   C     0.61997   0.84215   0.52786   0.00000  Uiso   1.00
C238   C     0.61257   0.81337   0.68307   0.00000  Uiso   1.00
C239   C     0.58771   0.74338   0.90357   0.00000  Uiso   1.00
C240   C     0.73995   0.99559   0.36053   0.00000  Uiso   1.00
C241   C     0.78012   0.00065   0.22892   0.00000  Uiso   1.00
C242   C     0.84596   0.04436   0.24741   0.00000  Uiso   1.00
C243   C     0.95618   0.10806   0.21574   0.00000  Uiso   1.00
C244   C     0.71206   0.01952   0.63362   0.00000  Uiso   1.00
C245   C     0.66264   0.03193   0.54460   0.00000  Uiso   1.00
C246   C     0.64264   0.07485   0.59617   0.00000  Uiso   1.00
C247   C     0.59699   0.07920   0.49753   0.00000  Uiso   1.00
C248   C     0.67767   0.94675   0.66790   0.00000  Uiso   1.00
C249   C     0.67032   0.91806   0.82314   0.00000  Uiso   1.00
C250   C     0.63733   0.85071   0.82830   0.00000  Uiso   1.00
C251   C     0.76467   0.03286   0.50549   0.00000  Uiso   1.00
C252   C     0.83046   0.07656   0.52419   0.00000  Uiso   1.00
C253   C     0.87072   0.08169   0.39263   0.00000  Uiso   1.00
H254   H     0.64730   0.92189   0.25388   0.00000  Uiso   1.00
H255   H     0.57317   0.97009   0.18873   0.00000  Uiso   1.00
H256   H     0.60085   0.81333   0.41566   0.00000  Uiso   1.00
H257   H     0.76097   0.97180   0.11676   0.00000  Uiso   1.00
H258   H     0.50186   0.03994   0.18046   0.00000  Uiso   1.00
H259   H     0.56025   0.70940   0.65894   0.00000  Uiso   1.00
H260   H     0.89789   0.04357   0.02865   0.00000  Uiso   1.00
H261   H     0.73130   0.04854   0.74648   0.00000  Uiso   1.00
H262   H     0.66177   0.10369   0.70836   0.00000  Uiso   1.00
H263   H     0.68946   0.94692   0.93529   0.00000  Uiso   1.00
H264   H     0.84957   0.10540   0.63639   0.00000  Uiso   1.00
H265   H     0.57377   0.14837   0.60222   0.00000  Uiso   1.00
H266   H     0.63217   0.81783   0.08069   0.00000  Uiso   1.00
H267   H     0.96981   0.15200   0.45041   0.00000  Uiso   1.00
O268   O     0.49055   0.12813   0.35741   0.00000  Uiso   1.00
O269   O     0.56717   0.69447   0.98514   0.00000  Uiso   1.00
O270   O     0.01014   0.13291   0.15822   0.00000  Uiso   1.00
N271   N     0.52834   0.05790   0.28494   0.00000  Uiso   1.00
N272   N     0.58292   0.74886   0.73229   0.00000  Uiso   1.00
N273   N     0.89859   0.06128   0.14304   0.00000  Uiso   1.00
N274   N     0.56703   0.11625   0.51188   0.00000  Uiso   1.00
N275   N     0.62162   0.80721   0.95923   0.00000  Uiso   1.00
N276   N     0.93728   0.11962   0.36998   0.00000  Uiso   1.00
