data_job_00651
_audit_creation_date              2018-12-19
_audit_creation_method            'Materials Studio'
_symmetry_space_group_name_H-M    'P1'
_symmetry_Int_Tables_number       1
_symmetry_cell_setting            triclinic
loop_
_symmetry_equiv_pos_as_xyz
  x,y,z
_cell_length_a                    22.5586
_cell_length_b                    9.1626
_cell_length_c                    23.6891
_cell_angle_alpha                 90.0000
_cell_angle_beta                  90.0000
_cell_angle_gamma                 90.0000
loop_
_atom_site_label
_atom_site_type_symbol
_atom_site_fract_x
_atom_site_fract_y
_atom_site_fract_z
_atom_site_U_iso_or_equiv
_atom_site_adp_type
_atom_site_occupancy
C1     C     0.93209   0.11150   0.63968   0.00000  Uiso   1.00
C2     C     0.94073   0.27643   0.64224   0.00000  Uiso   1.00
C3     C     0.99320   0.34766   0.65551   0.00000  Uiso   1.00
C4     C     0.99200   0.49915   0.65556   0.00000  Uiso   1.00
C5     C     0.01331   0.74349   0.66145   0.00000  Uiso   1.00
C6     C     0.90877   0.07864   0.58061   0.00000  Uiso   1.00
C7     C     0.93437   0.98354   0.54207   0.00000  Uiso   1.00
C8     C     0.90625   0.96853   0.49026   0.00000  Uiso   1.00
C9     C     0.87791   0.90570   0.40048   0.00000  Uiso   1.00
C10    C     0.88137   0.07700   0.68009   0.00000  Uiso   1.00
C11    C     0.88393   0.98051   0.72518   0.00000  Uiso   1.00
C12    C     0.83275   0.96409   0.75711   0.00000  Uiso   1.00
C13    C     0.76187   0.89873   0.82179   0.00000  Uiso   1.00
C14    C     0.83665   0.25389   0.61619   0.00000  Uiso   1.00
C15    C     0.88889   0.35377   0.62948   0.00000  Uiso   1.00
C16    C     0.88761   0.50520   0.62952   0.00000  Uiso   1.00
C17    C     0.94007   0.57664   0.64279   0.00000  Uiso   1.00
C18    C     0.85693   0.15597   0.56785   0.00000  Uiso   1.00
C19    C     0.82877   0.14109   0.51609   0.00000  Uiso   1.00
C20    C     0.85432   0.04601   0.47748   0.00000  Uiso   1.00
C21    C     0.82953   0.15435   0.66733   0.00000  Uiso   1.00
C22    C     0.77833   0.13806   0.69919   0.00000  Uiso   1.00
C23    C     0.78081   0.04157   0.74433   0.00000  Uiso   1.00
H24    H     0.97245   0.05128   0.64961   0.00000  Uiso   1.00
H25    H     0.03332   0.28776   0.66537   0.00000  Uiso   1.00
H26    H     0.97448   0.92370   0.55196   0.00000  Uiso   1.00
H27    H     0.92405   0.92068   0.73504   0.00000  Uiso   1.00
H28    H     0.07794   0.58406   0.67720   0.00000  Uiso   1.00
H29    H     0.95387   0.81637   0.43807   0.00000  Uiso   1.00
H30    H     0.84754   0.80999   0.82413   0.00000  Uiso   1.00
H31    H     0.79629   0.31410   0.60626   0.00000  Uiso   1.00
H32    H     0.84748   0.56502   0.61964   0.00000  Uiso   1.00
H33    H     0.78865   0.20095   0.50623   0.00000  Uiso   1.00
H34    H     0.73822   0.19793   0.68931   0.00000  Uiso   1.00
H35    H     0.92711   0.80909   0.64008   0.00000  Uiso   1.00
H36    H     0.80304   0.04139   0.40095   0.00000  Uiso   1.00
H37    H     0.69671   0.03502   0.78701   0.00000  Uiso   1.00
O38    O     0.03938   0.85689   0.66821   0.00000  Uiso   1.00
O39    O     0.87661   0.84969   0.35449   0.00000  Uiso   1.00
O40    O     0.73710   0.84133   0.86099   0.00000  Uiso   1.00
N41    N     0.03541   0.60258   0.66664   0.00000  Uiso   1.00
N42    N     0.91942   0.88486   0.44306   0.00000  Uiso   1.00
N43    N     0.82000   0.87887   0.80399   0.00000  Uiso   1.00
N44    N     0.95425   0.72367   0.64667   0.00000  Uiso   1.00
N45    N     0.83826   0.00594   0.42309   0.00000  Uiso   1.00
N46    N     0.73884   0.99995   0.78402   0.00000  Uiso   1.00
C47    C     0.56791   0.88850   0.13968   0.00000  Uiso   1.00
C48    C     0.55927   0.72357   0.14224   0.00000  Uiso   1.00
C49    C     0.50680   0.65234   0.15551   0.00000  Uiso   1.00
C50    C     0.50800   0.50085   0.15556   0.00000  Uiso   1.00
C51    C     0.48669   0.25651   0.16145   0.00000  Uiso   1.00
C52    C     0.59123   0.92136   0.08061   0.00000  Uiso   1.00
C53    C     0.56563   0.01646   0.04207   0.00000  Uiso   1.00
C54    C     0.59375   0.03147   0.99026   0.00000  Uiso   1.00
C55    C     0.62209   0.09430   0.90048   0.00000  Uiso   1.00
C56    C     0.61863   0.92300   0.18009   0.00000  Uiso   1.00
C57    C     0.61607   0.01949   0.22518   0.00000  Uiso   1.00
C58    C     0.66725   0.03591   0.25711   0.00000  Uiso   1.00
C59    C     0.73813   0.10127   0.32179   0.00000  Uiso   1.00
C60    C     0.66335   0.74611   0.11619   0.00000  Uiso   1.00
C61    C     0.61111   0.64623   0.12948   0.00000  Uiso   1.00
C62    C     0.61239   0.49480   0.12952   0.00000  Uiso   1.00
C63    C     0.55993   0.42336   0.14279   0.00000  Uiso   1.00
C64    C     0.64307   0.84403   0.06785   0.00000  Uiso   1.00
C65    C     0.67123   0.85891   0.01609   0.00000  Uiso   1.00
C66    C     0.64568   0.95399   0.97748   0.00000  Uiso   1.00
C67    C     0.67047   0.84565   0.16733   0.00000  Uiso   1.00
C68    C     0.72167   0.86194   0.19919   0.00000  Uiso   1.00
C69    C     0.71919   0.95843   0.24433   0.00000  Uiso   1.00
H70    H     0.52755   0.94872   0.14961   0.00000  Uiso   1.00
H71    H     0.46668   0.71224   0.16537   0.00000  Uiso   1.00
H72    H     0.52552   0.07630   0.05196   0.00000  Uiso   1.00
H73    H     0.57595   0.07932   0.23504   0.00000  Uiso   1.00
H74    H     0.42206   0.41594   0.17720   0.00000  Uiso   1.00
H75    H     0.54613   0.18363   0.93807   0.00000  Uiso   1.00
H76    H     0.65246   0.19001   0.32413   0.00000  Uiso   1.00
H77    H     0.70371   0.68590   0.10626   0.00000  Uiso   1.00
H78    H     0.65252   0.43498   0.11964   0.00000  Uiso   1.00
H79    H     0.71135   0.79905   0.00623   0.00000  Uiso   1.00
H80    H     0.76178   0.80207   0.18931   0.00000  Uiso   1.00
H81    H     0.57289   0.19091   0.14008   0.00000  Uiso   1.00
H82    H     0.69696   0.95861   0.90095   0.00000  Uiso   1.00
H83    H     0.80329   0.96498   0.28701   0.00000  Uiso   1.00
O84    O     0.46062   0.14311   0.16821   0.00000  Uiso   1.00
O85    O     0.62339   0.15031   0.85449   0.00000  Uiso   1.00
O86    O     0.76290   0.15867   0.36099   0.00000  Uiso   1.00
N87    N     0.46459   0.39742   0.16664   0.00000  Uiso   1.00
N88    N     0.58058   0.11514   0.94306   0.00000  Uiso   1.00
N89    N     0.68000   0.12113   0.30399   0.00000  Uiso   1.00
N90    N     0.54575   0.27633   0.14667   0.00000  Uiso   1.00
N91    N     0.66174   0.99406   0.92309   0.00000  Uiso   1.00
N92    N     0.76116   0.00005   0.28402   0.00000  Uiso   1.00
C93    C     0.06791   0.61150   0.86032   0.00000  Uiso   1.00
C94    C     0.05927   0.77643   0.85776   0.00000  Uiso   1.00
C95    C     0.00680   0.84766   0.84449   0.00000  Uiso   1.00
C96    C     0.00800   0.99915   0.84444   0.00000  Uiso   1.00
C97    C     0.98669   0.24349   0.83855   0.00000  Uiso   1.00
C98    C     0.09123   0.57864   0.91939   0.00000  Uiso   1.00
C99    C     0.06563   0.48354   0.95793   0.00000  Uiso   1.00
C100   C     0.09375   0.46853   0.00974   0.00000  Uiso   1.00
C101   C     0.12209   0.40570   0.09952   0.00000  Uiso   1.00
C102   C     0.11863   0.57700   0.81991   0.00000  Uiso   1.00
C103   C     0.11607   0.48051   0.77482   0.00000  Uiso   1.00
C104   C     0.16725   0.46409   0.74289   0.00000  Uiso   1.00
C105   C     0.23813   0.39873   0.67821   0.00000  Uiso   1.00
C106   C     0.16335   0.75389   0.88381   0.00000  Uiso   1.00
C107   C     0.11111   0.85377   0.87052   0.00000  Uiso   1.00
C108   C     0.11239   0.00520   0.87048   0.00000  Uiso   1.00
C109   C     0.05993   0.07664   0.85721   0.00000  Uiso   1.00
C110   C     0.14307   0.65597   0.93215   0.00000  Uiso   1.00
C111   C     0.17123   0.64109   0.98391   0.00000  Uiso   1.00
C112   C     0.14568   0.54601   0.02252   0.00000  Uiso   1.00
C113   C     0.17047   0.65435   0.83267   0.00000  Uiso   1.00
C114   C     0.22167   0.63806   0.80081   0.00000  Uiso   1.00
C115   C     0.21919   0.54157   0.75567   0.00000  Uiso   1.00
H116   H     0.02755   0.55128   0.85039   0.00000  Uiso   1.00
H117   H     0.96668   0.78776   0.83463   0.00000  Uiso   1.00
H118   H     0.02552   0.42370   0.94804   0.00000  Uiso   1.00
H119   H     0.07595   0.42068   0.76496   0.00000  Uiso   1.00
H120   H     0.92206   0.08406   0.82280   0.00000  Uiso   1.00
H121   H     0.04613   0.31637   0.06193   0.00000  Uiso   1.00
H122   H     0.15246   0.30999   0.67587   0.00000  Uiso   1.00
H123   H     0.20371   0.81410   0.89374   0.00000  Uiso   1.00
H124   H     0.15252   0.06502   0.88036   0.00000  Uiso   1.00
H125   H     0.21135   0.70095   0.99377   0.00000  Uiso   1.00
H126   H     0.26178   0.69793   0.81069   0.00000  Uiso   1.00
H127   H     0.07289   0.30909   0.85992   0.00000  Uiso   1.00
H128   H     0.19696   0.54139   0.09905   0.00000  Uiso   1.00
H129   H     0.30329   0.53502   0.71299   0.00000  Uiso   1.00
O130   O     0.96062   0.35689   0.83179   0.00000  Uiso   1.00
O131   O     0.12339   0.34969   0.14551   0.00000  Uiso   1.00
O132   O     0.26290   0.34133   0.63901   0.00000  Uiso   1.00
N133   N     0.96459   0.10258   0.83336   0.00000  Uiso   1.00
N134   N     0.08058   0.38486   0.05694   0.00000  Uiso   1.00
N135   N     0.18000   0.37887   0.69601   0.00000  Uiso   1.00
N136   N     0.04575   0.22367   0.85333   0.00000  Uiso   1.00
N137   N     0.16174   0.50594   0.07691   0.00000  Uiso   1.00
N138   N     0.26116   0.49995   0.71598   0.00000  Uiso   1.00
C139   C     0.43209   0.38850   0.36032   0.00000  Uiso   1.00
C140   C     0.44073   0.22357   0.35776   0.00000  Uiso   1.00
C141   C     0.49320   0.15234   0.34449   0.00000  Uiso   1.00
C142   C     0.49200   0.00085   0.34444   0.00000  Uiso   1.00
C143   C     0.51331   0.75651   0.33855   0.00000  Uiso   1.00
C144   C     0.40877   0.42136   0.41939   0.00000  Uiso   1.00
C145   C     0.43437   0.51646   0.45793   0.00000  Uiso   1.00
C146   C     0.40625   0.53147   0.50974   0.00000  Uiso   1.00
C147   C     0.37791   0.59430   0.59952   0.00000  Uiso   1.00
C148   C     0.38137   0.42300   0.31991   0.00000  Uiso   1.00
C149   C     0.38393   0.51949   0.27482   0.00000  Uiso   1.00
C150   C     0.33275   0.53591   0.24289   0.00000  Uiso   1.00
C151   C     0.26187   0.60127   0.17821   0.00000  Uiso   1.00
C152   C     0.33665   0.24611   0.38381   0.00000  Uiso   1.00
C153   C     0.38889   0.14623   0.37052   0.00000  Uiso   1.00
C154   C     0.38761   0.99480   0.37048   0.00000  Uiso   1.00
C155   C     0.44007   0.92336   0.35721   0.00000  Uiso   1.00
C156   C     0.35693   0.34403   0.43215   0.00000  Uiso   1.00
C157   C     0.32877   0.35891   0.48391   0.00000  Uiso   1.00
C158   C     0.35432   0.45399   0.52252   0.00000  Uiso   1.00
C159   C     0.32953   0.34565   0.33267   0.00000  Uiso   1.00
C160   C     0.27833   0.36194   0.30081   0.00000  Uiso   1.00
C161   C     0.28081   0.45843   0.25567   0.00000  Uiso   1.00
H162   H     0.47245   0.44872   0.35039   0.00000  Uiso   1.00
H163   H     0.53332   0.21224   0.33463   0.00000  Uiso   1.00
H164   H     0.47448   0.57630   0.44804   0.00000  Uiso   1.00
H165   H     0.42405   0.57932   0.26496   0.00000  Uiso   1.00
H166   H     0.57794   0.91594   0.32280   0.00000  Uiso   1.00
H167   H     0.45387   0.68363   0.56193   0.00000  Uiso   1.00
H168   H     0.34754   0.69001   0.17587   0.00000  Uiso   1.00
H169   H     0.29629   0.18590   0.39374   0.00000  Uiso   1.00
H170   H     0.34748   0.93498   0.38036   0.00000  Uiso   1.00
H171   H     0.28865   0.29905   0.49377   0.00000  Uiso   1.00
H172   H     0.23822   0.30207   0.31069   0.00000  Uiso   1.00
H173   H     0.42711   0.69091   0.35992   0.00000  Uiso   1.00
H174   H     0.30304   0.45861   0.59905   0.00000  Uiso   1.00
H175   H     0.19671   0.46498   0.21299   0.00000  Uiso   1.00
O176   O     0.53938   0.64311   0.33179   0.00000  Uiso   1.00
O177   O     0.37661   0.65031   0.64551   0.00000  Uiso   1.00
O178   O     0.23710   0.65867   0.13901   0.00000  Uiso   1.00
N179   N     0.53541   0.89742   0.33336   0.00000  Uiso   1.00
N180   N     0.41942   0.61514   0.55694   0.00000  Uiso   1.00
N181   N     0.32000   0.62113   0.19601   0.00000  Uiso   1.00
N182   N     0.45425   0.77633   0.35333   0.00000  Uiso   1.00
N183   N     0.33826   0.49406   0.57691   0.00000  Uiso   1.00
N184   N     0.23884   0.50005   0.21598   0.00000  Uiso   1.00
C185   C     0.06791   0.88850   0.36032   0.00000  Uiso   1.00
C186   C     0.05927   0.72357   0.35776   0.00000  Uiso   1.00
C187   C     0.00680   0.65234   0.34449   0.00000  Uiso   1.00
C188   C     0.00800   0.50085   0.34444   0.00000  Uiso   1.00
C189   C     0.98669   0.25651   0.33855   0.00000  Uiso   1.00
C190   C     0.09123   0.92136   0.41939   0.00000  Uiso   1.00
C191   C     0.06563   0.01646   0.45793   0.00000  Uiso   1.00
C192   C     0.09375   0.03147   0.50974   0.00000  Uiso   1.00
C193   C     0.12209   0.09430   0.59952   0.00000  Uiso   1.00
C194   C     0.11863   0.92300   0.31991   0.00000  Uiso   1.00
C195   C     0.11607   0.01949   0.27482   0.00000  Uiso   1.00
C196   C     0.16725   0.03591   0.24289   0.00000  Uiso   1.00
C197   C     0.23813   0.10127   0.17821   0.00000  Uiso   1.00
C198   C     0.16335   0.74611   0.38381   0.00000  Uiso   1.00
C199   C     0.11111   0.64623   0.37052   0.00000  Uiso   1.00
C200   C     0.11239   0.49480   0.37048   0.00000  Uiso   1.00
C201   C     0.05993   0.42336   0.35721   0.00000  Uiso   1.00
C202   C     0.14307   0.84403   0.43215   0.00000  Uiso   1.00
C203   C     0.17123   0.85891   0.48391   0.00000  Uiso   1.00
C204   C     0.14568   0.95399   0.52252   0.00000  Uiso   1.00
C205   C     0.17047   0.84565   0.33267   0.00000  Uiso   1.00
C206   C     0.22167   0.86194   0.30081   0.00000  Uiso   1.00
C207   C     0.21919   0.95843   0.25567   0.00000  Uiso   1.00
H208   H     0.02755   0.94872   0.35039   0.00000  Uiso   1.00
H209   H     0.96668   0.71224   0.33463   0.00000  Uiso   1.00
H210   H     0.02552   0.07630   0.44804   0.00000  Uiso   1.00
H211   H     0.07595   0.07932   0.26496   0.00000  Uiso   1.00
H212   H     0.92206   0.41594   0.32280   0.00000  Uiso   1.00
H213   H     0.04613   0.18363   0.56193   0.00000  Uiso   1.00
H214   H     0.15246   0.19001   0.17587   0.00000  Uiso   1.00
H215   H     0.20371   0.68590   0.39374   0.00000  Uiso   1.00
H216   H     0.15252   0.43498   0.38036   0.00000  Uiso   1.00
H217   H     0.21135   0.79905   0.49377   0.00000  Uiso   1.00
H218   H     0.26178   0.80207   0.31069   0.00000  Uiso   1.00
H219   H     0.07289   0.19091   0.35992   0.00000  Uiso   1.00
H220   H     0.19696   0.95861   0.59905   0.00000  Uiso   1.00
H221   H     0.30329   0.96498   0.21299   0.00000  Uiso   1.00
O222   O     0.96062   0.14311   0.33179   0.00000  Uiso   1.00
O223   O     0.12339   0.15031   0.64551   0.00000  Uiso   1.00
O224   O     0.26290   0.15867   0.13901   0.00000  Uiso   1.00
N225   N     0.96459   0.39742   0.33336   0.00000  Uiso   1.00
N226   N     0.08058   0.11514   0.55694   0.00000  Uiso   1.00
N227   N     0.18000   0.12113   0.19601   0.00000  Uiso   1.00
N228   N     0.04575   0.27633   0.35333   0.00000  Uiso   1.00
N229   N     0.16174   0.99406   0.57691   0.00000  Uiso   1.00
N230   N     0.26116   0.00005   0.21598   0.00000  Uiso   1.00
C231   C     0.43209   0.11150   0.86032   0.00000  Uiso   1.00
C232   C     0.44073   0.27643   0.85776   0.00000  Uiso   1.00
C233   C     0.49320   0.34766   0.84449   0.00000  Uiso   1.00
C234   C     0.49200   0.49915   0.84444   0.00000  Uiso   1.00
C235   C     0.51331   0.74349   0.83855   0.00000  Uiso   1.00
C236   C     0.40877   0.07864   0.91939   0.00000  Uiso   1.00
C237   C     0.43437   0.98354   0.95793   0.00000  Uiso   1.00
C238   C     0.40625   0.96853   0.00974   0.00000  Uiso   1.00
C239   C     0.37791   0.90570   0.09952   0.00000  Uiso   1.00
C240   C     0.38137   0.07700   0.81991   0.00000  Uiso   1.00
C241   C     0.38393   0.98051   0.77482   0.00000  Uiso   1.00
C242   C     0.33275   0.96409   0.74289   0.00000  Uiso   1.00
C243   C     0.26187   0.89873   0.67821   0.00000  Uiso   1.00
C244   C     0.33665   0.25389   0.88381   0.00000  Uiso   1.00
C245   C     0.38889   0.35377   0.87052   0.00000  Uiso   1.00
C246   C     0.38761   0.50520   0.87048   0.00000  Uiso   1.00
C247   C     0.44007   0.57664   0.85721   0.00000  Uiso   1.00
C248   C     0.35693   0.15597   0.93215   0.00000  Uiso   1.00
C249   C     0.32877   0.14109   0.98391   0.00000  Uiso   1.00
C250   C     0.35432   0.04601   0.02252   0.00000  Uiso   1.00
C251   C     0.32953   0.15435   0.83267   0.00000  Uiso   1.00
C252   C     0.27833   0.13806   0.80081   0.00000  Uiso   1.00
C253   C     0.28081   0.04157   0.75567   0.00000  Uiso   1.00
H254   H     0.47245   0.05128   0.85039   0.00000  Uiso   1.00
H255   H     0.53332   0.28776   0.83463   0.00000  Uiso   1.00
H256   H     0.47448   0.92370   0.94804   0.00000  Uiso   1.00
H257   H     0.42405   0.92068   0.76496   0.00000  Uiso   1.00
H258   H     0.57794   0.58406   0.82280   0.00000  Uiso   1.00
H259   H     0.45387   0.81637   0.06193   0.00000  Uiso   1.00
H260   H     0.34754   0.80999   0.67587   0.00000  Uiso   1.00
H261   H     0.29629   0.31410   0.89374   0.00000  Uiso   1.00
H262   H     0.34748   0.56502   0.88036   0.00000  Uiso   1.00
H263   H     0.28865   0.20095   0.99377   0.00000  Uiso   1.00
H264   H     0.23822   0.19793   0.81069   0.00000  Uiso   1.00
H265   H     0.42711   0.80909   0.85992   0.00000  Uiso   1.00
H266   H     0.30304   0.04139   0.09905   0.00000  Uiso   1.00
H267   H     0.19671   0.03502   0.71299   0.00000  Uiso   1.00
O268   O     0.53938   0.85689   0.83179   0.00000  Uiso   1.00
O269   O     0.37661   0.84969   0.14551   0.00000  Uiso   1.00
O270   O     0.23710   0.84133   0.63901   0.00000  Uiso   1.00
N271   N     0.53541   0.60258   0.83336   0.00000  Uiso   1.00
N272   N     0.41942   0.88486   0.05694   0.00000  Uiso   1.00
N273   N     0.32000   0.87887   0.69601   0.00000  Uiso   1.00
N274   N     0.45425   0.72367   0.85333   0.00000  Uiso   1.00
N275   N     0.33826   0.00594   0.07691   0.00000  Uiso   1.00
N276   N     0.23884   0.99995   0.71598   0.00000  Uiso   1.00
C277   C     0.93209   0.38850   0.13968   0.00000  Uiso   1.00
C278   C     0.94073   0.22357   0.14224   0.00000  Uiso   1.00
C279   C     0.99320   0.15234   0.15551   0.00000  Uiso   1.00
C280   C     0.99200   0.00085   0.15556   0.00000  Uiso   1.00
C281   C     0.01331   0.75651   0.16145   0.00000  Uiso   1.00
C282   C     0.90877   0.42136   0.08061   0.00000  Uiso   1.00
C283   C     0.93437   0.51646   0.04207   0.00000  Uiso   1.00
C284   C     0.90625   0.53147   0.99026   0.00000  Uiso   1.00
C285   C     0.87791   0.59430   0.90048   0.00000  Uiso   1.00
C286   C     0.88137   0.42300   0.18009   0.00000  Uiso   1.00
C287   C     0.88393   0.51949   0.22518   0.00000  Uiso   1.00
C288   C     0.83275   0.53591   0.25711   0.00000  Uiso   1.00
C289   C     0.76187   0.60127   0.32179   0.00000  Uiso   1.00
C290   C     0.83665   0.24611   0.11619   0.00000  Uiso   1.00
C291   C     0.88889   0.14623   0.12948   0.00000  Uiso   1.00
C292   C     0.88761   0.99480   0.12952   0.00000  Uiso   1.00
C293   C     0.94007   0.92336   0.14279   0.00000  Uiso   1.00
C294   C     0.85693   0.34403   0.06785   0.00000  Uiso   1.00
C295   C     0.82877   0.35891   0.01609   0.00000  Uiso   1.00
C296   C     0.85432   0.45399   0.97748   0.00000  Uiso   1.00
C297   C     0.82953   0.34565   0.16733   0.00000  Uiso   1.00
C298   C     0.77833   0.36194   0.19919   0.00000  Uiso   1.00
C299   C     0.78081   0.45843   0.24433   0.00000  Uiso   1.00
H300   H     0.97245   0.44872   0.14961   0.00000  Uiso   1.00
H301   H     0.03332   0.21224   0.16537   0.00000  Uiso   1.00
H302   H     0.97448   0.57630   0.05196   0.00000  Uiso   1.00
H303   H     0.92405   0.57932   0.23504   0.00000  Uiso   1.00
H304   H     0.07794   0.91594   0.17720   0.00000  Uiso   1.00
H305   H     0.95387   0.68363   0.93807   0.00000  Uiso   1.00
H306   H     0.84754   0.69001   0.32413   0.00000  Uiso   1.00
H307   H     0.79629   0.18590   0.10626   0.00000  Uiso   1.00
H308   H     0.84748   0.93498   0.11964   0.00000  Uiso   1.00
H309   H     0.78865   0.29905   0.00623   0.00000  Uiso   1.00
H310   H     0.73822   0.30207   0.18931   0.00000  Uiso   1.00
H311   H     0.92711   0.69091   0.14008   0.00000  Uiso   1.00
H312   H     0.80304   0.45861   0.90095   0.00000  Uiso   1.00
H313   H     0.69671   0.46498   0.28701   0.00000  Uiso   1.00
O314   O     0.03938   0.64311   0.16821   0.00000  Uiso   1.00
O315   O     0.87661   0.65031   0.85449   0.00000  Uiso   1.00
O316   O     0.73710   0.65867   0.36099   0.00000  Uiso   1.00
N317   N     0.03541   0.89742   0.16664   0.00000  Uiso   1.00
N318   N     0.91942   0.61514   0.94306   0.00000  Uiso   1.00
N319   N     0.82000   0.62113   0.30399   0.00000  Uiso   1.00
N320   N     0.95425   0.77633   0.14667   0.00000  Uiso   1.00
N321   N     0.83826   0.49406   0.92309   0.00000  Uiso   1.00
N322   N     0.73884   0.50005   0.28402   0.00000  Uiso   1.00
C323   C     0.56791   0.61150   0.63968   0.00000  Uiso   1.00
C324   C     0.55927   0.77643   0.64224   0.00000  Uiso   1.00
C325   C     0.50680   0.84766   0.65551   0.00000  Uiso   1.00
C326   C     0.50800   0.99915   0.65556   0.00000  Uiso   1.00
C327   C     0.48669   0.24349   0.66145   0.00000  Uiso   1.00
C328   C     0.59123   0.57864   0.58061   0.00000  Uiso   1.00
C329   C     0.56563   0.48354   0.54207   0.00000  Uiso   1.00
C330   C     0.59375   0.46853   0.49026   0.00000  Uiso   1.00
C331   C     0.62209   0.40570   0.40048   0.00000  Uiso   1.00
C332   C     0.61863   0.57700   0.68009   0.00000  Uiso   1.00
C333   C     0.61607   0.48051   0.72518   0.00000  Uiso   1.00
C334   C     0.66725   0.46409   0.75711   0.00000  Uiso   1.00
C335   C     0.73813   0.39873   0.82179   0.00000  Uiso   1.00
C336   C     0.66335   0.75389   0.61619   0.00000  Uiso   1.00
C337   C     0.61111   0.85377   0.62948   0.00000  Uiso   1.00
C338   C     0.61239   0.00520   0.62952   0.00000  Uiso   1.00
C339   C     0.55993   0.07664   0.64279   0.00000  Uiso   1.00
C340   C     0.64307   0.65597   0.56785   0.00000  Uiso   1.00
C341   C     0.67123   0.64109   0.51609   0.00000  Uiso   1.00
C342   C     0.64568   0.54601   0.47748   0.00000  Uiso   1.00
C343   C     0.67047   0.65435   0.66733   0.00000  Uiso   1.00
C344   C     0.72167   0.63806   0.69919   0.00000  Uiso   1.00
C345   C     0.71919   0.54157   0.74433   0.00000  Uiso   1.00
H346   H     0.52755   0.55128   0.64961   0.00000  Uiso   1.00
H347   H     0.46668   0.78776   0.66537   0.00000  Uiso   1.00
H348   H     0.52552   0.42370   0.55196   0.00000  Uiso   1.00
H349   H     0.57595   0.42068   0.73504   0.00000  Uiso   1.00
H350   H     0.42206   0.08406   0.67720   0.00000  Uiso   1.00
H351   H     0.54613   0.31637   0.43807   0.00000  Uiso   1.00
H352   H     0.65246   0.30999   0.82413   0.00000  Uiso   1.00
H353   H     0.70371   0.81410   0.60626   0.00000  Uiso   1.00
H354   H     0.65252   0.06502   0.61964   0.00000  Uiso   1.00
H355   H     0.71135   0.70095   0.50623   0.00000  Uiso   1.00
H356   H     0.76178   0.69793   0.68931   0.00000  Uiso   1.00
H357   H     0.57289   0.30909   0.64008   0.00000  Uiso   1.00
H358   H     0.69696   0.54139   0.40095   0.00000  Uiso   1.00
H359   H     0.80329   0.53502   0.78701   0.00000  Uiso   1.00
O360   O     0.46062   0.35689   0.66821   0.00000  Uiso   1.00
O361   O     0.62339   0.34969   0.35449   0.00000  Uiso   1.00
O362   O     0.76290   0.34133   0.86099   0.00000  Uiso   1.00
N363   N     0.46459   0.10258   0.66664   0.00000  Uiso   1.00
N364   N     0.58058   0.38486   0.44306   0.00000  Uiso   1.00
N365   N     0.68000   0.37887   0.80399   0.00000  Uiso   1.00
N366   N     0.54575   0.22367   0.64667   0.00000  Uiso   1.00
N367   N     0.66174   0.50594   0.42309   0.00000  Uiso   1.00
N368   N     0.76116   0.49995   0.78402   0.00000  Uiso   1.00
