data_job_04573
_audit_creation_date              2018-12-19
_audit_creation_method            'Materials Studio'
_symmetry_space_group_name_H-M    'P1'
_symmetry_Int_Tables_number       1
_symmetry_cell_setting            triclinic
loop_
_symmetry_equiv_pos_as_xyz
  x,y,z
_cell_length_a                    28.4438
_cell_length_b                    9.8145
_cell_length_c                    21.9574
_cell_angle_alpha                 90.0000
_cell_angle_beta                  125.6870
_cell_angle_gamma                 90.0000
loop_
_atom_site_label
_atom_site_type_symbol
_atom_site_fract_x
_atom_site_fract_y
_atom_site_fract_z
_atom_site_U_iso_or_equiv
_atom_site_adp_type
_atom_site_occupancy
C1     C     0.68852   0.56811   0.82097   0.00000  Uiso   1.00
C2     C     0.75320   0.54773   0.85943   0.00000  Uiso   1.00
C3     C     0.78851   0.45796   0.91781   0.00000  Uiso   1.00
C4     C     0.84654   0.45444   0.94531   0.00000  Uiso   1.00
C5     C     0.94366   0.41016   0.00960   0.00000  Uiso   1.00
C6     C     0.68044   0.71947   0.82807   0.00000  Uiso   1.00
C7     C     0.65457   0.77409   0.86007   0.00000  Uiso   1.00
C8     C     0.65135   0.91513   0.86117   0.00000  Uiso   1.00
C9     C     0.63546   0.13748   0.87672   0.00000  Uiso   1.00
C10    C     0.65952   0.54226   0.73775   0.00000  Uiso   1.00
C11    C     0.61603   0.44790   0.69379   0.00000  Uiso   1.00
C12    C     0.59518   0.43977   0.61884   0.00000  Uiso   1.00
C13    C     0.54681   0.38697   0.49416   0.00000  Uiso   1.00
C14    C     0.72880   0.72148   0.76601   0.00000  Uiso   1.00
C15    C     0.77508   0.63104   0.82958   0.00000  Uiso   1.00
C16    C     0.83308   0.62764   0.85700   0.00000  Uiso   1.00
C17    C     0.86846   0.53788   0.91541   0.00000  Uiso   1.00
C18    C     0.70232   0.80277   0.79822   0.00000  Uiso   1.00
C19    C     0.69914   0.94377   0.79927   0.00000  Uiso   1.00
C20    C     0.67327   0.99859   0.83127   0.00000  Uiso   1.00
C21    C     0.68140   0.62556   0.70790   0.00000  Uiso   1.00
C22    C     0.66060   0.61758   0.63299   0.00000  Uiso   1.00
C23    C     0.61710   0.52323   0.58894   0.00000  Uiso   1.00
H24    H     0.67148   0.50327   0.84421   0.00000  Uiso   1.00
H25    H     0.77156   0.39352   0.94090   0.00000  Uiso   1.00
H26    H     0.63764   0.70960   0.88316   0.00000  Uiso   1.00
H27    H     0.59911   0.38346   0.71691   0.00000  Uiso   1.00
H28    H     0.89217   0.30862   0.03495   0.00000  Uiso   1.00
H29    H     0.60976   0.97508   0.91319   0.00000  Uiso   1.00
H30    H     0.52852   0.28735   0.56262   0.00000  Uiso   1.00
H31    H     0.74583   0.78634   0.74277   0.00000  Uiso   1.00
H32    H     0.85000   0.69212   0.83389   0.00000  Uiso   1.00
H33    H     0.71607   0.00820   0.77616   0.00000  Uiso   1.00
H34    H     0.67755   0.68206   0.60991   0.00000  Uiso   1.00
H35    H     0.95583   0.55098   0.94810   0.00000  Uiso   1.00
H36    H     0.67342   0.21744   0.82634   0.00000  Uiso   1.00
H37    H     0.59219   0.52971   0.47578   0.00000  Uiso   1.00
O38    O     0.99118   0.36274   0.05332   0.00000  Uiso   1.00
O39    O     0.62066   0.23710   0.89355   0.00000  Uiso   1.00
O40    O     0.51409   0.33483   0.43363   0.00000  Uiso   1.00
N41    N     0.89286   0.37857   0.00199   0.00000  Uiso   1.00
N42    N     0.62883   0.00167   0.88816   0.00000  Uiso   1.00
N43    N     0.55287   0.35873   0.56041   0.00000  Uiso   1.00
N44    N     0.92711   0.50898   0.95526   0.00000  Uiso   1.00
N45    N     0.66308   0.13208   0.84143   0.00000  Uiso   1.00
N46    N     0.58712   0.48914   0.51368   0.00000  Uiso   1.00
C47    C     0.18852   0.06811   0.82097   0.00000  Uiso   1.00
C48    C     0.25320   0.04773   0.85943   0.00000  Uiso   1.00
C49    C     0.28851   0.95796   0.91781   0.00000  Uiso   1.00
C50    C     0.34654   0.95444   0.94531   0.00000  Uiso   1.00
C51    C     0.44366   0.91016   0.00960   0.00000  Uiso   1.00
C52    C     0.18044   0.21947   0.82807   0.00000  Uiso   1.00
C53    C     0.15457   0.27409   0.86007   0.00000  Uiso   1.00
C54    C     0.15135   0.41513   0.86117   0.00000  Uiso   1.00
C55    C     0.13546   0.63748   0.87672   0.00000  Uiso   1.00
C56    C     0.15952   0.04226   0.73775   0.00000  Uiso   1.00
C57    C     0.11603   0.94790   0.69379   0.00000  Uiso   1.00
C58    C     0.09518   0.93977   0.61884   0.00000  Uiso   1.00
C59    C     0.04681   0.88697   0.49416   0.00000  Uiso   1.00
C60    C     0.22880   0.22148   0.76601   0.00000  Uiso   1.00
C61    C     0.27508   0.13104   0.82958   0.00000  Uiso   1.00
C62    C     0.33308   0.12764   0.85700   0.00000  Uiso   1.00
C63    C     0.36846   0.03788   0.91541   0.00000  Uiso   1.00
C64    C     0.20232   0.30277   0.79822   0.00000  Uiso   1.00
C65    C     0.19914   0.44377   0.79927   0.00000  Uiso   1.00
C66    C     0.17327   0.49859   0.83127   0.00000  Uiso   1.00
C67    C     0.18140   0.12556   0.70790   0.00000  Uiso   1.00
C68    C     0.16060   0.11758   0.63299   0.00000  Uiso   1.00
C69    C     0.11710   0.02323   0.58894   0.00000  Uiso   1.00
H70    H     0.17148   0.00327   0.84421   0.00000  Uiso   1.00
H71    H     0.27156   0.89352   0.94090   0.00000  Uiso   1.00
H72    H     0.13764   0.20960   0.88316   0.00000  Uiso   1.00
H73    H     0.09911   0.88346   0.71691   0.00000  Uiso   1.00
H74    H     0.39217   0.80862   0.03495   0.00000  Uiso   1.00
H75    H     0.10976   0.47508   0.91319   0.00000  Uiso   1.00
H76    H     0.02852   0.78735   0.56262   0.00000  Uiso   1.00
H77    H     0.24583   0.28634   0.74277   0.00000  Uiso   1.00
H78    H     0.35000   0.19212   0.83389   0.00000  Uiso   1.00
H79    H     0.21607   0.50820   0.77616   0.00000  Uiso   1.00
H80    H     0.17755   0.18206   0.60991   0.00000  Uiso   1.00
H81    H     0.45583   0.05098   0.94810   0.00000  Uiso   1.00
H82    H     0.17342   0.71744   0.82634   0.00000  Uiso   1.00
H83    H     0.09219   0.02971   0.47578   0.00000  Uiso   1.00
O84    O     0.49118   0.86274   0.05332   0.00000  Uiso   1.00
O85    O     0.12066   0.73710   0.89355   0.00000  Uiso   1.00
O86    O     0.01409   0.83483   0.43363   0.00000  Uiso   1.00
N87    N     0.39286   0.87857   0.00199   0.00000  Uiso   1.00
N88    N     0.12883   0.50167   0.88816   0.00000  Uiso   1.00
N89    N     0.05287   0.85873   0.56041   0.00000  Uiso   1.00
N90    N     0.42711   0.00898   0.95526   0.00000  Uiso   1.00
N91    N     0.16308   0.63208   0.84143   0.00000  Uiso   1.00
N92    N     0.08712   0.98914   0.51368   0.00000  Uiso   1.00
C93    C     0.31148   0.56811   0.67903   0.00000  Uiso   1.00
C94    C     0.24680   0.54773   0.64057   0.00000  Uiso   1.00
C95    C     0.21149   0.45796   0.58219   0.00000  Uiso   1.00
C96    C     0.15346   0.45444   0.55469   0.00000  Uiso   1.00
C97    C     0.05634   0.41016   0.49040   0.00000  Uiso   1.00
C98    C     0.31956   0.71947   0.67193   0.00000  Uiso   1.00
C99    C     0.34543   0.77409   0.63993   0.00000  Uiso   1.00
C100   C     0.34865   0.91513   0.63883   0.00000  Uiso   1.00
C101   C     0.36454   0.13748   0.62328   0.00000  Uiso   1.00
C102   C     0.34048   0.54226   0.76225   0.00000  Uiso   1.00
C103   C     0.38397   0.44790   0.80621   0.00000  Uiso   1.00
C104   C     0.40482   0.43977   0.88116   0.00000  Uiso   1.00
C105   C     0.45319   0.38697   0.00584   0.00000  Uiso   1.00
C106   C     0.27120   0.72148   0.73399   0.00000  Uiso   1.00
C107   C     0.22492   0.63104   0.67042   0.00000  Uiso   1.00
C108   C     0.16692   0.62764   0.64300   0.00000  Uiso   1.00
C109   C     0.13154   0.53788   0.58459   0.00000  Uiso   1.00
C110   C     0.29768   0.80277   0.70178   0.00000  Uiso   1.00
C111   C     0.30086   0.94377   0.70073   0.00000  Uiso   1.00
C112   C     0.32673   0.99859   0.66873   0.00000  Uiso   1.00
C113   C     0.31860   0.62556   0.79210   0.00000  Uiso   1.00
C114   C     0.33940   0.61758   0.86701   0.00000  Uiso   1.00
C115   C     0.38290   0.52323   0.91106   0.00000  Uiso   1.00
H116   H     0.32852   0.50327   0.65579   0.00000  Uiso   1.00
H117   H     0.22844   0.39352   0.55910   0.00000  Uiso   1.00
H118   H     0.36236   0.70960   0.61684   0.00000  Uiso   1.00
H119   H     0.40089   0.38346   0.78309   0.00000  Uiso   1.00
H120   H     0.10783   0.30862   0.46505   0.00000  Uiso   1.00
H121   H     0.39024   0.97508   0.58681   0.00000  Uiso   1.00
H122   H     0.47148   0.28735   0.93738   0.00000  Uiso   1.00
H123   H     0.25417   0.78634   0.75723   0.00000  Uiso   1.00
H124   H     0.15000   0.69212   0.66611   0.00000  Uiso   1.00
H125   H     0.28393   0.00820   0.72384   0.00000  Uiso   1.00
H126   H     0.32245   0.68206   0.89009   0.00000  Uiso   1.00
H127   H     0.04417   0.55098   0.55190   0.00000  Uiso   1.00
H128   H     0.32658   0.21744   0.67366   0.00000  Uiso   1.00
H129   H     0.40781   0.52971   0.02422   0.00000  Uiso   1.00
O130   O     0.00882   0.36274   0.44668   0.00000  Uiso   1.00
O131   O     0.37934   0.23710   0.60645   0.00000  Uiso   1.00
O132   O     0.48591   0.33483   0.06637   0.00000  Uiso   1.00
N133   N     0.10714   0.37857   0.49801   0.00000  Uiso   1.00
N134   N     0.37117   0.00167   0.61184   0.00000  Uiso   1.00
N135   N     0.44713   0.35873   0.93959   0.00000  Uiso   1.00
N136   N     0.07289   0.50898   0.54474   0.00000  Uiso   1.00
N137   N     0.33692   0.13208   0.65857   0.00000  Uiso   1.00
N138   N     0.41288   0.48914   0.98632   0.00000  Uiso   1.00
C139   C     0.81148   0.06811   0.67903   0.00000  Uiso   1.00
C140   C     0.74680   0.04773   0.64057   0.00000  Uiso   1.00
C141   C     0.71149   0.95796   0.58219   0.00000  Uiso   1.00
C142   C     0.65346   0.95444   0.55469   0.00000  Uiso   1.00
C143   C     0.55634   0.91016   0.49040   0.00000  Uiso   1.00
C144   C     0.81956   0.21947   0.67193   0.00000  Uiso   1.00
C145   C     0.84543   0.27409   0.63993   0.00000  Uiso   1.00
C146   C     0.84865   0.41513   0.63883   0.00000  Uiso   1.00
C147   C     0.86454   0.63748   0.62328   0.00000  Uiso   1.00
C148   C     0.84048   0.04226   0.76225   0.00000  Uiso   1.00
C149   C     0.88397   0.94790   0.80621   0.00000  Uiso   1.00
C150   C     0.90482   0.93977   0.88116   0.00000  Uiso   1.00
C151   C     0.95319   0.88697   0.00584   0.00000  Uiso   1.00
C152   C     0.77120   0.22148   0.73399   0.00000  Uiso   1.00
C153   C     0.72492   0.13104   0.67042   0.00000  Uiso   1.00
C154   C     0.66692   0.12764   0.64300   0.00000  Uiso   1.00
C155   C     0.63154   0.03788   0.58459   0.00000  Uiso   1.00
C156   C     0.79768   0.30277   0.70178   0.00000  Uiso   1.00
C157   C     0.80086   0.44377   0.70073   0.00000  Uiso   1.00
C158   C     0.82673   0.49859   0.66873   0.00000  Uiso   1.00
C159   C     0.81860   0.12556   0.79210   0.00000  Uiso   1.00
C160   C     0.83940   0.11758   0.86701   0.00000  Uiso   1.00
C161   C     0.88290   0.02323   0.91106   0.00000  Uiso   1.00
H162   H     0.82852   0.00327   0.65579   0.00000  Uiso   1.00
H163   H     0.72844   0.89352   0.55910   0.00000  Uiso   1.00
H164   H     0.86236   0.20960   0.61684   0.00000  Uiso   1.00
H165   H     0.90089   0.88346   0.78309   0.00000  Uiso   1.00
H166   H     0.60783   0.80862   0.46505   0.00000  Uiso   1.00
H167   H     0.89024   0.47508   0.58681   0.00000  Uiso   1.00
H168   H     0.97148   0.78735   0.93738   0.00000  Uiso   1.00
H169   H     0.75417   0.28634   0.75723   0.00000  Uiso   1.00
H170   H     0.65000   0.19212   0.66611   0.00000  Uiso   1.00
H171   H     0.78393   0.50820   0.72384   0.00000  Uiso   1.00
H172   H     0.82245   0.18206   0.89009   0.00000  Uiso   1.00
H173   H     0.54417   0.05098   0.55190   0.00000  Uiso   1.00
H174   H     0.82658   0.71744   0.67366   0.00000  Uiso   1.00
H175   H     0.90781   0.02971   0.02422   0.00000  Uiso   1.00
O176   O     0.50882   0.86274   0.44668   0.00000  Uiso   1.00
O177   O     0.87934   0.73710   0.60645   0.00000  Uiso   1.00
O178   O     0.98591   0.83483   0.06637   0.00000  Uiso   1.00
N179   N     0.60714   0.87857   0.49801   0.00000  Uiso   1.00
N180   N     0.87117   0.50167   0.61184   0.00000  Uiso   1.00
N181   N     0.94713   0.85873   0.93959   0.00000  Uiso   1.00
N182   N     0.57289   0.00898   0.54474   0.00000  Uiso   1.00
N183   N     0.83692   0.63208   0.65857   0.00000  Uiso   1.00
N184   N     0.91288   0.98914   0.98632   0.00000  Uiso   1.00
C185   C     0.31148   0.43189   0.17903   0.00000  Uiso   1.00
C186   C     0.24680   0.45227   0.14057   0.00000  Uiso   1.00
C187   C     0.21149   0.54204   0.08219   0.00000  Uiso   1.00
C188   C     0.15346   0.54556   0.05469   0.00000  Uiso   1.00
C189   C     0.05634   0.58984   0.99040   0.00000  Uiso   1.00
C190   C     0.31956   0.28053   0.17193   0.00000  Uiso   1.00
C191   C     0.34543   0.22591   0.13993   0.00000  Uiso   1.00
C192   C     0.34865   0.08487   0.13883   0.00000  Uiso   1.00
C193   C     0.36454   0.86252   0.12328   0.00000  Uiso   1.00
C194   C     0.34048   0.45774   0.26225   0.00000  Uiso   1.00
C195   C     0.38397   0.55210   0.30621   0.00000  Uiso   1.00
C196   C     0.40482   0.56023   0.38116   0.00000  Uiso   1.00
C197   C     0.45319   0.61303   0.50584   0.00000  Uiso   1.00
C198   C     0.27120   0.27852   0.23399   0.00000  Uiso   1.00
C199   C     0.22492   0.36896   0.17042   0.00000  Uiso   1.00
C200   C     0.16692   0.37236   0.14300   0.00000  Uiso   1.00
C201   C     0.13154   0.46212   0.08459   0.00000  Uiso   1.00
C202   C     0.29768   0.19723   0.20178   0.00000  Uiso   1.00
C203   C     0.30086   0.05623   0.20073   0.00000  Uiso   1.00
C204   C     0.32673   0.00141   0.16873   0.00000  Uiso   1.00
C205   C     0.31860   0.37444   0.29210   0.00000  Uiso   1.00
C206   C     0.33940   0.38242   0.36701   0.00000  Uiso   1.00
C207   C     0.38290   0.47677   0.41106   0.00000  Uiso   1.00
H208   H     0.32852   0.49673   0.15579   0.00000  Uiso   1.00
H209   H     0.22844   0.60648   0.05910   0.00000  Uiso   1.00
H210   H     0.36236   0.29040   0.11684   0.00000  Uiso   1.00
H211   H     0.40089   0.61654   0.28309   0.00000  Uiso   1.00
H212   H     0.10783   0.69138   0.96505   0.00000  Uiso   1.00
H213   H     0.39024   0.02492   0.08681   0.00000  Uiso   1.00
H214   H     0.47148   0.71265   0.43738   0.00000  Uiso   1.00
H215   H     0.25417   0.21366   0.25723   0.00000  Uiso   1.00
H216   H     0.15000   0.30788   0.16611   0.00000  Uiso   1.00
H217   H     0.28393   0.99180   0.22384   0.00000  Uiso   1.00
H218   H     0.32245   0.31794   0.39009   0.00000  Uiso   1.00
H219   H     0.04417   0.44902   0.05190   0.00000  Uiso   1.00
H220   H     0.32658   0.78256   0.17366   0.00000  Uiso   1.00
H221   H     0.40781   0.47029   0.52422   0.00000  Uiso   1.00
O222   O     0.00882   0.63726   0.94668   0.00000  Uiso   1.00
O223   O     0.37934   0.76290   0.10645   0.00000  Uiso   1.00
O224   O     0.48591   0.66517   0.56637   0.00000  Uiso   1.00
N225   N     0.10714   0.62143   0.99801   0.00000  Uiso   1.00
N226   N     0.37117   0.99833   0.11184   0.00000  Uiso   1.00
N227   N     0.44713   0.64127   0.43959   0.00000  Uiso   1.00
N228   N     0.07289   0.49102   0.04474   0.00000  Uiso   1.00
N229   N     0.33692   0.86792   0.15857   0.00000  Uiso   1.00
N230   N     0.41288   0.51086   0.48632   0.00000  Uiso   1.00
C231   C     0.81148   0.93189   0.17903   0.00000  Uiso   1.00
C232   C     0.74680   0.95227   0.14057   0.00000  Uiso   1.00
C233   C     0.71149   0.04204   0.08219   0.00000  Uiso   1.00
C234   C     0.65346   0.04556   0.05469   0.00000  Uiso   1.00
C235   C     0.55634   0.08984   0.99040   0.00000  Uiso   1.00
C236   C     0.81956   0.78053   0.17193   0.00000  Uiso   1.00
C237   C     0.84543   0.72591   0.13993   0.00000  Uiso   1.00
C238   C     0.84865   0.58487   0.13883   0.00000  Uiso   1.00
C239   C     0.86454   0.36252   0.12328   0.00000  Uiso   1.00
C240   C     0.84048   0.95774   0.26225   0.00000  Uiso   1.00
C241   C     0.88397   0.05210   0.30621   0.00000  Uiso   1.00
C242   C     0.90482   0.06023   0.38116   0.00000  Uiso   1.00
C243   C     0.95319   0.11303   0.50584   0.00000  Uiso   1.00
C244   C     0.77120   0.77852   0.23399   0.00000  Uiso   1.00
C245   C     0.72492   0.86896   0.17042   0.00000  Uiso   1.00
C246   C     0.66692   0.87236   0.14300   0.00000  Uiso   1.00
C247   C     0.63154   0.96212   0.08459   0.00000  Uiso   1.00
C248   C     0.79768   0.69723   0.20178   0.00000  Uiso   1.00
C249   C     0.80086   0.55623   0.20073   0.00000  Uiso   1.00
C250   C     0.82673   0.50141   0.16873   0.00000  Uiso   1.00
C251   C     0.81860   0.87444   0.29210   0.00000  Uiso   1.00
C252   C     0.83940   0.88242   0.36701   0.00000  Uiso   1.00
C253   C     0.88290   0.97677   0.41106   0.00000  Uiso   1.00
H254   H     0.82852   0.99673   0.15579   0.00000  Uiso   1.00
H255   H     0.72844   0.10648   0.05910   0.00000  Uiso   1.00
H256   H     0.86236   0.79040   0.11684   0.00000  Uiso   1.00
H257   H     0.90089   0.11654   0.28309   0.00000  Uiso   1.00
H258   H     0.60783   0.19138   0.96505   0.00000  Uiso   1.00
H259   H     0.89024   0.52492   0.08681   0.00000  Uiso   1.00
H260   H     0.97148   0.21265   0.43738   0.00000  Uiso   1.00
H261   H     0.75417   0.71366   0.25723   0.00000  Uiso   1.00
H262   H     0.65000   0.80788   0.16611   0.00000  Uiso   1.00
H263   H     0.78393   0.49180   0.22384   0.00000  Uiso   1.00
H264   H     0.82245   0.81794   0.39009   0.00000  Uiso   1.00
H265   H     0.54417   0.94902   0.05190   0.00000  Uiso   1.00
H266   H     0.82658   0.28256   0.17366   0.00000  Uiso   1.00
H267   H     0.90781   0.97029   0.52422   0.00000  Uiso   1.00
O268   O     0.50882   0.13726   0.94668   0.00000  Uiso   1.00
O269   O     0.87934   0.26290   0.10645   0.00000  Uiso   1.00
O270   O     0.98591   0.16517   0.56637   0.00000  Uiso   1.00
N271   N     0.60714   0.12143   0.99801   0.00000  Uiso   1.00
N272   N     0.87117   0.49833   0.11184   0.00000  Uiso   1.00
N273   N     0.94713   0.14127   0.43959   0.00000  Uiso   1.00
N274   N     0.57289   0.99102   0.04474   0.00000  Uiso   1.00
N275   N     0.83692   0.36792   0.15857   0.00000  Uiso   1.00
N276   N     0.91288   0.01086   0.48632   0.00000  Uiso   1.00
C277   C     0.68852   0.43189   0.32097   0.00000  Uiso   1.00
C278   C     0.75320   0.45227   0.35943   0.00000  Uiso   1.00
C279   C     0.78851   0.54204   0.41781   0.00000  Uiso   1.00
C280   C     0.84654   0.54556   0.44531   0.00000  Uiso   1.00
C281   C     0.94366   0.58984   0.50960   0.00000  Uiso   1.00
C282   C     0.68044   0.28053   0.32807   0.00000  Uiso   1.00
C283   C     0.65457   0.22591   0.36007   0.00000  Uiso   1.00
C284   C     0.65135   0.08487   0.36117   0.00000  Uiso   1.00
C285   C     0.63546   0.86252   0.37672   0.00000  Uiso   1.00
C286   C     0.65952   0.45774   0.23775   0.00000  Uiso   1.00
C287   C     0.61603   0.55210   0.19379   0.00000  Uiso   1.00
C288   C     0.59518   0.56023   0.11884   0.00000  Uiso   1.00
C289   C     0.54681   0.61303   0.99416   0.00000  Uiso   1.00
C290   C     0.72880   0.27852   0.26601   0.00000  Uiso   1.00
C291   C     0.77508   0.36896   0.32958   0.00000  Uiso   1.00
C292   C     0.83308   0.37236   0.35700   0.00000  Uiso   1.00
C293   C     0.86846   0.46212   0.41541   0.00000  Uiso   1.00
C294   C     0.70232   0.19723   0.29822   0.00000  Uiso   1.00
C295   C     0.69914   0.05623   0.29927   0.00000  Uiso   1.00
C296   C     0.67327   0.00141   0.33127   0.00000  Uiso   1.00
C297   C     0.68140   0.37444   0.20790   0.00000  Uiso   1.00
C298   C     0.66060   0.38242   0.13299   0.00000  Uiso   1.00
C299   C     0.61710   0.47677   0.08894   0.00000  Uiso   1.00
H300   H     0.67148   0.49673   0.34421   0.00000  Uiso   1.00
H301   H     0.77156   0.60648   0.44090   0.00000  Uiso   1.00
H302   H     0.63764   0.29040   0.38316   0.00000  Uiso   1.00
H303   H     0.59911   0.61654   0.21691   0.00000  Uiso   1.00
H304   H     0.89217   0.69138   0.53495   0.00000  Uiso   1.00
H305   H     0.60976   0.02492   0.41319   0.00000  Uiso   1.00
H306   H     0.52852   0.71265   0.06262   0.00000  Uiso   1.00
H307   H     0.74583   0.21366   0.24277   0.00000  Uiso   1.00
H308   H     0.85000   0.30788   0.33389   0.00000  Uiso   1.00
H309   H     0.71607   0.99180   0.27616   0.00000  Uiso   1.00
H310   H     0.67755   0.31794   0.10991   0.00000  Uiso   1.00
H311   H     0.95583   0.44902   0.44810   0.00000  Uiso   1.00
H312   H     0.67342   0.78256   0.32634   0.00000  Uiso   1.00
H313   H     0.59219   0.47029   0.97578   0.00000  Uiso   1.00
O314   O     0.99118   0.63726   0.55332   0.00000  Uiso   1.00
O315   O     0.62066   0.76290   0.39355   0.00000  Uiso   1.00
O316   O     0.51409   0.66517   0.93363   0.00000  Uiso   1.00
N317   N     0.89286   0.62143   0.50199   0.00000  Uiso   1.00
N318   N     0.62883   0.99833   0.38816   0.00000  Uiso   1.00
N319   N     0.55287   0.64127   0.06041   0.00000  Uiso   1.00
N320   N     0.92711   0.49102   0.45526   0.00000  Uiso   1.00
N321   N     0.66308   0.86792   0.34143   0.00000  Uiso   1.00
N322   N     0.58712   0.51086   0.01368   0.00000  Uiso   1.00
C323   C     0.18852   0.93189   0.32097   0.00000  Uiso   1.00
C324   C     0.25320   0.95227   0.35943   0.00000  Uiso   1.00
C325   C     0.28851   0.04204   0.41781   0.00000  Uiso   1.00
C326   C     0.34654   0.04556   0.44531   0.00000  Uiso   1.00
C327   C     0.44366   0.08984   0.50960   0.00000  Uiso   1.00
C328   C     0.18044   0.78053   0.32807   0.00000  Uiso   1.00
C329   C     0.15457   0.72591   0.36007   0.00000  Uiso   1.00
C330   C     0.15135   0.58487   0.36117   0.00000  Uiso   1.00
C331   C     0.13546   0.36252   0.37672   0.00000  Uiso   1.00
C332   C     0.15952   0.95774   0.23775   0.00000  Uiso   1.00
C333   C     0.11603   0.05210   0.19379   0.00000  Uiso   1.00
C334   C     0.09518   0.06023   0.11884   0.00000  Uiso   1.00
C335   C     0.04681   0.11303   0.99416   0.00000  Uiso   1.00
C336   C     0.22880   0.77852   0.26601   0.00000  Uiso   1.00
C337   C     0.27508   0.86896   0.32958   0.00000  Uiso   1.00
C338   C     0.33308   0.87236   0.35700   0.00000  Uiso   1.00
C339   C     0.36846   0.96212   0.41541   0.00000  Uiso   1.00
C340   C     0.20232   0.69723   0.29822   0.00000  Uiso   1.00
C341   C     0.19914   0.55623   0.29927   0.00000  Uiso   1.00
C342   C     0.17327   0.50141   0.33127   0.00000  Uiso   1.00
C343   C     0.18140   0.87444   0.20790   0.00000  Uiso   1.00
C344   C     0.16060   0.88242   0.13299   0.00000  Uiso   1.00
C345   C     0.11710   0.97677   0.08894   0.00000  Uiso   1.00
H346   H     0.17148   0.99673   0.34421   0.00000  Uiso   1.00
H347   H     0.27156   0.10648   0.44090   0.00000  Uiso   1.00
H348   H     0.13764   0.79040   0.38316   0.00000  Uiso   1.00
H349   H     0.09911   0.11654   0.21691   0.00000  Uiso   1.00
H350   H     0.39217   0.19138   0.53495   0.00000  Uiso   1.00
H351   H     0.10976   0.52492   0.41319   0.00000  Uiso   1.00
H352   H     0.02852   0.21265   0.06262   0.00000  Uiso   1.00
H353   H     0.24583   0.71366   0.24277   0.00000  Uiso   1.00
H354   H     0.35000   0.80788   0.33389   0.00000  Uiso   1.00
H355   H     0.21607   0.49180   0.27616   0.00000  Uiso   1.00
H356   H     0.17755   0.81794   0.10991   0.00000  Uiso   1.00
H357   H     0.45583   0.94902   0.44810   0.00000  Uiso   1.00
H358   H     0.17342   0.28256   0.32634   0.00000  Uiso   1.00
H359   H     0.09219   0.97029   0.97578   0.00000  Uiso   1.00
O360   O     0.49118   0.13726   0.55332   0.00000  Uiso   1.00
O361   O     0.12066   0.26290   0.39355   0.00000  Uiso   1.00
O362   O     0.01409   0.16517   0.93363   0.00000  Uiso   1.00
N363   N     0.39286   0.12143   0.50199   0.00000  Uiso   1.00
N364   N     0.12883   0.49833   0.38816   0.00000  Uiso   1.00
N365   N     0.05287   0.14127   0.06041   0.00000  Uiso   1.00
N366   N     0.42711   0.99102   0.45526   0.00000  Uiso   1.00
N367   N     0.16308   0.36792   0.34143   0.00000  Uiso   1.00
N368   N     0.08712   0.01086   0.01368   0.00000  Uiso   1.00
