data_job_03343
_audit_creation_date              2018-12-19
_audit_creation_method            'Materials Studio'
_symmetry_space_group_name_H-M    'P1'
_symmetry_Int_Tables_number       1
_symmetry_cell_setting            triclinic
loop_
_symmetry_equiv_pos_as_xyz
  x,y,z
_cell_length_a                    21.2179
_cell_length_b                    21.2179
_cell_length_c                    11.0637
_cell_angle_alpha                 90.0000
_cell_angle_beta                  90.0000
_cell_angle_gamma                 90.0000
loop_
_atom_site_label
_atom_site_type_symbol
_atom_site_fract_x
_atom_site_fract_y
_atom_site_fract_z
_atom_site_U_iso_or_equiv
_atom_site_adp_type
_atom_site_occupancy
C1     C     0.04469   0.22687   0.29452   0.00000  Uiso   1.00
C2     C     0.06890   0.26289   0.18466   0.00000  Uiso   1.00
C3     C     0.10504   0.31738   0.18774   0.00000  Uiso   1.00
C4     C     0.12245   0.34317   0.07735   0.00000  Uiso   1.00
C5     C     0.16278   0.40333   0.92340   0.00000  Uiso   1.00
C6     C     0.97332   0.22311   0.27990   0.00000  Uiso   1.00
C7     C     0.92911   0.24414   0.36308   0.00000  Uiso   1.00
C8     C     0.86606   0.23643   0.33286   0.00000  Uiso   1.00
C9     C     0.75800   0.23479   0.32683   0.00000  Uiso   1.00
C10    C     0.06898   0.15961   0.28090   0.00000  Uiso   1.00
C11    C     0.10519   0.12725   0.36494   0.00000  Uiso   1.00
C12    C     0.12267   0.06607   0.33558   0.00000  Uiso   1.00
C13    C     0.16314   0.96585   0.33111   0.00000  Uiso   1.00
C14    C     0.01134   0.17578   0.09299   0.00000  Uiso   1.00
C15    C     0.05078   0.23513   0.07519   0.00000  Uiso   1.00
C16    C     0.06815   0.26085   0.96476   0.00000  Uiso   1.00
C17    C     0.10431   0.31536   0.96768   0.00000  Uiso   1.00
C18    C     0.95521   0.19536   0.17044   0.00000  Uiso   1.00
C19    C     0.89222   0.18761   0.14010   0.00000  Uiso   1.00
C20    C     0.84792   0.20863   0.22320   0.00000  Uiso   1.00
C21    C     0.05087   0.13186   0.17144   0.00000  Uiso   1.00
C22    C     0.06830   0.07072   0.14195   0.00000  Uiso   1.00
C23    C     0.10453   0.03827   0.22592   0.00000  Uiso   1.00
H24    H     0.05878   0.24848   0.37975   0.00000  Uiso   1.00
H25    H     0.11904   0.33884   0.27248   0.00000  Uiso   1.00
H26    H     0.94313   0.26561   0.44779   0.00000  Uiso   1.00
H27    H     0.11919   0.14874   0.44964   0.00000  Uiso   1.00
H28    H     0.17784   0.42680   0.10527   0.00000  Uiso   1.00
H29    H     0.80694   0.27237   0.47494   0.00000  Uiso   1.00
H30    H     0.17819   0.02592   0.47885   0.00000  Uiso   1.00
H31    H     0.99724   0.15417   0.00776   0.00000  Uiso   1.00
H32    H     0.05413   0.23936   0.88007   0.00000  Uiso   1.00
H33    H     0.87822   0.16613   0.05538   0.00000  Uiso   1.00
H34    H     0.05428   0.04926   0.05723   0.00000  Uiso   1.00
H35    H     0.12516   0.34606   0.78677   0.00000  Uiso   1.00
H36    H     0.75425   0.19162   0.15645   0.00000  Uiso   1.00
H37    H     0.12550   0.94518   0.16036   0.00000  Uiso   1.00
O38    O     0.19001   0.44418   0.86873   0.00000  Uiso   1.00
O39    O     0.70340   0.24156   0.35374   0.00000  Uiso   1.00
O40    O     0.19048   0.91823   0.35887   0.00000  Uiso   1.00
N41    N     0.15765   0.39610   0.04783   0.00000  Uiso   1.00
N42    N     0.81087   0.25172   0.39345   0.00000  Uiso   1.00
N43    N     0.15795   0.02131   0.39712   0.00000  Uiso   1.00
N44    N     0.12930   0.35265   0.87645   0.00000  Uiso   1.00
N45    N     0.78252   0.20828   0.22207   0.00000  Uiso   1.00
N46    N     0.12960   0.97786   0.22574   0.00000  Uiso   1.00
C47    C     0.95531   0.77313   0.29452   0.00000  Uiso   1.00
C48    C     0.93110   0.73711   0.18466   0.00000  Uiso   1.00
C49    C     0.89496   0.68262   0.18774   0.00000  Uiso   1.00
C50    C     0.87755   0.65683   0.07735   0.00000  Uiso   1.00
C51    C     0.83722   0.59667   0.92340   0.00000  Uiso   1.00
C52    C     0.02668   0.77689   0.27990   0.00000  Uiso   1.00
C53    C     0.07089   0.75586   0.36308   0.00000  Uiso   1.00
C54    C     0.13394   0.76357   0.33286   0.00000  Uiso   1.00
C55    C     0.24200   0.76521   0.32683   0.00000  Uiso   1.00
C56    C     0.93102   0.84039   0.28090   0.00000  Uiso   1.00
C57    C     0.89481   0.87275   0.36494   0.00000  Uiso   1.00
C58    C     0.87733   0.93393   0.33558   0.00000  Uiso   1.00
C59    C     0.83686   0.03415   0.33111   0.00000  Uiso   1.00
C60    C     0.98866   0.82422   0.09299   0.00000  Uiso   1.00
C61    C     0.94922   0.76487   0.07519   0.00000  Uiso   1.00
C62    C     0.93185   0.73915   0.96476   0.00000  Uiso   1.00
C63    C     0.89569   0.68464   0.96768   0.00000  Uiso   1.00
C64    C     0.04479   0.80464   0.17044   0.00000  Uiso   1.00
C65    C     0.10778   0.81239   0.14010   0.00000  Uiso   1.00
C66    C     0.15208   0.79137   0.22320   0.00000  Uiso   1.00
C67    C     0.94913   0.86814   0.17144   0.00000  Uiso   1.00
C68    C     0.93170   0.92928   0.14195   0.00000  Uiso   1.00
C69    C     0.89547   0.96173   0.22592   0.00000  Uiso   1.00
H70    H     0.94122   0.75152   0.37975   0.00000  Uiso   1.00
H71    H     0.88096   0.66116   0.27248   0.00000  Uiso   1.00
H72    H     0.05687   0.73439   0.44779   0.00000  Uiso   1.00
H73    H     0.88081   0.85126   0.44964   0.00000  Uiso   1.00
H74    H     0.82216   0.57320   0.10527   0.00000  Uiso   1.00
H75    H     0.19306   0.72763   0.47494   0.00000  Uiso   1.00
H76    H     0.82181   0.97408   0.47885   0.00000  Uiso   1.00
H77    H     0.00276   0.84583   0.00776   0.00000  Uiso   1.00
H78    H     0.94587   0.76064   0.88007   0.00000  Uiso   1.00
H79    H     0.12178   0.83387   0.05538   0.00000  Uiso   1.00
H80    H     0.94572   0.95074   0.05723   0.00000  Uiso   1.00
H81    H     0.87484   0.65394   0.78677   0.00000  Uiso   1.00
H82    H     0.24575   0.80838   0.15645   0.00000  Uiso   1.00
H83    H     0.87450   0.05482   0.16036   0.00000  Uiso   1.00
O84    O     0.80999   0.55582   0.86873   0.00000  Uiso   1.00
O85    O     0.29660   0.75844   0.35374   0.00000  Uiso   1.00
O86    O     0.80952   0.08177   0.35887   0.00000  Uiso   1.00
N87    N     0.84235   0.60390   0.04783   0.00000  Uiso   1.00
N88    N     0.18913   0.74828   0.39345   0.00000  Uiso   1.00
N89    N     0.84205   0.97869   0.39712   0.00000  Uiso   1.00
N90    N     0.87070   0.64735   0.87645   0.00000  Uiso   1.00
N91    N     0.21748   0.79172   0.22207   0.00000  Uiso   1.00
N92    N     0.87040   0.02214   0.22574   0.00000  Uiso   1.00
C93    C     0.27313   0.54469   0.29452   0.00000  Uiso   1.00
C94    C     0.23711   0.56890   0.18466   0.00000  Uiso   1.00
C95    C     0.18262   0.60504   0.18774   0.00000  Uiso   1.00
C96    C     0.15683   0.62245   0.07735   0.00000  Uiso   1.00
C97    C     0.09667   0.66278   0.92340   0.00000  Uiso   1.00
C98    C     0.27689   0.47332   0.27990   0.00000  Uiso   1.00
C99    C     0.25586   0.42911   0.36308   0.00000  Uiso   1.00
C100   C     0.26357   0.36606   0.33286   0.00000  Uiso   1.00
C101   C     0.26521   0.25800   0.32683   0.00000  Uiso   1.00
C102   C     0.34039   0.56898   0.28090   0.00000  Uiso   1.00
C103   C     0.37275   0.60519   0.36494   0.00000  Uiso   1.00
C104   C     0.43393   0.62267   0.33558   0.00000  Uiso   1.00
C105   C     0.53415   0.66314   0.33111   0.00000  Uiso   1.00
C106   C     0.32422   0.51134   0.09299   0.00000  Uiso   1.00
C107   C     0.26487   0.55078   0.07519   0.00000  Uiso   1.00
C108   C     0.23915   0.56815   0.96476   0.00000  Uiso   1.00
C109   C     0.18464   0.60431   0.96768   0.00000  Uiso   1.00
C110   C     0.30464   0.45521   0.17044   0.00000  Uiso   1.00
C111   C     0.31239   0.39222   0.14010   0.00000  Uiso   1.00
C112   C     0.29137   0.34792   0.22320   0.00000  Uiso   1.00
C113   C     0.36814   0.55087   0.17144   0.00000  Uiso   1.00
C114   C     0.42928   0.56830   0.14195   0.00000  Uiso   1.00
C115   C     0.46173   0.60453   0.22592   0.00000  Uiso   1.00
H116   H     0.25152   0.55878   0.37975   0.00000  Uiso   1.00
H117   H     0.16116   0.61904   0.27248   0.00000  Uiso   1.00
H118   H     0.23439   0.44313   0.44779   0.00000  Uiso   1.00
H119   H     0.35126   0.61919   0.44964   0.00000  Uiso   1.00
H120   H     0.07320   0.67784   0.10527   0.00000  Uiso   1.00
H121   H     0.22763   0.30694   0.47494   0.00000  Uiso   1.00
H122   H     0.47408   0.67819   0.47885   0.00000  Uiso   1.00
H123   H     0.34583   0.49724   0.00776   0.00000  Uiso   1.00
H124   H     0.26064   0.55413   0.88007   0.00000  Uiso   1.00
H125   H     0.33387   0.37822   0.05538   0.00000  Uiso   1.00
H126   H     0.45074   0.55428   0.05723   0.00000  Uiso   1.00
H127   H     0.15394   0.62516   0.78677   0.00000  Uiso   1.00
H128   H     0.30838   0.25425   0.15645   0.00000  Uiso   1.00
H129   H     0.55482   0.62550   0.16036   0.00000  Uiso   1.00
O130   O     0.05582   0.69001   0.86873   0.00000  Uiso   1.00
O131   O     0.25844   0.20340   0.35374   0.00000  Uiso   1.00
O132   O     0.58177   0.69048   0.35887   0.00000  Uiso   1.00
N133   N     0.10390   0.65765   0.04783   0.00000  Uiso   1.00
N134   N     0.24828   0.31087   0.39345   0.00000  Uiso   1.00
N135   N     0.47869   0.65795   0.39712   0.00000  Uiso   1.00
N136   N     0.14735   0.62930   0.87645   0.00000  Uiso   1.00
N137   N     0.29172   0.28252   0.22207   0.00000  Uiso   1.00
N138   N     0.52214   0.62960   0.22574   0.00000  Uiso   1.00
C139   C     0.72687   0.45531   0.29452   0.00000  Uiso   1.00
C140   C     0.76289   0.43110   0.18466   0.00000  Uiso   1.00
C141   C     0.81738   0.39496   0.18774   0.00000  Uiso   1.00
C142   C     0.84317   0.37755   0.07735   0.00000  Uiso   1.00
C143   C     0.90333   0.33722   0.92340   0.00000  Uiso   1.00
C144   C     0.72311   0.52668   0.27990   0.00000  Uiso   1.00
C145   C     0.74414   0.57089   0.36308   0.00000  Uiso   1.00
C146   C     0.73643   0.63394   0.33286   0.00000  Uiso   1.00
C147   C     0.73479   0.74200   0.32683   0.00000  Uiso   1.00
C148   C     0.65961   0.43102   0.28090   0.00000  Uiso   1.00
C149   C     0.62725   0.39481   0.36494   0.00000  Uiso   1.00
C150   C     0.56607   0.37733   0.33558   0.00000  Uiso   1.00
C151   C     0.46585   0.33686   0.33111   0.00000  Uiso   1.00
C152   C     0.67578   0.48866   0.09299   0.00000  Uiso   1.00
C153   C     0.73513   0.44922   0.07519   0.00000  Uiso   1.00
C154   C     0.76085   0.43185   0.96476   0.00000  Uiso   1.00
C155   C     0.81536   0.39569   0.96768   0.00000  Uiso   1.00
C156   C     0.69536   0.54479   0.17044   0.00000  Uiso   1.00
C157   C     0.68761   0.60778   0.14010   0.00000  Uiso   1.00
C158   C     0.70863   0.65208   0.22320   0.00000  Uiso   1.00
C159   C     0.63186   0.44913   0.17144   0.00000  Uiso   1.00
C160   C     0.57072   0.43170   0.14195   0.00000  Uiso   1.00
C161   C     0.53827   0.39547   0.22592   0.00000  Uiso   1.00
H162   H     0.74848   0.44122   0.37975   0.00000  Uiso   1.00
H163   H     0.83884   0.38096   0.27248   0.00000  Uiso   1.00
H164   H     0.76561   0.55687   0.44779   0.00000  Uiso   1.00
H165   H     0.64874   0.38081   0.44964   0.00000  Uiso   1.00
H166   H     0.92680   0.32216   0.10527   0.00000  Uiso   1.00
H167   H     0.77237   0.69306   0.47494   0.00000  Uiso   1.00
H168   H     0.52592   0.32181   0.47885   0.00000  Uiso   1.00
H169   H     0.65417   0.50276   0.00776   0.00000  Uiso   1.00
H170   H     0.73936   0.44587   0.88007   0.00000  Uiso   1.00
H171   H     0.66613   0.62178   0.05538   0.00000  Uiso   1.00
H172   H     0.54926   0.44572   0.05723   0.00000  Uiso   1.00
H173   H     0.84606   0.37484   0.78677   0.00000  Uiso   1.00
H174   H     0.69162   0.74575   0.15645   0.00000  Uiso   1.00
H175   H     0.44518   0.37450   0.16036   0.00000  Uiso   1.00
O176   O     0.94418   0.30999   0.86873   0.00000  Uiso   1.00
O177   O     0.74156   0.79660   0.35374   0.00000  Uiso   1.00
O178   O     0.41823   0.30952   0.35887   0.00000  Uiso   1.00
N179   N     0.89610   0.34235   0.04783   0.00000  Uiso   1.00
N180   N     0.75172   0.68913   0.39345   0.00000  Uiso   1.00
N181   N     0.52131   0.34205   0.39712   0.00000  Uiso   1.00
N182   N     0.85265   0.37070   0.87645   0.00000  Uiso   1.00
N183   N     0.70828   0.71748   0.22207   0.00000  Uiso   1.00
N184   N     0.47786   0.37040   0.22574   0.00000  Uiso   1.00
C185   C     0.45531   0.27313   0.70548   0.00000  Uiso   1.00
C186   C     0.43110   0.23711   0.81534   0.00000  Uiso   1.00
C187   C     0.39496   0.18262   0.81226   0.00000  Uiso   1.00
C188   C     0.37755   0.15683   0.92265   0.00000  Uiso   1.00
C189   C     0.33722   0.09667   0.07660   0.00000  Uiso   1.00
C190   C     0.52668   0.27689   0.72010   0.00000  Uiso   1.00
C191   C     0.57089   0.25586   0.63692   0.00000  Uiso   1.00
C192   C     0.63394   0.26357   0.66714   0.00000  Uiso   1.00
C193   C     0.74200   0.26521   0.67317   0.00000  Uiso   1.00
C194   C     0.43102   0.34039   0.71910   0.00000  Uiso   1.00
C195   C     0.39481   0.37275   0.63506   0.00000  Uiso   1.00
C196   C     0.37733   0.43393   0.66442   0.00000  Uiso   1.00
C197   C     0.33686   0.53415   0.66889   0.00000  Uiso   1.00
C198   C     0.48866   0.32422   0.90701   0.00000  Uiso   1.00
C199   C     0.44922   0.26487   0.92481   0.00000  Uiso   1.00
C200   C     0.43185   0.23915   0.03524   0.00000  Uiso   1.00
C201   C     0.39569   0.18464   0.03232   0.00000  Uiso   1.00
C202   C     0.54479   0.30464   0.82956   0.00000  Uiso   1.00
C203   C     0.60778   0.31239   0.85990   0.00000  Uiso   1.00
C204   C     0.65208   0.29137   0.77680   0.00000  Uiso   1.00
C205   C     0.44913   0.36814   0.82856   0.00000  Uiso   1.00
C206   C     0.43170   0.42928   0.85805   0.00000  Uiso   1.00
C207   C     0.39547   0.46173   0.77408   0.00000  Uiso   1.00
H208   H     0.44122   0.25152   0.62025   0.00000  Uiso   1.00
H209   H     0.38096   0.16116   0.72752   0.00000  Uiso   1.00
H210   H     0.55687   0.23439   0.55221   0.00000  Uiso   1.00
H211   H     0.38081   0.35126   0.55036   0.00000  Uiso   1.00
H212   H     0.32216   0.07320   0.89473   0.00000  Uiso   1.00
H213   H     0.69306   0.22763   0.52506   0.00000  Uiso   1.00
H214   H     0.32181   0.47408   0.52115   0.00000  Uiso   1.00
H215   H     0.50276   0.34583   0.99224   0.00000  Uiso   1.00
H216   H     0.44587   0.26064   0.11993   0.00000  Uiso   1.00
H217   H     0.62178   0.33387   0.94462   0.00000  Uiso   1.00
H218   H     0.44572   0.45074   0.94277   0.00000  Uiso   1.00
H219   H     0.37484   0.15394   0.21323   0.00000  Uiso   1.00
H220   H     0.74575   0.30838   0.84355   0.00000  Uiso   1.00
H221   H     0.37450   0.55482   0.83964   0.00000  Uiso   1.00
O222   O     0.30999   0.05582   0.13127   0.00000  Uiso   1.00
O223   O     0.79660   0.25844   0.64626   0.00000  Uiso   1.00
O224   O     0.30952   0.58177   0.64113   0.00000  Uiso   1.00
N225   N     0.34235   0.10390   0.95217   0.00000  Uiso   1.00
N226   N     0.68913   0.24828   0.60655   0.00000  Uiso   1.00
N227   N     0.34205   0.47869   0.60288   0.00000  Uiso   1.00
N228   N     0.37070   0.14735   0.12355   0.00000  Uiso   1.00
N229   N     0.71748   0.29172   0.77793   0.00000  Uiso   1.00
N230   N     0.37040   0.52214   0.77426   0.00000  Uiso   1.00
C231   C     0.54469   0.72687   0.70548   0.00000  Uiso   1.00
C232   C     0.56890   0.76289   0.81534   0.00000  Uiso   1.00
C233   C     0.60504   0.81738   0.81226   0.00000  Uiso   1.00
C234   C     0.62245   0.84317   0.92265   0.00000  Uiso   1.00
C235   C     0.66278   0.90333   0.07660   0.00000  Uiso   1.00
C236   C     0.47332   0.72311   0.72010   0.00000  Uiso   1.00
C237   C     0.42911   0.74414   0.63692   0.00000  Uiso   1.00
C238   C     0.36606   0.73643   0.66714   0.00000  Uiso   1.00
C239   C     0.25800   0.73479   0.67317   0.00000  Uiso   1.00
C240   C     0.56898   0.65961   0.71910   0.00000  Uiso   1.00
C241   C     0.60519   0.62725   0.63506   0.00000  Uiso   1.00
C242   C     0.62267   0.56607   0.66442   0.00000  Uiso   1.00
C243   C     0.66314   0.46585   0.66889   0.00000  Uiso   1.00
C244   C     0.51134   0.67578   0.90701   0.00000  Uiso   1.00
C245   C     0.55078   0.73513   0.92481   0.00000  Uiso   1.00
C246   C     0.56815   0.76085   0.03524   0.00000  Uiso   1.00
C247   C     0.60431   0.81536   0.03232   0.00000  Uiso   1.00
C248   C     0.45521   0.69536   0.82956   0.00000  Uiso   1.00
C249   C     0.39222   0.68761   0.85990   0.00000  Uiso   1.00
C250   C     0.34792   0.70863   0.77680   0.00000  Uiso   1.00
C251   C     0.55087   0.63186   0.82856   0.00000  Uiso   1.00
C252   C     0.56830   0.57072   0.85805   0.00000  Uiso   1.00
C253   C     0.60453   0.53827   0.77408   0.00000  Uiso   1.00
H254   H     0.55878   0.74848   0.62025   0.00000  Uiso   1.00
H255   H     0.61904   0.83884   0.72752   0.00000  Uiso   1.00
H256   H     0.44313   0.76561   0.55221   0.00000  Uiso   1.00
H257   H     0.61919   0.64874   0.55036   0.00000  Uiso   1.00
H258   H     0.67784   0.92680   0.89473   0.00000  Uiso   1.00
H259   H     0.30694   0.77237   0.52506   0.00000  Uiso   1.00
H260   H     0.67819   0.52592   0.52115   0.00000  Uiso   1.00
H261   H     0.49724   0.65417   0.99224   0.00000  Uiso   1.00
H262   H     0.55413   0.73936   0.11993   0.00000  Uiso   1.00
H263   H     0.37822   0.66613   0.94462   0.00000  Uiso   1.00
H264   H     0.55428   0.54926   0.94277   0.00000  Uiso   1.00
H265   H     0.62516   0.84606   0.21323   0.00000  Uiso   1.00
H266   H     0.25425   0.69162   0.84355   0.00000  Uiso   1.00
H267   H     0.62550   0.44518   0.83964   0.00000  Uiso   1.00
O268   O     0.69001   0.94418   0.13127   0.00000  Uiso   1.00
O269   O     0.20340   0.74156   0.64626   0.00000  Uiso   1.00
O270   O     0.69048   0.41823   0.64113   0.00000  Uiso   1.00
N271   N     0.65765   0.89610   0.95217   0.00000  Uiso   1.00
N272   N     0.31087   0.75172   0.60655   0.00000  Uiso   1.00
N273   N     0.65795   0.52131   0.60288   0.00000  Uiso   1.00
N274   N     0.62930   0.85265   0.12355   0.00000  Uiso   1.00
N275   N     0.28252   0.70828   0.77793   0.00000  Uiso   1.00
N276   N     0.62960   0.47786   0.77426   0.00000  Uiso   1.00
C277   C     0.22687   0.95531   0.70548   0.00000  Uiso   1.00
C278   C     0.26289   0.93110   0.81534   0.00000  Uiso   1.00
C279   C     0.31738   0.89496   0.81226   0.00000  Uiso   1.00
C280   C     0.34317   0.87755   0.92265   0.00000  Uiso   1.00
C281   C     0.40333   0.83722   0.07660   0.00000  Uiso   1.00
C282   C     0.22311   0.02668   0.72010   0.00000  Uiso   1.00
C283   C     0.24414   0.07089   0.63692   0.00000  Uiso   1.00
C284   C     0.23643   0.13394   0.66714   0.00000  Uiso   1.00
C285   C     0.23479   0.24200   0.67317   0.00000  Uiso   1.00
C286   C     0.15961   0.93102   0.71910   0.00000  Uiso   1.00
C287   C     0.12725   0.89481   0.63506   0.00000  Uiso   1.00
C288   C     0.06607   0.87733   0.66442   0.00000  Uiso   1.00
C289   C     0.96585   0.83686   0.66889   0.00000  Uiso   1.00
C290   C     0.17578   0.98866   0.90701   0.00000  Uiso   1.00
C291   C     0.23513   0.94922   0.92481   0.00000  Uiso   1.00
C292   C     0.26085   0.93185   0.03524   0.00000  Uiso   1.00
C293   C     0.31536   0.89569   0.03232   0.00000  Uiso   1.00
C294   C     0.19536   0.04479   0.82956   0.00000  Uiso   1.00
C295   C     0.18761   0.10778   0.85990   0.00000  Uiso   1.00
C296   C     0.20863   0.15208   0.77680   0.00000  Uiso   1.00
C297   C     0.13186   0.94913   0.82856   0.00000  Uiso   1.00
C298   C     0.07072   0.93170   0.85805   0.00000  Uiso   1.00
C299   C     0.03827   0.89547   0.77408   0.00000  Uiso   1.00
H300   H     0.24848   0.94122   0.62025   0.00000  Uiso   1.00
H301   H     0.33884   0.88096   0.72752   0.00000  Uiso   1.00
H302   H     0.26561   0.05687   0.55221   0.00000  Uiso   1.00
H303   H     0.14874   0.88081   0.55036   0.00000  Uiso   1.00
H304   H     0.42680   0.82216   0.89473   0.00000  Uiso   1.00
H305   H     0.27237   0.19306   0.52506   0.00000  Uiso   1.00
H306   H     0.02592   0.82181   0.52115   0.00000  Uiso   1.00
H307   H     0.15417   0.00276   0.99224   0.00000  Uiso   1.00
H308   H     0.23936   0.94587   0.11993   0.00000  Uiso   1.00
H309   H     0.16613   0.12178   0.94462   0.00000  Uiso   1.00
H310   H     0.04926   0.94572   0.94277   0.00000  Uiso   1.00
H311   H     0.34606   0.87484   0.21323   0.00000  Uiso   1.00
H312   H     0.19162   0.24575   0.84355   0.00000  Uiso   1.00
H313   H     0.94518   0.87450   0.83964   0.00000  Uiso   1.00
O314   O     0.44418   0.80999   0.13127   0.00000  Uiso   1.00
O315   O     0.24156   0.29660   0.64626   0.00000  Uiso   1.00
O316   O     0.91823   0.80952   0.64113   0.00000  Uiso   1.00
N317   N     0.39610   0.84235   0.95217   0.00000  Uiso   1.00
N318   N     0.25172   0.18913   0.60655   0.00000  Uiso   1.00
N319   N     0.02131   0.84205   0.60288   0.00000  Uiso   1.00
N320   N     0.35265   0.87070   0.12355   0.00000  Uiso   1.00
N321   N     0.20828   0.21748   0.77793   0.00000  Uiso   1.00
N322   N     0.97786   0.87040   0.77426   0.00000  Uiso   1.00
C323   C     0.77313   0.04469   0.70548   0.00000  Uiso   1.00
C324   C     0.73711   0.06890   0.81534   0.00000  Uiso   1.00
C325   C     0.68262   0.10504   0.81226   0.00000  Uiso   1.00
C326   C     0.65683   0.12245   0.92265   0.00000  Uiso   1.00
C327   C     0.59667   0.16278   0.07660   0.00000  Uiso   1.00
C328   C     0.77689   0.97332   0.72010   0.00000  Uiso   1.00
C329   C     0.75586   0.92911   0.63692   0.00000  Uiso   1.00
C330   C     0.76357   0.86606   0.66714   0.00000  Uiso   1.00
C331   C     0.76521   0.75800   0.67317   0.00000  Uiso   1.00
C332   C     0.84039   0.06898   0.71910   0.00000  Uiso   1.00
C333   C     0.87275   0.10519   0.63506   0.00000  Uiso   1.00
C334   C     0.93393   0.12267   0.66442   0.00000  Uiso   1.00
C335   C     0.03415   0.16314   0.66889   0.00000  Uiso   1.00
C336   C     0.82422   0.01134   0.90701   0.00000  Uiso   1.00
C337   C     0.76487   0.05078   0.92481   0.00000  Uiso   1.00
C338   C     0.73915   0.06815   0.03524   0.00000  Uiso   1.00
C339   C     0.68464   0.10431   0.03232   0.00000  Uiso   1.00
C340   C     0.80464   0.95521   0.82956   0.00000  Uiso   1.00
C341   C     0.81239   0.89222   0.85990   0.00000  Uiso   1.00
C342   C     0.79137   0.84792   0.77680   0.00000  Uiso   1.00
C343   C     0.86814   0.05087   0.82856   0.00000  Uiso   1.00
C344   C     0.92928   0.06830   0.85805   0.00000  Uiso   1.00
C345   C     0.96173   0.10453   0.77408   0.00000  Uiso   1.00
H346   H     0.75152   0.05878   0.62025   0.00000  Uiso   1.00
H347   H     0.66116   0.11904   0.72752   0.00000  Uiso   1.00
H348   H     0.73439   0.94313   0.55221   0.00000  Uiso   1.00
H349   H     0.85126   0.11919   0.55036   0.00000  Uiso   1.00
H350   H     0.57320   0.17784   0.89473   0.00000  Uiso   1.00
H351   H     0.72763   0.80694   0.52506   0.00000  Uiso   1.00
H352   H     0.97408   0.17819   0.52115   0.00000  Uiso   1.00
H353   H     0.84583   0.99724   0.99224   0.00000  Uiso   1.00
H354   H     0.76064   0.05413   0.11993   0.00000  Uiso   1.00
H355   H     0.83387   0.87822   0.94462   0.00000  Uiso   1.00
H356   H     0.95074   0.05428   0.94277   0.00000  Uiso   1.00
H357   H     0.65394   0.12516   0.21323   0.00000  Uiso   1.00
H358   H     0.80838   0.75425   0.84355   0.00000  Uiso   1.00
H359   H     0.05482   0.12550   0.83964   0.00000  Uiso   1.00
O360   O     0.55582   0.19001   0.13127   0.00000  Uiso   1.00
O361   O     0.75844   0.70340   0.64626   0.00000  Uiso   1.00
O362   O     0.08177   0.19048   0.64113   0.00000  Uiso   1.00
N363   N     0.60390   0.15765   0.95217   0.00000  Uiso   1.00
N364   N     0.74828   0.81087   0.60655   0.00000  Uiso   1.00
N365   N     0.97869   0.15795   0.60288   0.00000  Uiso   1.00
N366   N     0.64735   0.12930   0.12355   0.00000  Uiso   1.00
N367   N     0.79172   0.78252   0.77793   0.00000  Uiso   1.00
N368   N     0.02214   0.12960   0.77426   0.00000  Uiso   1.00
