data_job_03146
_audit_creation_date              2018-12-19
_audit_creation_method            'Materials Studio'
_symmetry_space_group_name_H-M    'P1'
_symmetry_Int_Tables_number       1
_symmetry_cell_setting            triclinic
loop_
_symmetry_equiv_pos_as_xyz
  x,y,z
_cell_length_a                    12.5794
_cell_length_b                    12.5794
_cell_length_c                    26.4425
_cell_angle_alpha                 90.0000
_cell_angle_beta                  90.0000
_cell_angle_gamma                 120.0000
loop_
_atom_site_label
_atom_site_type_symbol
_atom_site_fract_x
_atom_site_fract_y
_atom_site_fract_z
_atom_site_U_iso_or_equiv
_atom_site_adp_type
_atom_site_occupancy
C1     C     0.65619   0.95919   0.87844   0.00000  Uiso   1.00
C2     C     0.69044   0.09370   0.88124   0.00000  Uiso   1.00
C3     C     0.79166   0.18607   0.90616   0.00000  Uiso   1.00
C4     C     0.80690   0.30320   0.90430   0.00000  Uiso   1.00
C5     C     0.87268   0.50844   0.91260   0.00000  Uiso   1.00
C6     C     0.52589   0.88579   0.89914   0.00000  Uiso   1.00
C7     C     0.48877   0.80333   0.93910   0.00000  Uiso   1.00
C8     C     0.36549   0.74542   0.95231   0.00000  Uiso   1.00
C9     C     0.17579   0.62780   0.98838   0.00000  Uiso   1.00
C10    C     0.64744   0.92805   0.82231   0.00000  Uiso   1.00
C11    C     0.71249   0.88110   0.79767   0.00000  Uiso   1.00
C12    C     0.69152   0.85875   0.74618   0.00000  Uiso   1.00
C13    C     0.69054   0.80676   0.66296   0.00000  Uiso   1.00
C14    C     0.50327   0.00294   0.83083   0.00000  Uiso   1.00
C15    C     0.60737   0.11747   0.85538   0.00000  Uiso   1.00
C16    C     0.62247   0.23449   0.85348   0.00000  Uiso   1.00
C17    C     0.72369   0.32702   0.87839   0.00000  Uiso   1.00
C18    C     0.44283   0.90955   0.87328   0.00000  Uiso   1.00
C19    C     0.31958   0.85174   0.88643   0.00000  Uiso   1.00
C20    C     0.28227   0.76923   0.92640   0.00000  Uiso   1.00
C21    C     0.56438   0.95182   0.79645   0.00000  Uiso   1.00
C22    C     0.54330   0.92953   0.74499   0.00000  Uiso   1.00
C23    C     0.60830   0.88256   0.72028   0.00000  Uiso   1.00
H24    H     0.72085   0.94067   0.89858   0.00000  Uiso   1.00
H25    H     0.85591   0.16764   0.92617   0.00000  Uiso   1.00
H26    H     0.55307   0.78495   0.95911   0.00000  Uiso   1.00
H27    H     0.77675   0.86272   0.81770   0.00000  Uiso   1.00
H28    H     0.96900   0.42974   0.94538   0.00000  Uiso   1.00
H29    H     0.33042   0.62278   0.01481   0.00000  Uiso   1.00
H30    H     0.80211   0.78678   0.71662   0.00000  Uiso   1.00
H31    H     0.43860   0.02145   0.81069   0.00000  Uiso   1.00
H32    H     0.55817   0.25285   0.83346   0.00000  Uiso   1.00
H33    H     0.25532   0.87016   0.86640   0.00000  Uiso   1.00
H34    H     0.47901   0.94793   0.72499   0.00000  Uiso   1.00
H35    H     0.72734   0.49890   0.87013   0.00000  Uiso   1.00
H36    H     0.08875   0.69194   0.93957   0.00000  Uiso   1.00
H37    H     0.56045   0.85594   0.64138   0.00000  Uiso   1.00
O38    O     0.93190   0.61508   0.92433   0.00000  Uiso   1.00
O39    O     0.09411   0.55637   0.01543   0.00000  Uiso   1.00
O40    O     0.71296   0.77154   0.62420   0.00000  Uiso   1.00
N41    N     0.89573   0.41427   0.92453   0.00000  Uiso   1.00
N42    N     0.29870   0.65982   0.98946   0.00000  Uiso   1.00
N43    N     0.73966   0.81312   0.71068   0.00000  Uiso   1.00
N44    N     0.76569   0.45148   0.88405   0.00000  Uiso   1.00
N45    N     0.16866   0.69704   0.94897   0.00000  Uiso   1.00
N46    N     0.60963   0.85033   0.67019   0.00000  Uiso   1.00
C47    C     0.04081   0.69701   0.54511   0.00000  Uiso   1.00
C48    C     0.90630   0.59674   0.54791   0.00000  Uiso   1.00
C49    C     0.81393   0.60559   0.57282   0.00000  Uiso   1.00
C50    C     0.69680   0.50370   0.57096   0.00000  Uiso   1.00
C51    C     0.49156   0.36424   0.57927   0.00000  Uiso   1.00
C52    C     0.11421   0.64011   0.56581   0.00000  Uiso   1.00
C53    C     0.19667   0.68544   0.60577   0.00000  Uiso   1.00
C54    C     0.25458   0.62007   0.61897   0.00000  Uiso   1.00
C55    C     0.37220   0.54799   0.65505   0.00000  Uiso   1.00
C56    C     0.07195   0.71939   0.48898   0.00000  Uiso   1.00
C57    C     0.11890   0.83138   0.46434   0.00000  Uiso   1.00
C58    C     0.14125   0.83276   0.41285   0.00000  Uiso   1.00
C59    C     0.19324   0.88377   0.32963   0.00000  Uiso   1.00
C60    C     0.99706   0.50032   0.49749   0.00000  Uiso   1.00
C61    C     0.88253   0.48991   0.52205   0.00000  Uiso   1.00
C62    C     0.76551   0.38798   0.52015   0.00000  Uiso   1.00
C63    C     0.67298   0.39668   0.54505   0.00000  Uiso   1.00
C64    C     0.09045   0.53328   0.53995   0.00000  Uiso   1.00
C65    C     0.14826   0.46783   0.55309   0.00000  Uiso   1.00
C66    C     0.23077   0.51304   0.59307   0.00000  Uiso   1.00
C67    C     0.04818   0.61256   0.46311   0.00000  Uiso   1.00
C68    C     0.07047   0.61377   0.41166   0.00000  Uiso   1.00
C69    C     0.11744   0.72574   0.38694   0.00000  Uiso   1.00
H70    H     0.05933   0.78018   0.56524   0.00000  Uiso   1.00
H71    H     0.83236   0.68828   0.59284   0.00000  Uiso   1.00
H72    H     0.21505   0.76812   0.62577   0.00000  Uiso   1.00
H73    H     0.13728   0.91403   0.48436   0.00000  Uiso   1.00
H74    H     0.57026   0.53926   0.61204   0.00000  Uiso   1.00
H75    H     0.37722   0.70763   0.68148   0.00000  Uiso   1.00
H76    H     0.21322   0.01533   0.38329   0.00000  Uiso   1.00
H77    H     0.97855   0.41715   0.47736   0.00000  Uiso   1.00
H78    H     0.74715   0.30532   0.50013   0.00000  Uiso   1.00
H79    H     0.12984   0.38517   0.53307   0.00000  Uiso   1.00
H80    H     0.05207   0.53108   0.39166   0.00000  Uiso   1.00
H81    H     0.50110   0.22843   0.53680   0.00000  Uiso   1.00
H82    H     0.30806   0.39682   0.60624   0.00000  Uiso   1.00
H83    H     0.14406   0.70450   0.30804   0.00000  Uiso   1.00
O84    O     0.38492   0.31682   0.59100   0.00000  Uiso   1.00
O85    O     0.44363   0.53774   0.68209   0.00000  Uiso   1.00
O86    O     0.22846   0.94142   0.29087   0.00000  Uiso   1.00
N87    N     0.58573   0.48146   0.59120   0.00000  Uiso   1.00
N88    N     0.34018   0.63887   0.65613   0.00000  Uiso   1.00
N89    N     0.18688   0.92655   0.37734   0.00000  Uiso   1.00
N90    N     0.54852   0.31421   0.55071   0.00000  Uiso   1.00
N91    N     0.30296   0.47162   0.61564   0.00000  Uiso   1.00
N92    N     0.14967   0.75929   0.33685   0.00000  Uiso   1.00
C93    C     0.30299   0.34381   0.21177   0.00000  Uiso   1.00
C94    C     0.40326   0.30956   0.21458   0.00000  Uiso   1.00
C95    C     0.39441   0.20834   0.23949   0.00000  Uiso   1.00
C96    C     0.49630   0.19310   0.23763   0.00000  Uiso   1.00
C97    C     0.63576   0.12732   0.24594   0.00000  Uiso   1.00
C98    C     0.35989   0.47411   0.23248   0.00000  Uiso   1.00
C99    C     0.31456   0.51123   0.27244   0.00000  Uiso   1.00
C100   C     0.37993   0.63451   0.28564   0.00000  Uiso   1.00
C101   C     0.45201   0.82421   0.32171   0.00000  Uiso   1.00
C102   C     0.28061   0.35256   0.15564   0.00000  Uiso   1.00
C103   C     0.16862   0.28751   0.13100   0.00000  Uiso   1.00
C104   C     0.16724   0.30848   0.07952   0.00000  Uiso   1.00
C105   C     0.11623   0.30946   0.99630   0.00000  Uiso   1.00
C106   C     0.49968   0.49673   0.16416   0.00000  Uiso   1.00
C107   C     0.51009   0.39263   0.18871   0.00000  Uiso   1.00
C108   C     0.61202   0.37753   0.18681   0.00000  Uiso   1.00
C109   C     0.60332   0.27631   0.21172   0.00000  Uiso   1.00
C110   C     0.46672   0.55717   0.20662   0.00000  Uiso   1.00
C111   C     0.53217   0.68042   0.21976   0.00000  Uiso   1.00
C112   C     0.48696   0.71773   0.25973   0.00000  Uiso   1.00
C113   C     0.38744   0.43562   0.12978   0.00000  Uiso   1.00
C114   C     0.38623   0.45670   0.07833   0.00000  Uiso   1.00
C115   C     0.27426   0.39170   0.05361   0.00000  Uiso   1.00
H116   H     0.21982   0.27915   0.23191   0.00000  Uiso   1.00
H117   H     0.31172   0.14409   0.25950   0.00000  Uiso   1.00
H118   H     0.23188   0.44693   0.29244   0.00000  Uiso   1.00
H119   H     0.08597   0.22325   0.15103   0.00000  Uiso   1.00
H120   H     0.46074   0.03100   0.27871   0.00000  Uiso   1.00
H121   H     0.29237   0.66958   0.34815   0.00000  Uiso   1.00
H122   H     0.98467   0.19789   0.04995   0.00000  Uiso   1.00
H123   H     0.58285   0.56140   0.14403   0.00000  Uiso   1.00
H124   H     0.69468   0.44183   0.16680   0.00000  Uiso   1.00
H125   H     0.61483   0.74468   0.19974   0.00000  Uiso   1.00
H126   H     0.46892   0.52099   0.05832   0.00000  Uiso   1.00
H127   H     0.77157   0.27266   0.20347   0.00000  Uiso   1.00
H128   H     0.60318   0.91125   0.27291   0.00000  Uiso   1.00
H129   H     0.29550   0.43955   0.97471   0.00000  Uiso   1.00
O130   O     0.68318   0.06810   0.25767   0.00000  Uiso   1.00
O131   O     0.46226   0.90589   0.34876   0.00000  Uiso   1.00
O132   O     0.05858   0.28704   0.95754   0.00000  Uiso   1.00
N133   N     0.51854   0.10427   0.25787   0.00000  Uiso   1.00
N134   N     0.36113   0.70130   0.32279   0.00000  Uiso   1.00
N135   N     0.07345   0.26034   0.04401   0.00000  Uiso   1.00
N136   N     0.68579   0.23431   0.21738   0.00000  Uiso   1.00
N137   N     0.52838   0.83134   0.28231   0.00000  Uiso   1.00
N138   N     0.24071   0.39037   0.00352   0.00000  Uiso   1.00
C139   C     0.95919   0.65619   0.12156   0.00000  Uiso   1.00
C140   C     0.09370   0.69044   0.11876   0.00000  Uiso   1.00
C141   C     0.18607   0.79166   0.09384   0.00000  Uiso   1.00
C142   C     0.30320   0.80690   0.09570   0.00000  Uiso   1.00
C143   C     0.50844   0.87268   0.08740   0.00000  Uiso   1.00
C144   C     0.88579   0.52589   0.10086   0.00000  Uiso   1.00
C145   C     0.80333   0.48877   0.06090   0.00000  Uiso   1.00
C146   C     0.74542   0.36549   0.04769   0.00000  Uiso   1.00
C147   C     0.62780   0.17579   0.01162   0.00000  Uiso   1.00
C148   C     0.92805   0.64744   0.17769   0.00000  Uiso   1.00
C149   C     0.88110   0.71249   0.20233   0.00000  Uiso   1.00
C150   C     0.85875   0.69152   0.25382   0.00000  Uiso   1.00
C151   C     0.80676   0.69054   0.33704   0.00000  Uiso   1.00
C152   C     0.00294   0.50327   0.16917   0.00000  Uiso   1.00
C153   C     0.11747   0.60737   0.14462   0.00000  Uiso   1.00
C154   C     0.23449   0.62247   0.14652   0.00000  Uiso   1.00
C155   C     0.32702   0.72369   0.12161   0.00000  Uiso   1.00
C156   C     0.90955   0.44283   0.12672   0.00000  Uiso   1.00
C157   C     0.85174   0.31958   0.11357   0.00000  Uiso   1.00
C158   C     0.76923   0.28227   0.07360   0.00000  Uiso   1.00
C159   C     0.95182   0.56438   0.20355   0.00000  Uiso   1.00
C160   C     0.92953   0.54330   0.25501   0.00000  Uiso   1.00
C161   C     0.88256   0.60830   0.27972   0.00000  Uiso   1.00
H162   H     0.94067   0.72085   0.10142   0.00000  Uiso   1.00
H163   H     0.16764   0.85591   0.07383   0.00000  Uiso   1.00
H164   H     0.78495   0.55307   0.04089   0.00000  Uiso   1.00
H165   H     0.86272   0.77675   0.18230   0.00000  Uiso   1.00
H166   H     0.42974   0.96900   0.05462   0.00000  Uiso   1.00
H167   H     0.62278   0.33042   0.98519   0.00000  Uiso   1.00
H168   H     0.78678   0.80211   0.28338   0.00000  Uiso   1.00
H169   H     0.02145   0.43860   0.18931   0.00000  Uiso   1.00
H170   H     0.25285   0.55817   0.16654   0.00000  Uiso   1.00
H171   H     0.87016   0.25532   0.13360   0.00000  Uiso   1.00
H172   H     0.94793   0.47901   0.27501   0.00000  Uiso   1.00
H173   H     0.49890   0.72734   0.12987   0.00000  Uiso   1.00
H174   H     0.69194   0.08875   0.06043   0.00000  Uiso   1.00
H175   H     0.85594   0.56045   0.35862   0.00000  Uiso   1.00
O176   O     0.61508   0.93190   0.07567   0.00000  Uiso   1.00
O177   O     0.55637   0.09411   0.98457   0.00000  Uiso   1.00
O178   O     0.77154   0.71296   0.37580   0.00000  Uiso   1.00
N179   N     0.41427   0.89573   0.07547   0.00000  Uiso   1.00
N180   N     0.65982   0.29870   0.01054   0.00000  Uiso   1.00
N181   N     0.81312   0.73966   0.28932   0.00000  Uiso   1.00
N182   N     0.45148   0.76569   0.11595   0.00000  Uiso   1.00
N183   N     0.69704   0.16866   0.05103   0.00000  Uiso   1.00
N184   N     0.85033   0.60963   0.32981   0.00000  Uiso   1.00
C185   C     0.69701   0.04081   0.45489   0.00000  Uiso   1.00
C186   C     0.59674   0.90630   0.45209   0.00000  Uiso   1.00
C187   C     0.60559   0.81393   0.42718   0.00000  Uiso   1.00
C188   C     0.50370   0.69680   0.42904   0.00000  Uiso   1.00
C189   C     0.36424   0.49156   0.42073   0.00000  Uiso   1.00
C190   C     0.64011   0.11421   0.43419   0.00000  Uiso   1.00
C191   C     0.68544   0.19667   0.39423   0.00000  Uiso   1.00
C192   C     0.62007   0.25458   0.38103   0.00000  Uiso   1.00
C193   C     0.54799   0.37220   0.34495   0.00000  Uiso   1.00
C194   C     0.71939   0.07195   0.51102   0.00000  Uiso   1.00
C195   C     0.83138   0.11890   0.53566   0.00000  Uiso   1.00
C196   C     0.83276   0.14125   0.58715   0.00000  Uiso   1.00
C197   C     0.88377   0.19324   0.67037   0.00000  Uiso   1.00
C198   C     0.50032   0.99706   0.50251   0.00000  Uiso   1.00
C199   C     0.48991   0.88253   0.47795   0.00000  Uiso   1.00
C200   C     0.38798   0.76551   0.47985   0.00000  Uiso   1.00
C201   C     0.39668   0.67298   0.45495   0.00000  Uiso   1.00
C202   C     0.53328   0.09045   0.46005   0.00000  Uiso   1.00
C203   C     0.46783   0.14826   0.44691   0.00000  Uiso   1.00
C204   C     0.51304   0.23077   0.40693   0.00000  Uiso   1.00
C205   C     0.61256   0.04818   0.53689   0.00000  Uiso   1.00
C206   C     0.61377   0.07047   0.58834   0.00000  Uiso   1.00
C207   C     0.72574   0.11744   0.61306   0.00000  Uiso   1.00
H208   H     0.78018   0.05933   0.43476   0.00000  Uiso   1.00
H209   H     0.68828   0.83236   0.40716   0.00000  Uiso   1.00
H210   H     0.76812   0.21505   0.37423   0.00000  Uiso   1.00
H211   H     0.91403   0.13728   0.51564   0.00000  Uiso   1.00
H212   H     0.53926   0.57026   0.38796   0.00000  Uiso   1.00
H213   H     0.70763   0.37722   0.31852   0.00000  Uiso   1.00
H214   H     0.01533   0.21322   0.61671   0.00000  Uiso   1.00
H215   H     0.41715   0.97855   0.52264   0.00000  Uiso   1.00
H216   H     0.30532   0.74715   0.49987   0.00000  Uiso   1.00
H217   H     0.38517   0.12984   0.46693   0.00000  Uiso   1.00
H218   H     0.53108   0.05207   0.60834   0.00000  Uiso   1.00
H219   H     0.22843   0.50110   0.46320   0.00000  Uiso   1.00
H220   H     0.39682   0.30806   0.39376   0.00000  Uiso   1.00
H221   H     0.70450   0.14406   0.69196   0.00000  Uiso   1.00
O222   O     0.31682   0.38492   0.40900   0.00000  Uiso   1.00
O223   O     0.53774   0.44363   0.31791   0.00000  Uiso   1.00
O224   O     0.94142   0.22846   0.70913   0.00000  Uiso   1.00
N225   N     0.48146   0.58573   0.40880   0.00000  Uiso   1.00
N226   N     0.63887   0.34018   0.34387   0.00000  Uiso   1.00
N227   N     0.92655   0.18688   0.62266   0.00000  Uiso   1.00
N228   N     0.31421   0.54852   0.44929   0.00000  Uiso   1.00
N229   N     0.47162   0.30296   0.38436   0.00000  Uiso   1.00
N230   N     0.75929   0.14967   0.66315   0.00000  Uiso   1.00
C231   C     0.34381   0.30299   0.78823   0.00000  Uiso   1.00
C232   C     0.30956   0.40326   0.78542   0.00000  Uiso   1.00
C233   C     0.20834   0.39441   0.76051   0.00000  Uiso   1.00
C234   C     0.19310   0.49630   0.76237   0.00000  Uiso   1.00
C235   C     0.12732   0.63576   0.75406   0.00000  Uiso   1.00
C236   C     0.47411   0.35989   0.76752   0.00000  Uiso   1.00
C237   C     0.51123   0.31456   0.72756   0.00000  Uiso   1.00
C238   C     0.63451   0.37993   0.71436   0.00000  Uiso   1.00
C239   C     0.82421   0.45201   0.67829   0.00000  Uiso   1.00
C240   C     0.35256   0.28061   0.84436   0.00000  Uiso   1.00
C241   C     0.28751   0.16862   0.86900   0.00000  Uiso   1.00
C242   C     0.30848   0.16724   0.92048   0.00000  Uiso   1.00
C243   C     0.30946   0.11623   0.00370   0.00000  Uiso   1.00
C244   C     0.49673   0.49968   0.83584   0.00000  Uiso   1.00
C245   C     0.39263   0.51009   0.81129   0.00000  Uiso   1.00
C246   C     0.37753   0.61202   0.81319   0.00000  Uiso   1.00
C247   C     0.27631   0.60332   0.78828   0.00000  Uiso   1.00
C248   C     0.55717   0.46672   0.79338   0.00000  Uiso   1.00
C249   C     0.68042   0.53217   0.78024   0.00000  Uiso   1.00
C250   C     0.71773   0.48696   0.74027   0.00000  Uiso   1.00
C251   C     0.43562   0.38744   0.87022   0.00000  Uiso   1.00
C252   C     0.45670   0.38623   0.92167   0.00000  Uiso   1.00
C253   C     0.39170   0.27426   0.94639   0.00000  Uiso   1.00
H254   H     0.27915   0.21982   0.76809   0.00000  Uiso   1.00
H255   H     0.14409   0.31172   0.74050   0.00000  Uiso   1.00
H256   H     0.44693   0.23188   0.70756   0.00000  Uiso   1.00
H257   H     0.22325   0.08597   0.84897   0.00000  Uiso   1.00
H258   H     0.03100   0.46074   0.72129   0.00000  Uiso   1.00
H259   H     0.66958   0.29237   0.65185   0.00000  Uiso   1.00
H260   H     0.19789   0.98467   0.95005   0.00000  Uiso   1.00
H261   H     0.56140   0.58285   0.85597   0.00000  Uiso   1.00
H262   H     0.44183   0.69468   0.83320   0.00000  Uiso   1.00
H263   H     0.74468   0.61483   0.80026   0.00000  Uiso   1.00
H264   H     0.52099   0.46892   0.94168   0.00000  Uiso   1.00
H265   H     0.27266   0.77157   0.79653   0.00000  Uiso   1.00
H266   H     0.91125   0.60318   0.72709   0.00000  Uiso   1.00
H267   H     0.43955   0.29550   0.02529   0.00000  Uiso   1.00
O268   O     0.06810   0.68318   0.74233   0.00000  Uiso   1.00
O269   O     0.90589   0.46226   0.65124   0.00000  Uiso   1.00
O270   O     0.28704   0.05858   0.04246   0.00000  Uiso   1.00
N271   N     0.10427   0.51854   0.74213   0.00000  Uiso   1.00
N272   N     0.70130   0.36113   0.67721   0.00000  Uiso   1.00
N273   N     0.26034   0.07345   0.95599   0.00000  Uiso   1.00
N274   N     0.23431   0.68579   0.78262   0.00000  Uiso   1.00
N275   N     0.83134   0.52838   0.71769   0.00000  Uiso   1.00
N276   N     0.39037   0.24071   0.99648   0.00000  Uiso   1.00
