data_job_04493
_audit_creation_date              2018-12-19
_audit_creation_method            'Materials Studio'
_symmetry_space_group_name_H-M    'P1'
_symmetry_Int_Tables_number       1
_symmetry_cell_setting            triclinic
loop_
_symmetry_equiv_pos_as_xyz
  x,y,z
_cell_length_a                    12.8187
_cell_length_b                    11.8506
_cell_length_c                    38.6828
_cell_angle_alpha                 90.0000
_cell_angle_beta                  90.0000
_cell_angle_gamma                 90.0000
loop_
_atom_site_label
_atom_site_type_symbol
_atom_site_fract_x
_atom_site_fract_y
_atom_site_fract_z
_atom_site_U_iso_or_equiv
_atom_site_adp_type
_atom_site_occupancy
C1     C     0.62505   0.22302   0.64111   0.00000  Uiso   1.00
C2     C     0.72858   0.28317   0.64722   0.00000  Uiso   1.00
C3     C     0.75958   0.33389   0.67788   0.00000  Uiso   1.00
C4     C     0.85724   0.38451   0.67824   0.00000  Uiso   1.00
C5     C     0.00821   0.47798   0.69217   0.00000  Uiso   1.00
C6     C     0.57492   0.28144   0.61017   0.00000  Uiso   1.00
C7     C     0.47670   0.33069   0.60967   0.00000  Uiso   1.00
C8     C     0.44501   0.37985   0.57883   0.00000  Uiso   1.00
C9     C     0.35738   0.47055   0.53522   0.00000  Uiso   1.00
C10    C     0.65273   0.10427   0.62902   0.00000  Uiso   1.00
C11    C     0.61992   0.00455   0.64437   0.00000  Uiso   1.00
C12    C     0.65372   0.90454   0.62940   0.00000  Uiso   1.00
C13    C     0.68690   0.72016   0.61507   0.00000  Uiso   1.00
C14    C     0.74339   0.22273   0.58722   0.00000  Uiso   1.00
C15    C     0.79286   0.28301   0.61795   0.00000  Uiso   1.00
C16    C     0.89051   0.33356   0.61826   0.00000  Uiso   1.00
C17    C     0.92164   0.38435   0.64891   0.00000  Uiso   1.00
C18    C     0.63919   0.28128   0.58089   0.00000  Uiso   1.00
C19    C     0.60764   0.33037   0.55004   0.00000  Uiso   1.00
C20    C     0.50941   0.37969   0.54950   0.00000  Uiso   1.00
C21    C     0.71701   0.10411   0.59975   0.00000  Uiso   1.00
C22    C     0.75086   0.00423   0.58475   0.00000  Uiso   1.00
C23    C     0.71811   0.90438   0.60008   0.00000  Uiso   1.00
H24    H     0.57500   0.22315   0.66390   0.00000  Uiso   1.00
H25    H     0.70980   0.33400   0.70053   0.00000  Uiso   1.00
H26    H     0.42697   0.33079   0.63233   0.00000  Uiso   1.00
H27    H     0.57017   0.00471   0.66703   0.00000  Uiso   1.00
H28    H     0.88759   0.45687   0.72823   0.00000  Uiso   1.00
H29    H     0.29122   0.45007   0.58441   0.00000  Uiso   1.00
H30    H     0.59318   0.76245   0.65758   0.00000  Uiso   1.00
H31    H     0.79344   0.22260   0.56443   0.00000  Uiso   1.00
H32    H     0.94024   0.33343   0.59560   0.00000  Uiso   1.00
H33    H     0.65740   0.33022   0.52740   0.00000  Uiso   1.00
H34    H     0.80060   0.00414   0.56210   0.00000  Uiso   1.00
H35    H     0.07462   0.45641   0.64306   0.00000  Uiso   1.00
H36    H     0.47824   0.44961   0.49924   0.00000  Uiso   1.00
H37    H     0.78021   0.76199   0.57241   0.00000  Uiso   1.00
O38    O     0.07372   0.52959   0.70794   0.00000  Uiso   1.00
O39    O     0.29129   0.52064   0.51926   0.00000  Uiso   1.00
O40    O     0.68746   0.61851   0.61526   0.00000  Uiso   1.00
N41    N     0.91147   0.44153   0.70391   0.00000  Uiso   1.00
N42    N     0.35390   0.43519   0.56945   0.00000  Uiso   1.00
N43    N     0.63619   0.79233   0.63785   0.00000  Uiso   1.00
N44    N     0.01211   0.44128   0.65808   0.00000  Uiso   1.00
N45    N     0.45454   0.43494   0.52362   0.00000  Uiso   1.00
N46    N     0.73683   0.79208   0.59203   0.00000  Uiso   1.00
C47    C     0.13318   0.22006   0.33394   0.00000  Uiso   1.00
C48    C     0.02918   0.27903   0.32761   0.00000  Uiso   1.00
C49    C     0.99784   0.32831   0.29677   0.00000  Uiso   1.00
C50    C     0.89978   0.37803   0.29622   0.00000  Uiso   1.00
C51    C     0.74811   0.46959   0.28195   0.00000  Uiso   1.00
C52    C     0.18281   0.28010   0.36469   0.00000  Uiso   1.00
C53    C     0.28064   0.33026   0.36502   0.00000  Uiso   1.00
C54    C     0.31191   0.38086   0.39569   0.00000  Uiso   1.00
C55    C     0.39878   0.47400   0.43898   0.00000  Uiso   1.00
C56    C     0.10640   0.10153   0.34645   0.00000  Uiso   1.00
C57    C     0.14001   0.00154   0.33146   0.00000  Uiso   1.00
C58    C     0.10696   0.90180   0.34678   0.00000  Uiso   1.00
C59    C     0.07519   0.71768   0.36176   0.00000  Uiso   1.00
C60    C     0.01477   0.22073   0.38782   0.00000  Uiso   1.00
C61    C     0.96487   0.27939   0.35688   0.00000  Uiso   1.00
C62    C     0.86683   0.32905   0.35638   0.00000  Uiso   1.00
C63    C     0.83535   0.37839   0.32554   0.00000  Uiso   1.00
C64    C     0.11850   0.28046   0.39395   0.00000  Uiso   1.00
C65    C     0.14964   0.33099   0.42463   0.00000  Uiso   1.00
C66    C     0.24748   0.38122   0.42501   0.00000  Uiso   1.00
C67    C     0.04209   0.10189   0.37572   0.00000  Uiso   1.00
C68    C     0.00899   0.00228   0.39107   0.00000  Uiso   1.00
C69    C     0.04253   0.90216   0.37610   0.00000  Uiso   1.00
H70    H     0.18325   0.21979   0.31116   0.00000  Uiso   1.00
H71    H     0.04764   0.32802   0.27413   0.00000  Uiso   1.00
H72    H     0.33040   0.32996   0.34237   0.00000  Uiso   1.00
H73    H     0.18977   0.00129   0.30881   0.00000  Uiso   1.00
H74    H     0.86893   0.44822   0.24598   0.00000  Uiso   1.00
H75    H     0.46516   0.45226   0.38987   0.00000  Uiso   1.00
H76    H     0.16864   0.75921   0.31911   0.00000  Uiso   1.00
H77    H     0.96470   0.22101   0.41061   0.00000  Uiso   1.00
H78    H     0.81708   0.32931   0.37903   0.00000  Uiso   1.00
H79    H     0.09985   0.33125   0.44727   0.00000  Uiso   1.00
H80    H     0.95923   0.00259   0.41371   0.00000  Uiso   1.00
H81    H     0.68181   0.44927   0.33112   0.00000  Uiso   1.00
H82    H     0.27804   0.45331   0.47502   0.00000  Uiso   1.00
H83    H     0.98152   0.76026   0.40425   0.00000  Uiso   1.00
O84    O     0.68222   0.52000   0.26599   0.00000  Uiso   1.00
O85    O     0.46446   0.52529   0.45477   0.00000  Uiso   1.00
O86    O     0.07542   0.61602   0.36193   0.00000  Uiso   1.00
N87    N     0.84514   0.43358   0.27035   0.00000  Uiso   1.00
N88    N     0.40258   0.43738   0.40488   0.00000  Uiso   1.00
N89    N     0.12537   0.78944   0.33873   0.00000  Uiso   1.00
N90    N     0.74445   0.43415   0.31616   0.00000  Uiso   1.00
N91    N     0.30189   0.43795   0.45069   0.00000  Uiso   1.00
N92    N     0.02468   0.79000   0.38454   0.00000  Uiso   1.00
C93    C     0.37495   0.77698   0.14111   0.00000  Uiso   1.00
C94    C     0.27142   0.71683   0.14722   0.00000  Uiso   1.00
C95    C     0.24042   0.66611   0.17788   0.00000  Uiso   1.00
C96    C     0.14276   0.61549   0.17824   0.00000  Uiso   1.00
C97    C     0.99179   0.52202   0.19217   0.00000  Uiso   1.00
C98    C     0.42508   0.71856   0.11017   0.00000  Uiso   1.00
C99    C     0.52330   0.66931   0.10967   0.00000  Uiso   1.00
C100   C     0.55499   0.62015   0.07883   0.00000  Uiso   1.00
C101   C     0.64262   0.52945   0.03522   0.00000  Uiso   1.00
C102   C     0.34727   0.89573   0.12902   0.00000  Uiso   1.00
C103   C     0.38008   0.99545   0.14437   0.00000  Uiso   1.00
C104   C     0.34628   0.09546   0.12940   0.00000  Uiso   1.00
C105   C     0.31310   0.27984   0.11507   0.00000  Uiso   1.00
C106   C     0.25661   0.77727   0.08722   0.00000  Uiso   1.00
C107   C     0.20714   0.71699   0.11795   0.00000  Uiso   1.00
C108   C     0.10949   0.66644   0.11826   0.00000  Uiso   1.00
C109   C     0.07836   0.61565   0.14891   0.00000  Uiso   1.00
C110   C     0.36081   0.71872   0.08089   0.00000  Uiso   1.00
C111   C     0.39236   0.66963   0.05004   0.00000  Uiso   1.00
C112   C     0.49059   0.62031   0.04950   0.00000  Uiso   1.00
C113   C     0.28299   0.89589   0.09975   0.00000  Uiso   1.00
C114   C     0.24914   0.99577   0.08475   0.00000  Uiso   1.00
C115   C     0.28189   0.09562   0.10008   0.00000  Uiso   1.00
H116   H     0.42500   0.77685   0.16390   0.00000  Uiso   1.00
H117   H     0.29020   0.66600   0.20053   0.00000  Uiso   1.00
H118   H     0.57303   0.66921   0.13233   0.00000  Uiso   1.00
H119   H     0.42983   0.99529   0.16703   0.00000  Uiso   1.00
H120   H     0.11241   0.54313   0.22823   0.00000  Uiso   1.00
H121   H     0.70878   0.54993   0.08441   0.00000  Uiso   1.00
H122   H     0.40682   0.23755   0.15758   0.00000  Uiso   1.00
H123   H     0.20656   0.77740   0.06443   0.00000  Uiso   1.00
H124   H     0.05976   0.66657   0.09560   0.00000  Uiso   1.00
H125   H     0.34260   0.66978   0.02740   0.00000  Uiso   1.00
H126   H     0.19940   0.99586   0.06210   0.00000  Uiso   1.00
H127   H     0.92538   0.54359   0.14306   0.00000  Uiso   1.00
H128   H     0.52176   0.55039   0.99924   0.00000  Uiso   1.00
H129   H     0.21979   0.23801   0.07241   0.00000  Uiso   1.00
O130   O     0.92628   0.47041   0.20794   0.00000  Uiso   1.00
O131   O     0.70871   0.47936   0.01926   0.00000  Uiso   1.00
O132   O     0.31254   0.38149   0.11526   0.00000  Uiso   1.00
N133   N     0.08853   0.55847   0.20391   0.00000  Uiso   1.00
N134   N     0.64610   0.56481   0.06945   0.00000  Uiso   1.00
N135   N     0.36381   0.20767   0.13785   0.00000  Uiso   1.00
N136   N     0.98789   0.55872   0.15808   0.00000  Uiso   1.00
N137   N     0.54546   0.56506   0.02362   0.00000  Uiso   1.00
N138   N     0.26317   0.20792   0.09203   0.00000  Uiso   1.00
C139   C     0.86682   0.77994   0.83394   0.00000  Uiso   1.00
C140   C     0.97082   0.72097   0.82761   0.00000  Uiso   1.00
C141   C     0.00216   0.67169   0.79677   0.00000  Uiso   1.00
C142   C     0.10022   0.62197   0.79622   0.00000  Uiso   1.00
C143   C     0.25189   0.53041   0.78195   0.00000  Uiso   1.00
C144   C     0.81719   0.71990   0.86469   0.00000  Uiso   1.00
C145   C     0.71936   0.66974   0.86502   0.00000  Uiso   1.00
C146   C     0.68809   0.61914   0.89569   0.00000  Uiso   1.00
C147   C     0.60122   0.52600   0.93898   0.00000  Uiso   1.00
C148   C     0.89360   0.89847   0.84645   0.00000  Uiso   1.00
C149   C     0.85999   0.99846   0.83146   0.00000  Uiso   1.00
C150   C     0.89304   0.09820   0.84678   0.00000  Uiso   1.00
C151   C     0.92481   0.28232   0.86176   0.00000  Uiso   1.00
C152   C     0.98523   0.77927   0.88782   0.00000  Uiso   1.00
C153   C     0.03513   0.72061   0.85688   0.00000  Uiso   1.00
C154   C     0.13317   0.67095   0.85638   0.00000  Uiso   1.00
C155   C     0.16465   0.62161   0.82554   0.00000  Uiso   1.00
C156   C     0.88150   0.71954   0.89395   0.00000  Uiso   1.00
C157   C     0.85036   0.66901   0.92463   0.00000  Uiso   1.00
C158   C     0.75252   0.61878   0.92501   0.00000  Uiso   1.00
C159   C     0.95791   0.89811   0.87572   0.00000  Uiso   1.00
C160   C     0.99101   0.99772   0.89107   0.00000  Uiso   1.00
C161   C     0.95747   0.09784   0.87610   0.00000  Uiso   1.00
H162   H     0.81675   0.78021   0.81116   0.00000  Uiso   1.00
H163   H     0.95236   0.67198   0.77413   0.00000  Uiso   1.00
H164   H     0.66960   0.67004   0.84237   0.00000  Uiso   1.00
H165   H     0.81023   0.99871   0.80881   0.00000  Uiso   1.00
H166   H     0.13107   0.55178   0.74598   0.00000  Uiso   1.00
H167   H     0.53484   0.54774   0.88987   0.00000  Uiso   1.00
H168   H     0.83136   0.24079   0.81911   0.00000  Uiso   1.00
H169   H     0.03530   0.77899   0.91061   0.00000  Uiso   1.00
H170   H     0.18292   0.67069   0.87903   0.00000  Uiso   1.00
H171   H     0.90015   0.66875   0.94727   0.00000  Uiso   1.00
H172   H     0.04077   0.99741   0.91371   0.00000  Uiso   1.00
H173   H     0.31819   0.55073   0.83112   0.00000  Uiso   1.00
H174   H     0.72196   0.54669   0.97502   0.00000  Uiso   1.00
H175   H     0.01848   0.23974   0.90425   0.00000  Uiso   1.00
O176   O     0.31778   0.48000   0.76599   0.00000  Uiso   1.00
O177   O     0.53554   0.47471   0.95477   0.00000  Uiso   1.00
O178   O     0.92458   0.38398   0.86193   0.00000  Uiso   1.00
N179   N     0.15486   0.56642   0.77035   0.00000  Uiso   1.00
N180   N     0.59742   0.56262   0.90488   0.00000  Uiso   1.00
N181   N     0.87463   0.21056   0.83873   0.00000  Uiso   1.00
N182   N     0.25555   0.56585   0.81616   0.00000  Uiso   1.00
N183   N     0.69811   0.56205   0.95069   0.00000  Uiso   1.00
N184   N     0.97532   0.21000   0.88454   0.00000  Uiso   1.00
C185   C     0.12505   0.77698   0.64111   0.00000  Uiso   1.00
C186   C     0.22858   0.71683   0.64722   0.00000  Uiso   1.00
C187   C     0.25958   0.66611   0.67788   0.00000  Uiso   1.00
C188   C     0.35724   0.61549   0.67824   0.00000  Uiso   1.00
C189   C     0.50821   0.52202   0.69217   0.00000  Uiso   1.00
C190   C     0.07492   0.71856   0.61017   0.00000  Uiso   1.00
C191   C     0.97670   0.66931   0.60967   0.00000  Uiso   1.00
C192   C     0.94501   0.62015   0.57883   0.00000  Uiso   1.00
C193   C     0.85738   0.52945   0.53522   0.00000  Uiso   1.00
C194   C     0.15273   0.89573   0.62902   0.00000  Uiso   1.00
C195   C     0.11992   0.99545   0.64437   0.00000  Uiso   1.00
C196   C     0.15372   0.09546   0.62940   0.00000  Uiso   1.00
C197   C     0.18690   0.27984   0.61507   0.00000  Uiso   1.00
C198   C     0.24339   0.77727   0.58722   0.00000  Uiso   1.00
C199   C     0.29286   0.71699   0.61795   0.00000  Uiso   1.00
C200   C     0.39051   0.66644   0.61826   0.00000  Uiso   1.00
C201   C     0.42164   0.61565   0.64891   0.00000  Uiso   1.00
C202   C     0.13919   0.71872   0.58089   0.00000  Uiso   1.00
C203   C     0.10764   0.66963   0.55004   0.00000  Uiso   1.00
C204   C     0.00941   0.62031   0.54950   0.00000  Uiso   1.00
C205   C     0.21701   0.89589   0.59975   0.00000  Uiso   1.00
C206   C     0.25086   0.99577   0.58475   0.00000  Uiso   1.00
C207   C     0.21811   0.09562   0.60008   0.00000  Uiso   1.00
H208   H     0.07500   0.77685   0.66390   0.00000  Uiso   1.00
H209   H     0.20980   0.66600   0.70053   0.00000  Uiso   1.00
H210   H     0.92697   0.66921   0.63233   0.00000  Uiso   1.00
H211   H     0.07017   0.99529   0.66703   0.00000  Uiso   1.00
H212   H     0.38759   0.54313   0.72823   0.00000  Uiso   1.00
H213   H     0.79122   0.54993   0.58441   0.00000  Uiso   1.00
H214   H     0.09318   0.23755   0.65758   0.00000  Uiso   1.00
H215   H     0.29344   0.77740   0.56443   0.00000  Uiso   1.00
H216   H     0.44024   0.66657   0.59560   0.00000  Uiso   1.00
H217   H     0.15740   0.66978   0.52740   0.00000  Uiso   1.00
H218   H     0.30060   0.99586   0.56210   0.00000  Uiso   1.00
H219   H     0.57462   0.54359   0.64306   0.00000  Uiso   1.00
H220   H     0.97824   0.55039   0.49924   0.00000  Uiso   1.00
H221   H     0.28021   0.23801   0.57241   0.00000  Uiso   1.00
O222   O     0.57372   0.47041   0.70794   0.00000  Uiso   1.00
O223   O     0.79129   0.47936   0.51926   0.00000  Uiso   1.00
O224   O     0.18746   0.38149   0.61526   0.00000  Uiso   1.00
N225   N     0.41147   0.55847   0.70391   0.00000  Uiso   1.00
N226   N     0.85390   0.56481   0.56945   0.00000  Uiso   1.00
N227   N     0.13619   0.20767   0.63785   0.00000  Uiso   1.00
N228   N     0.51211   0.55872   0.65808   0.00000  Uiso   1.00
N229   N     0.95454   0.56506   0.52362   0.00000  Uiso   1.00
N230   N     0.23683   0.20792   0.59203   0.00000  Uiso   1.00
C231   C     0.63318   0.77994   0.33394   0.00000  Uiso   1.00
C232   C     0.52918   0.72097   0.32761   0.00000  Uiso   1.00
C233   C     0.49784   0.67169   0.29677   0.00000  Uiso   1.00
C234   C     0.39978   0.62197   0.29622   0.00000  Uiso   1.00
C235   C     0.24811   0.53041   0.28195   0.00000  Uiso   1.00
C236   C     0.68281   0.71990   0.36469   0.00000  Uiso   1.00
C237   C     0.78064   0.66974   0.36502   0.00000  Uiso   1.00
C238   C     0.81191   0.61914   0.39569   0.00000  Uiso   1.00
C239   C     0.89878   0.52600   0.43898   0.00000  Uiso   1.00
C240   C     0.60640   0.89847   0.34645   0.00000  Uiso   1.00
C241   C     0.64001   0.99846   0.33146   0.00000  Uiso   1.00
C242   C     0.60696   0.09820   0.34678   0.00000  Uiso   1.00
C243   C     0.57519   0.28232   0.36176   0.00000  Uiso   1.00
C244   C     0.51477   0.77927   0.38782   0.00000  Uiso   1.00
C245   C     0.46487   0.72061   0.35688   0.00000  Uiso   1.00
C246   C     0.36683   0.67095   0.35638   0.00000  Uiso   1.00
C247   C     0.33535   0.62161   0.32554   0.00000  Uiso   1.00
C248   C     0.61850   0.71954   0.39395   0.00000  Uiso   1.00
C249   C     0.64964   0.66901   0.42463   0.00000  Uiso   1.00
C250   C     0.74748   0.61878   0.42501   0.00000  Uiso   1.00
C251   C     0.54209   0.89811   0.37572   0.00000  Uiso   1.00
C252   C     0.50899   0.99772   0.39107   0.00000  Uiso   1.00
C253   C     0.54253   0.09784   0.37610   0.00000  Uiso   1.00
H254   H     0.68325   0.78021   0.31116   0.00000  Uiso   1.00
H255   H     0.54764   0.67198   0.27413   0.00000  Uiso   1.00
H256   H     0.83040   0.67004   0.34237   0.00000  Uiso   1.00
H257   H     0.68977   0.99871   0.30881   0.00000  Uiso   1.00
H258   H     0.36893   0.55178   0.24598   0.00000  Uiso   1.00
H259   H     0.96516   0.54774   0.38987   0.00000  Uiso   1.00
H260   H     0.66864   0.24079   0.31911   0.00000  Uiso   1.00
H261   H     0.46470   0.77899   0.41061   0.00000  Uiso   1.00
H262   H     0.31708   0.67069   0.37903   0.00000  Uiso   1.00
H263   H     0.59985   0.66875   0.44727   0.00000  Uiso   1.00
H264   H     0.45923   0.99741   0.41371   0.00000  Uiso   1.00
H265   H     0.18181   0.55073   0.33112   0.00000  Uiso   1.00
H266   H     0.77804   0.54669   0.47502   0.00000  Uiso   1.00
H267   H     0.48152   0.23974   0.40425   0.00000  Uiso   1.00
O268   O     0.18222   0.48000   0.26599   0.00000  Uiso   1.00
O269   O     0.96446   0.47471   0.45477   0.00000  Uiso   1.00
O270   O     0.57542   0.38398   0.36193   0.00000  Uiso   1.00
N271   N     0.34514   0.56642   0.27035   0.00000  Uiso   1.00
N272   N     0.90258   0.56262   0.40488   0.00000  Uiso   1.00
N273   N     0.62537   0.21056   0.33873   0.00000  Uiso   1.00
N274   N     0.24445   0.56585   0.31616   0.00000  Uiso   1.00
N275   N     0.80189   0.56205   0.45069   0.00000  Uiso   1.00
N276   N     0.52468   0.21000   0.38454   0.00000  Uiso   1.00
C277   C     0.87495   0.22302   0.14111   0.00000  Uiso   1.00
C278   C     0.77142   0.28317   0.14722   0.00000  Uiso   1.00
C279   C     0.74042   0.33389   0.17788   0.00000  Uiso   1.00
C280   C     0.64276   0.38451   0.17824   0.00000  Uiso   1.00
C281   C     0.49179   0.47798   0.19217   0.00000  Uiso   1.00
C282   C     0.92508   0.28144   0.11017   0.00000  Uiso   1.00
C283   C     0.02330   0.33069   0.10967   0.00000  Uiso   1.00
C284   C     0.05499   0.37985   0.07883   0.00000  Uiso   1.00
C285   C     0.14262   0.47055   0.03522   0.00000  Uiso   1.00
C286   C     0.84727   0.10427   0.12902   0.00000  Uiso   1.00
C287   C     0.88008   0.00455   0.14437   0.00000  Uiso   1.00
C288   C     0.84628   0.90454   0.12940   0.00000  Uiso   1.00
C289   C     0.81310   0.72016   0.11507   0.00000  Uiso   1.00
C290   C     0.75661   0.22273   0.08722   0.00000  Uiso   1.00
C291   C     0.70714   0.28301   0.11795   0.00000  Uiso   1.00
C292   C     0.60949   0.33356   0.11826   0.00000  Uiso   1.00
C293   C     0.57836   0.38435   0.14891   0.00000  Uiso   1.00
C294   C     0.86081   0.28128   0.08089   0.00000  Uiso   1.00
C295   C     0.89236   0.33037   0.05004   0.00000  Uiso   1.00
C296   C     0.99059   0.37969   0.04950   0.00000  Uiso   1.00
C297   C     0.78299   0.10411   0.09975   0.00000  Uiso   1.00
C298   C     0.74914   0.00423   0.08475   0.00000  Uiso   1.00
C299   C     0.78189   0.90438   0.10008   0.00000  Uiso   1.00
H300   H     0.92500   0.22315   0.16390   0.00000  Uiso   1.00
H301   H     0.79020   0.33400   0.20053   0.00000  Uiso   1.00
H302   H     0.07303   0.33079   0.13233   0.00000  Uiso   1.00
H303   H     0.92983   0.00471   0.16703   0.00000  Uiso   1.00
H304   H     0.61241   0.45687   0.22823   0.00000  Uiso   1.00
H305   H     0.20878   0.45007   0.08441   0.00000  Uiso   1.00
H306   H     0.90682   0.76245   0.15758   0.00000  Uiso   1.00
H307   H     0.70656   0.22260   0.06443   0.00000  Uiso   1.00
H308   H     0.55976   0.33343   0.09560   0.00000  Uiso   1.00
H309   H     0.84260   0.33022   0.02740   0.00000  Uiso   1.00
H310   H     0.69940   0.00414   0.06210   0.00000  Uiso   1.00
H311   H     0.42538   0.45641   0.14306   0.00000  Uiso   1.00
H312   H     0.02176   0.44961   0.99924   0.00000  Uiso   1.00
H313   H     0.71979   0.76199   0.07241   0.00000  Uiso   1.00
O314   O     0.42628   0.52959   0.20794   0.00000  Uiso   1.00
O315   O     0.20871   0.52064   0.01926   0.00000  Uiso   1.00
O316   O     0.81254   0.61851   0.11526   0.00000  Uiso   1.00
N317   N     0.58853   0.44153   0.20391   0.00000  Uiso   1.00
N318   N     0.14610   0.43519   0.06945   0.00000  Uiso   1.00
N319   N     0.86381   0.79233   0.13785   0.00000  Uiso   1.00
N320   N     0.48789   0.44128   0.15808   0.00000  Uiso   1.00
N321   N     0.04546   0.43494   0.02362   0.00000  Uiso   1.00
N322   N     0.76317   0.79208   0.09203   0.00000  Uiso   1.00
C323   C     0.36682   0.22006   0.83394   0.00000  Uiso   1.00
C324   C     0.47082   0.27903   0.82761   0.00000  Uiso   1.00
C325   C     0.50216   0.32831   0.79677   0.00000  Uiso   1.00
C326   C     0.60022   0.37803   0.79622   0.00000  Uiso   1.00
C327   C     0.75189   0.46959   0.78195   0.00000  Uiso   1.00
C328   C     0.31719   0.28010   0.86469   0.00000  Uiso   1.00
C329   C     0.21936   0.33026   0.86502   0.00000  Uiso   1.00
C330   C     0.18809   0.38086   0.89569   0.00000  Uiso   1.00
C331   C     0.10122   0.47400   0.93898   0.00000  Uiso   1.00
C332   C     0.39360   0.10153   0.84645   0.00000  Uiso   1.00
C333   C     0.35999   0.00154   0.83146   0.00000  Uiso   1.00
C334   C     0.39304   0.90180   0.84678   0.00000  Uiso   1.00
C335   C     0.42481   0.71768   0.86176   0.00000  Uiso   1.00
C336   C     0.48523   0.22073   0.88782   0.00000  Uiso   1.00
C337   C     0.53513   0.27939   0.85688   0.00000  Uiso   1.00
C338   C     0.63317   0.32905   0.85638   0.00000  Uiso   1.00
C339   C     0.66465   0.37839   0.82554   0.00000  Uiso   1.00
C340   C     0.38150   0.28046   0.89395   0.00000  Uiso   1.00
C341   C     0.35036   0.33099   0.92463   0.00000  Uiso   1.00
C342   C     0.25252   0.38122   0.92501   0.00000  Uiso   1.00
C343   C     0.45791   0.10189   0.87572   0.00000  Uiso   1.00
C344   C     0.49101   0.00228   0.89107   0.00000  Uiso   1.00
C345   C     0.45747   0.90216   0.87610   0.00000  Uiso   1.00
H346   H     0.31675   0.21979   0.81116   0.00000  Uiso   1.00
H347   H     0.45236   0.32802   0.77413   0.00000  Uiso   1.00
H348   H     0.16960   0.32996   0.84237   0.00000  Uiso   1.00
H349   H     0.31023   0.00129   0.80881   0.00000  Uiso   1.00
H350   H     0.63107   0.44822   0.74598   0.00000  Uiso   1.00
H351   H     0.03484   0.45226   0.88987   0.00000  Uiso   1.00
H352   H     0.33136   0.75921   0.81911   0.00000  Uiso   1.00
H353   H     0.53530   0.22101   0.91061   0.00000  Uiso   1.00
H354   H     0.68292   0.32931   0.87903   0.00000  Uiso   1.00
H355   H     0.40015   0.33125   0.94727   0.00000  Uiso   1.00
H356   H     0.54077   0.00259   0.91371   0.00000  Uiso   1.00
H357   H     0.81819   0.44927   0.83112   0.00000  Uiso   1.00
H358   H     0.22196   0.45331   0.97502   0.00000  Uiso   1.00
H359   H     0.51848   0.76026   0.90425   0.00000  Uiso   1.00
O360   O     0.81778   0.52000   0.76599   0.00000  Uiso   1.00
O361   O     0.03554   0.52529   0.95477   0.00000  Uiso   1.00
O362   O     0.42458   0.61602   0.86193   0.00000  Uiso   1.00
N363   N     0.65486   0.43358   0.77035   0.00000  Uiso   1.00
N364   N     0.09742   0.43738   0.90488   0.00000  Uiso   1.00
N365   N     0.37463   0.78944   0.83873   0.00000  Uiso   1.00
N366   N     0.75555   0.43415   0.81616   0.00000  Uiso   1.00
N367   N     0.19811   0.43795   0.95069   0.00000  Uiso   1.00
N368   N     0.47532   0.79000   0.88454   0.00000  Uiso   1.00
