data_job_06054
_audit_creation_date              2018-12-19
_audit_creation_method            'Materials Studio'
_symmetry_space_group_name_H-M    'P1'
_symmetry_Int_Tables_number       1
_symmetry_cell_setting            triclinic
loop_
_symmetry_equiv_pos_as_xyz
  x,y,z
_cell_length_a                    12.5375
_cell_length_b                    19.4414
_cell_length_c                    19.9265
_cell_angle_alpha                 116.0690
_cell_angle_beta                  76.2867
_cell_angle_gamma                 81.4059
loop_
_atom_site_label
_atom_site_type_symbol
_atom_site_fract_x
_atom_site_fract_y
_atom_site_fract_z
_atom_site_U_iso_or_equiv
_atom_site_adp_type
_atom_site_occupancy
C1     C     0.76025   0.96319   0.55857   0.00000  Uiso   1.00
C2     C     0.81997   0.96317   0.61692   0.00000  Uiso   1.00
C3     C     0.89232   0.00894   0.64171   0.00000  Uiso   1.00
C4     C     0.93847   0.00033   0.69537   0.00000  Uiso   1.00
C5     C     0.03511   0.00825   0.78170   0.00000  Uiso   1.00
C6     C     0.79638   0.87657   0.49196   0.00000  Uiso   1.00
C7     C     0.84888   0.84953   0.41169   0.00000  Uiso   1.00
C8     C     0.87515   0.76802   0.36016   0.00000  Uiso   1.00
C9     C     0.93510   0.64150   0.25249   0.00000  Uiso   1.00
C10    C     0.63240   0.98357   0.60191   0.00000  Uiso   1.00
C11    C     0.54700   0.04649   0.61409   0.00000  Uiso   1.00
C12    C     0.43521   0.05506   0.65511   0.00000  Uiso   1.00
C13    C     0.24054   0.09468   0.71816   0.00000  Uiso   1.00
C14    C     0.71355   0.86651   0.60977   0.00000  Uiso   1.00
C15    C     0.79461   0.91065   0.64472   0.00000  Uiso   1.00
C16    C     0.84066   0.90197   0.69835   0.00000  Uiso   1.00
C17    C     0.91306   0.94772   0.72323   0.00000  Uiso   1.00
C18    C     0.77102   0.82405   0.51976   0.00000  Uiso   1.00
C19    C     0.79722   0.74256   0.46834   0.00000  Uiso   1.00
C20    C     0.84975   0.71540   0.38801   0.00000  Uiso   1.00
C21    C     0.60703   0.93106   0.62972   0.00000  Uiso   1.00
C22    C     0.49535   0.93952   0.67073   0.00000  Uiso   1.00
C23    C     0.40980   0.00244   0.68297   0.00000  Uiso   1.00
H24    H     0.77999   0.00407   0.53692   0.00000  Uiso   1.00
H25    H     0.91193   0.04957   0.62018   0.00000  Uiso   1.00
H26    H     0.86848   0.89019   0.39019   0.00000  Uiso   1.00
H27    H     0.56666   0.08712   0.59256   0.00000  Uiso   1.00
H28    H     0.04706   0.07683   0.72472   0.00000  Uiso   1.00
H29    H     0.95542   0.74076   0.23979   0.00000  Uiso   1.00
H30    H     0.31896   0.15604   0.66651   0.00000  Uiso   1.00
H31    H     0.69381   0.82562   0.63141   0.00000  Uiso   1.00
H32    H     0.82101   0.86132   0.71986   0.00000  Uiso   1.00
H33    H     0.77757   0.70194   0.48987   0.00000  Uiso   1.00
H34    H     0.47575   0.89887   0.69224   0.00000  Uiso   1.00
H35    H     0.97327   0.92404   0.80563   0.00000  Uiso   1.00
H36    H     0.88163   0.58797   0.32069   0.00000  Uiso   1.00
H37    H     0.24518   0.00325   0.74742   0.00000  Uiso   1.00
O38    O     0.09543   0.02712   0.82163   0.00000  Uiso   1.00
O39    O     0.97518   0.58623   0.18542   0.00000  Uiso   1.00
O40    O     0.14017   0.13105   0.74527   0.00000  Uiso   1.00
N41    N     0.01222   0.03598   0.73164   0.00000  Uiso   1.00
N42    N     0.92655   0.72178   0.27825   0.00000  Uiso   1.00
N43    N     0.33152   0.11001   0.67719   0.00000  Uiso   1.00
N44    N     0.97251   0.95376   0.77517   0.00000  Uiso   1.00
N45    N     0.88685   0.63957   0.32179   0.00000  Uiso   1.00
N46    N     0.29182   0.02780   0.72072   0.00000  Uiso   1.00
C47    C     0.31890   0.44694   0.40064   0.00000  Uiso   1.00
C48    C     0.43644   0.39075   0.34098   0.00000  Uiso   1.00
C49    C     0.53080   0.36828   0.35965   0.00000  Uiso   1.00
C50    C     0.63061   0.31634   0.29651   0.00000  Uiso   1.00
C51    C     0.81237   0.23345   0.21588   0.00000  Uiso   1.00
C52    C     0.29370   0.51401   0.38128   0.00000  Uiso   1.00
C53    C     0.26802   0.59517   0.43385   0.00000  Uiso   1.00
C54    C     0.24764   0.64699   0.40464   0.00000  Uiso   1.00
C55    C     0.20770   0.75545   0.38659   0.00000  Uiso   1.00
C56    C     0.23303   0.40025   0.38008   0.00000  Uiso   1.00
C57    C     0.15632   0.38578   0.43163   0.00000  Uiso   1.00
C58    C     0.08485   0.34183   0.40142   0.00000  Uiso   1.00
C59    C     0.95071   0.27367   0.38150   0.00000  Uiso   1.00
C60    C     0.32835   0.39466   0.25531   0.00000  Uiso   1.00
C61    C     0.44158   0.36236   0.26204   0.00000  Uiso   1.00
C62    C     0.54126   0.31044   0.19886   0.00000  Uiso   1.00
C63    C     0.63576   0.28789   0.21743   0.00000  Uiso   1.00
C64    C     0.29883   0.48562   0.30235   0.00000  Uiso   1.00
C65    C     0.27848   0.53733   0.27306   0.00000  Uiso   1.00
C66    C     0.25279   0.61854   0.32556   0.00000  Uiso   1.00
C67    C     0.23816   0.37185   0.30114   0.00000  Uiso   1.00
C68    C     0.16679   0.32793   0.27084   0.00000  Uiso   1.00
C69    C     0.08999   0.31339   0.32234   0.00000  Uiso   1.00
H70    H     0.31489   0.46906   0.46210   0.00000  Uiso   1.00
H71    H     0.52680   0.39028   0.42074   0.00000  Uiso   1.00
H72    H     0.26404   0.61713   0.49493   0.00000  Uiso   1.00
H73    H     0.15237   0.40776   0.49271   0.00000  Uiso   1.00
H74    H     0.76401   0.29043   0.34008   0.00000  Uiso   1.00
H75    H     0.20993   0.76876   0.49652   0.00000  Uiso   1.00
H76    H     0.97444   0.32728   0.49185   0.00000  Uiso   1.00
H77    H     0.33235   0.37256   0.19386   0.00000  Uiso   1.00
H78    H     0.54521   0.28847   0.13778   0.00000  Uiso   1.00
H79    H     0.28245   0.51533   0.21197   0.00000  Uiso   1.00
H80    H     0.17078   0.30596   0.20975   0.00000  Uiso   1.00
H81    H     0.77896   0.20781   0.11042   0.00000  Uiso   1.00
H82    H     0.22487   0.68614   0.26686   0.00000  Uiso   1.00
H83    H     0.98939   0.24466   0.26218   0.00000  Uiso   1.00
O84    O     0.91121   0.19557   0.19320   0.00000  Uiso   1.00
O85    O     0.18426   0.82312   0.39844   0.00000  Uiso   1.00
O86    O     0.87531   0.24390   0.39232   0.00000  Uiso   1.00
N87    N     0.73831   0.28252   0.29373   0.00000  Uiso   1.00
N88    N     0.22030   0.72972   0.43998   0.00000  Uiso   1.00
N89    N     0.00011   0.31699   0.43562   0.00000  Uiso   1.00
N90    N     0.74635   0.23805   0.17015   0.00000  Uiso   1.00
N91    N     0.22834   0.68526   0.31640   0.00000  Uiso   1.00
N92    N     0.00816   0.27253   0.31204   0.00000  Uiso   1.00
C93    C     0.71578   0.60313   0.04188   0.00000  Uiso   1.00
C94    C     0.77714   0.66569   0.04376   0.00000  Uiso   1.00
C95    C     0.89117   0.64986   0.00095   0.00000  Uiso   1.00
C96    C     0.93113   0.71535   0.01087   0.00000  Uiso   1.00
C97    C     0.03731   0.80055   0.00608   0.00000  Uiso   1.00
C98    C     0.66770   0.62170   0.12776   0.00000  Uiso   1.00
C99    C     0.68972   0.56888   0.15558   0.00000  Uiso   1.00
C100   C     0.63754   0.59735   0.23621   0.00000  Uiso   1.00
C101   C     0.57375   0.61424   0.36183   0.00000  Uiso   1.00
C102   C     0.61216   0.62101   0.01835   0.00000  Uiso   1.00
C103   C     0.58746   0.56760   0.95418   0.00000  Uiso   1.00
C104   C     0.48849   0.59548   0.94271   0.00000  Uiso   1.00
C105   C     0.33847   0.61129   0.89845   0.00000  Uiso   1.00
C106   C     0.58395   0.74761   0.13561   0.00000  Uiso   1.00
C107   C     0.70553   0.74416   0.09468   0.00000  Uiso   1.00
C108   C     0.74532   0.80970   0.10466   0.00000  Uiso   1.00
C109   C     0.85939   0.79396   0.06187   0.00000  Uiso   1.00
C110   C     0.59610   0.70017   0.17868   0.00000  Uiso   1.00
C111   C     0.54386   0.72872   0.25929   0.00000  Uiso   1.00
C112   C     0.56580   0.67596   0.28722   0.00000  Uiso   1.00
C113   C     0.54056   0.69948   0.06926   0.00000  Uiso   1.00
C114   C     0.44161   0.72745   0.05789   0.00000  Uiso   1.00
C115   C     0.41676   0.67409   0.99372   0.00000  Uiso   1.00
H116   H     0.77153   0.54204   0.00224   0.00000  Uiso   1.00
H117   H     0.94656   0.58912   0.96156   0.00000  Uiso   1.00
H118   H     0.74513   0.50816   0.11616   0.00000  Uiso   1.00
H119   H     0.64289   0.50688   0.91480   0.00000  Uiso   1.00
H120   H     0.10906   0.67592   0.93893   0.00000  Uiso   1.00
H121   H     0.68429   0.50520   0.26491   0.00000  Uiso   1.00
H122   H     0.46869   0.50250   0.84030   0.00000  Uiso   1.00
H123   H     0.52820   0.80870   0.17526   0.00000  Uiso   1.00
H124   H     0.68988   0.87042   0.14407   0.00000  Uiso   1.00
H125   H     0.48845   0.78945   0.29867   0.00000  Uiso   1.00
H126   H     0.38621   0.78818   0.09730   0.00000  Uiso   1.00
H127   H     0.90073   0.90423   0.08707   0.00000  Uiso   1.00
H128   H     0.47596   0.73351   0.41304   0.00000  Uiso   1.00
H129   H     0.26037   0.73082   0.98843   0.00000  Uiso   1.00
O130   O     0.11566   0.82586   0.98938   0.00000  Uiso   1.00
O131   O     0.55836   0.60188   0.41705   0.00000  Uiso   1.00
O132   O     0.27551   0.59834   0.85996   0.00000  Uiso   1.00
N133   N     0.03783   0.72118   0.97807   0.00000  Uiso   1.00
N134   N     0.64071   0.56157   0.28284   0.00000  Uiso   1.00
N135   N     0.43914   0.55905   0.88587   0.00000  Uiso   1.00
N136   N     0.92573   0.84404   0.05777   0.00000  Uiso   1.00
N137   N     0.52862   0.68443   0.36255   0.00000  Uiso   1.00
N138   N     0.32703   0.68190   0.96558   0.00000  Uiso   1.00
C139   C     0.23975   0.03681   0.44143   0.00000  Uiso   1.00
C140   C     0.18003   0.03683   0.38308   0.00000  Uiso   1.00
C141   C     0.10768   0.99106   0.35829   0.00000  Uiso   1.00
C142   C     0.06153   0.99967   0.30463   0.00000  Uiso   1.00
C143   C     0.96489   0.99175   0.21830   0.00000  Uiso   1.00
C144   C     0.20362   0.12343   0.50804   0.00000  Uiso   1.00
C145   C     0.15112   0.15047   0.58831   0.00000  Uiso   1.00
C146   C     0.12485   0.23198   0.63984   0.00000  Uiso   1.00
C147   C     0.06490   0.35850   0.74751   0.00000  Uiso   1.00
C148   C     0.36760   0.01643   0.39808   0.00000  Uiso   1.00
C149   C     0.45300   0.95351   0.38591   0.00000  Uiso   1.00
C150   C     0.56479   0.94494   0.34489   0.00000  Uiso   1.00
C151   C     0.75946   0.90532   0.28183   0.00000  Uiso   1.00
C152   C     0.28645   0.13349   0.39023   0.00000  Uiso   1.00
C153   C     0.20539   0.08935   0.35528   0.00000  Uiso   1.00
C154   C     0.15934   0.09803   0.30165   0.00000  Uiso   1.00
C155   C     0.08694   0.05228   0.27677   0.00000  Uiso   1.00
C156   C     0.22898   0.17595   0.48024   0.00000  Uiso   1.00
C157   C     0.20278   0.25744   0.53166   0.00000  Uiso   1.00
C158   C     0.15025   0.28459   0.61198   0.00000  Uiso   1.00
C159   C     0.39297   0.06894   0.37028   0.00000  Uiso   1.00
C160   C     0.50465   0.06048   0.32927   0.00000  Uiso   1.00
C161   C     0.59020   0.99755   0.31703   0.00000  Uiso   1.00
H162   H     0.22001   0.99593   0.46308   0.00000  Uiso   1.00
H163   H     0.08807   0.95043   0.37982   0.00000  Uiso   1.00
H164   H     0.13152   0.10981   0.60981   0.00000  Uiso   1.00
H165   H     0.43334   0.91288   0.40744   0.00000  Uiso   1.00
H166   H     0.95294   0.92317   0.27528   0.00000  Uiso   1.00
H167   H     0.04458   0.25924   0.76021   0.00000  Uiso   1.00
H168   H     0.68104   0.84396   0.33349   0.00000  Uiso   1.00
H169   H     0.30619   0.17438   0.36859   0.00000  Uiso   1.00
H170   H     0.17898   0.13868   0.28014   0.00000  Uiso   1.00
H171   H     0.22243   0.29806   0.51013   0.00000  Uiso   1.00
H172   H     0.52425   0.10113   0.30776   0.00000  Uiso   1.00
H173   H     0.02673   0.07596   0.19437   0.00000  Uiso   1.00
H174   H     0.11837   0.41202   0.67931   0.00000  Uiso   1.00
H175   H     0.75482   0.99675   0.25258   0.00000  Uiso   1.00
O176   O     0.90457   0.97288   0.17837   0.00000  Uiso   1.00
O177   O     0.02482   0.41377   0.81458   0.00000  Uiso   1.00
O178   O     0.85983   0.86895   0.25473   0.00000  Uiso   1.00
N179   N     0.98778   0.96402   0.26836   0.00000  Uiso   1.00
N180   N     0.07345   0.27822   0.72175   0.00000  Uiso   1.00
N181   N     0.66848   0.88999   0.32281   0.00000  Uiso   1.00
N182   N     0.02749   0.04624   0.22483   0.00000  Uiso   1.00
N183   N     0.11315   0.36043   0.67821   0.00000  Uiso   1.00
N184   N     0.70818   0.97220   0.27928   0.00000  Uiso   1.00
C185   C     0.68110   0.55305   0.59936   0.00000  Uiso   1.00
C186   C     0.56356   0.60925   0.65902   0.00000  Uiso   1.00
C187   C     0.46920   0.63172   0.64035   0.00000  Uiso   1.00
C188   C     0.36939   0.68365   0.70349   0.00000  Uiso   1.00
C189   C     0.18763   0.76655   0.78412   0.00000  Uiso   1.00
C190   C     0.70630   0.48599   0.61872   0.00000  Uiso   1.00
C191   C     0.73198   0.40483   0.56615   0.00000  Uiso   1.00
C192   C     0.75236   0.35301   0.59536   0.00000  Uiso   1.00
C193   C     0.79230   0.24455   0.61341   0.00000  Uiso   1.00
C194   C     0.76697   0.59975   0.61992   0.00000  Uiso   1.00
C195   C     0.84368   0.61422   0.56837   0.00000  Uiso   1.00
C196   C     0.91515   0.65817   0.59858   0.00000  Uiso   1.00
C197   C     0.04929   0.72633   0.61850   0.00000  Uiso   1.00
C198   C     0.67165   0.60534   0.74469   0.00000  Uiso   1.00
C199   C     0.55842   0.63764   0.73796   0.00000  Uiso   1.00
C200   C     0.45874   0.68956   0.80114   0.00000  Uiso   1.00
C201   C     0.36424   0.71211   0.78257   0.00000  Uiso   1.00
C202   C     0.70117   0.51438   0.69765   0.00000  Uiso   1.00
C203   C     0.72152   0.46267   0.72694   0.00000  Uiso   1.00
C204   C     0.74721   0.38146   0.67444   0.00000  Uiso   1.00
C205   C     0.76184   0.62815   0.69886   0.00000  Uiso   1.00
C206   C     0.83321   0.67207   0.72916   0.00000  Uiso   1.00
C207   C     0.91001   0.68661   0.67766   0.00000  Uiso   1.00
H208   H     0.68511   0.53094   0.53790   0.00000  Uiso   1.00
H209   H     0.47320   0.60972   0.57926   0.00000  Uiso   1.00
H210   H     0.73596   0.38287   0.50507   0.00000  Uiso   1.00
H211   H     0.84763   0.59224   0.50729   0.00000  Uiso   1.00
H212   H     0.23599   0.70957   0.65992   0.00000  Uiso   1.00
H213   H     0.79007   0.23124   0.50348   0.00000  Uiso   1.00
H214   H     0.02556   0.67272   0.50815   0.00000  Uiso   1.00
H215   H     0.66765   0.62744   0.80614   0.00000  Uiso   1.00
H216   H     0.45479   0.71153   0.86222   0.00000  Uiso   1.00
H217   H     0.71755   0.48467   0.78803   0.00000  Uiso   1.00
H218   H     0.82922   0.69404   0.79025   0.00000  Uiso   1.00
H219   H     0.22104   0.79219   0.88958   0.00000  Uiso   1.00
H220   H     0.77513   0.31386   0.73314   0.00000  Uiso   1.00
H221   H     0.01061   0.75534   0.73782   0.00000  Uiso   1.00
O222   O     0.08879   0.80443   0.80680   0.00000  Uiso   1.00
O223   O     0.81574   0.17688   0.60156   0.00000  Uiso   1.00
O224   O     0.12469   0.75610   0.60768   0.00000  Uiso   1.00
N225   N     0.26169   0.71748   0.70627   0.00000  Uiso   1.00
N226   N     0.77970   0.27028   0.56002   0.00000  Uiso   1.00
N227   N     0.99989   0.68301   0.56438   0.00000  Uiso   1.00
N228   N     0.25365   0.76195   0.82985   0.00000  Uiso   1.00
N229   N     0.77166   0.31474   0.68360   0.00000  Uiso   1.00
N230   N     0.99184   0.72747   0.68796   0.00000  Uiso   1.00
C231   C     0.28422   0.39687   0.95812   0.00000  Uiso   1.00
C232   C     0.22286   0.33431   0.95624   0.00000  Uiso   1.00
C233   C     0.10883   0.35014   0.99905   0.00000  Uiso   1.00
C234   C     0.06887   0.28465   0.98913   0.00000  Uiso   1.00
C235   C     0.96269   0.19945   0.99392   0.00000  Uiso   1.00
C236   C     0.33230   0.37829   0.87224   0.00000  Uiso   1.00
C237   C     0.31028   0.43112   0.84442   0.00000  Uiso   1.00
C238   C     0.36246   0.40265   0.76379   0.00000  Uiso   1.00
C239   C     0.42625   0.38576   0.63817   0.00000  Uiso   1.00
C240   C     0.38784   0.37899   0.98165   0.00000  Uiso   1.00
C241   C     0.41254   0.43240   0.04582   0.00000  Uiso   1.00
C242   C     0.51151   0.40452   0.05729   0.00000  Uiso   1.00
C243   C     0.66153   0.38871   0.10155   0.00000  Uiso   1.00
C244   C     0.41605   0.25239   0.86439   0.00000  Uiso   1.00
C245   C     0.29447   0.25584   0.90532   0.00000  Uiso   1.00
C246   C     0.25468   0.19030   0.89534   0.00000  Uiso   1.00
C247   C     0.14061   0.20604   0.93813   0.00000  Uiso   1.00
C248   C     0.40390   0.29982   0.82132   0.00000  Uiso   1.00
C249   C     0.45614   0.27128   0.74071   0.00000  Uiso   1.00
C250   C     0.43420   0.32404   0.71278   0.00000  Uiso   1.00
C251   C     0.45944   0.30051   0.93074   0.00000  Uiso   1.00
C252   C     0.55839   0.27255   0.94211   0.00000  Uiso   1.00
C253   C     0.58324   0.32591   0.00628   0.00000  Uiso   1.00
H254   H     0.22847   0.45796   0.99776   0.00000  Uiso   1.00
H255   H     0.05344   0.41088   0.03844   0.00000  Uiso   1.00
H256   H     0.25487   0.49184   0.88384   0.00000  Uiso   1.00
H257   H     0.35711   0.49312   0.08520   0.00000  Uiso   1.00
H258   H     0.89094   0.32408   0.06106   0.00000  Uiso   1.00
H259   H     0.31571   0.49480   0.73509   0.00000  Uiso   1.00
H260   H     0.53131   0.49750   0.15970   0.00000  Uiso   1.00
H261   H     0.47180   0.19130   0.82474   0.00000  Uiso   1.00
H262   H     0.31011   0.12958   0.85593   0.00000  Uiso   1.00
H263   H     0.51155   0.21055   0.70133   0.00000  Uiso   1.00
H264   H     0.61379   0.21182   0.90270   0.00000  Uiso   1.00
H265   H     0.09927   0.09577   0.91293   0.00000  Uiso   1.00
H266   H     0.52404   0.26649   0.58695   0.00000  Uiso   1.00
H267   H     0.73963   0.26918   0.01157   0.00000  Uiso   1.00
O268   O     0.88434   0.17414   0.01062   0.00000  Uiso   1.00
O269   O     0.44164   0.39812   0.58295   0.00000  Uiso   1.00
O270   O     0.72449   0.40166   0.14004   0.00000  Uiso   1.00
N271   N     0.96217   0.27882   0.02193   0.00000  Uiso   1.00
N272   N     0.35928   0.43843   0.71716   0.00000  Uiso   1.00
N273   N     0.56086   0.44095   0.11413   0.00000  Uiso   1.00
N274   N     0.07427   0.15596   0.94223   0.00000  Uiso   1.00
N275   N     0.47138   0.31557   0.63745   0.00000  Uiso   1.00
N276   N     0.67297   0.31810   0.03442   0.00000  Uiso   1.00
