data_job_06192
_audit_creation_date              2018-12-19
_audit_creation_method            'Materials Studio'
_symmetry_space_group_name_H-M    'P1'
_symmetry_Int_Tables_number       1
_symmetry_cell_setting            triclinic
loop_
_symmetry_equiv_pos_as_xyz
  x,y,z
_cell_length_a                    16.7427
_cell_length_b                    16.4275
_cell_length_c                    15.8543
_cell_angle_alpha                 100.3930
_cell_angle_beta                  100.3660
_cell_angle_gamma                 99.5508
loop_
_atom_site_label
_atom_site_type_symbol
_atom_site_fract_x
_atom_site_fract_y
_atom_site_fract_z
_atom_site_U_iso_or_equiv
_atom_site_adp_type
_atom_site_occupancy
C1     C     0.87558   0.53082   0.89165   0.00000  Uiso   1.00
C2     C     0.78139   0.51992   0.87185   0.00000  Uiso   1.00
C3     C     0.73146   0.51449   0.93248   0.00000  Uiso   1.00
C4     C     0.64667   0.50459   0.90132   0.00000  Uiso   1.00
C5     C     0.50552   0.48827   0.88405   0.00000  Uiso   1.00
C6     C     0.89447   0.45702   0.83042   0.00000  Uiso   1.00
C7     C     0.93963   0.39873   0.85620   0.00000  Uiso   1.00
C8     C     0.95004   0.33589   0.79016   0.00000  Uiso   1.00
C9     C     0.98450   0.22197   0.70855   0.00000  Uiso   1.00
C10    C     0.90853   0.61008   0.86089   0.00000  Uiso   1.00
C11    C     0.96554   0.68048   0.91229   0.00000  Uiso   1.00
C12    C     0.98781   0.74650   0.87189   0.00000  Uiso   1.00
C13    C     0.04412   0.87022   0.83759   0.00000  Uiso   1.00
C14    C     0.81379   0.52289   0.72851   0.00000  Uiso   1.00
C15    C     0.74783   0.51561   0.78324   0.00000  Uiso   1.00
C16    C     0.66310   0.50572   0.75199   0.00000  Uiso   1.00
C17    C     0.61305   0.50028   0.81256   0.00000  Uiso   1.00
C18    C     0.86091   0.45271   0.74181   0.00000  Uiso   1.00
C19    C     0.87126   0.38995   0.67571   0.00000  Uiso   1.00
C20    C     0.91642   0.33158   0.70139   0.00000  Uiso   1.00
C21    C     0.87497   0.60578   0.77228   0.00000  Uiso   1.00
C22    C     0.89717   0.67170   0.73179   0.00000  Uiso   1.00
C23    C     0.95419   0.74218   0.78312   0.00000  Uiso   1.00
H24    H     0.90171   0.53417   0.96064   0.00000  Uiso   1.00
H25    H     0.75745   0.51782   0.00105   0.00000  Uiso   1.00
H26    H     0.96560   0.40209   0.92478   0.00000  Uiso   1.00
H27    H     0.99150   0.68379   0.98085   0.00000  Uiso   1.00
H28    H     0.58272   0.49776   0.00677   0.00000  Uiso   1.00
H29    H     0.02162   0.25374   0.84595   0.00000  Uiso   1.00
H30    H     0.07625   0.84776   0.96419   0.00000  Uiso   1.00
H31    H     0.78766   0.51953   0.65952   0.00000  Uiso   1.00
H32    H     0.63714   0.50238   0.68341   0.00000  Uiso   1.00
H33    H     0.84529   0.38664   0.60715   0.00000  Uiso   1.00
H34    H     0.87119   0.66834   0.66322   0.00000  Uiso   1.00
H35    H     0.48507   0.48522   0.74896   0.00000  Uiso   1.00
H36    H     0.92398   0.24121   0.58815   0.00000  Uiso   1.00
H37    H     0.97860   0.83523   0.70639   0.00000  Uiso   1.00
O38    O     0.43693   0.48044   0.89900   0.00000  Uiso   1.00
O39    O     0.01277   0.16031   0.68802   0.00000  Uiso   1.00
O40    O     0.08443   0.93965   0.84316   0.00000  Uiso   1.00
N41    N     0.58039   0.49718   0.94282   0.00000  Uiso   1.00
N42    N     0.99073   0.26903   0.79246   0.00000  Uiso   1.00
N43    N     0.04182   0.82438   0.90301   0.00000  Uiso   1.00
N44    N     0.52785   0.49044   0.80409   0.00000  Uiso   1.00
N45    N     0.93819   0.26228   0.65374   0.00000  Uiso   1.00
N46    N     0.98927   0.81764   0.76429   0.00000  Uiso   1.00
C47    C     0.88471   0.87702   0.53388   0.00000  Uiso   1.00
C48    C     0.86660   0.78106   0.52191   0.00000  Uiso   1.00
C49    C     0.92426   0.72975   0.51591   0.00000  Uiso   1.00
C50    C     0.89535   0.64346   0.50505   0.00000  Uiso   1.00
C51    C     0.87993   0.49959   0.48713   0.00000  Uiso   1.00
C52    C     0.82668   0.89616   0.45747   0.00000  Uiso   1.00
C53    C     0.85078   0.94162   0.39731   0.00000  Uiso   1.00
C54    C     0.78826   0.95223   0.33222   0.00000  Uiso   1.00
C55    C     0.71086   0.98709   0.21431   0.00000  Uiso   1.00
C56    C     0.85539   0.91135   0.61634   0.00000  Uiso   1.00
C57    C     0.90363   0.96961   0.68975   0.00000  Uiso   1.00
C58    C     0.86527   0.99302   0.75841   0.00000  Uiso   1.00
C59    C     0.83245   0.05147   0.88716   0.00000  Uiso   1.00
C60    C     0.73081   0.81502   0.52527   0.00000  Uiso   1.00
C61    C     0.78301   0.74739   0.51723   0.00000  Uiso   1.00
C62    C     0.75399   0.66116   0.50639   0.00000  Uiso   1.00
C63    C     0.81161   0.60973   0.50037   0.00000  Uiso   1.00
C64    C     0.74309   0.86248   0.45280   0.00000  Uiso   1.00
C65    C     0.68051   0.87303   0.38779   0.00000  Uiso   1.00
C66    C     0.70451   0.91849   0.32754   0.00000  Uiso   1.00
C67    C     0.77180   0.87767   0.61167   0.00000  Uiso   1.00
C68    C     0.73336   0.90101   0.68023   0.00000  Uiso   1.00
C69    C     0.78152   0.95929   0.75373   0.00000  Uiso   1.00
H70    H     0.94979   0.90324   0.53751   0.00000  Uiso   1.00
H71    H     0.98895   0.75584   0.51952   0.00000  Uiso   1.00
H72    H     0.91547   0.96768   0.40095   0.00000  Uiso   1.00
H73    H     0.96831   0.99566   0.69334   0.00000  Uiso   1.00
H74    H     0.99549   0.57756   0.49748   0.00000  Uiso   1.00
H75    H     0.84057   0.02427   0.24748   0.00000  Uiso   1.00
H76    H     0.95199   0.08326   0.86405   0.00000  Uiso   1.00
H77    H     0.66573   0.78880   0.52163   0.00000  Uiso   1.00
H78    H     0.68930   0.63512   0.50277   0.00000  Uiso   1.00
H79    H     0.61583   0.84696   0.38419   0.00000  Uiso   1.00
H80    H     0.66867   0.87494   0.67659   0.00000  Uiso   1.00
H81    H     0.75229   0.47958   0.48388   0.00000  Uiso   1.00
H82    H     0.59737   0.92629   0.23388   0.00000  Uiso   1.00
H83    H     0.70878   0.98528   0.85045   0.00000  Uiso   1.00
O84    O     0.89452   0.42953   0.47853   0.00000  Uiso   1.00
O85    O     0.69127   0.01561   0.15055   0.00000  Uiso   1.00
O86    O     0.83744   0.09300   0.95948   0.00000  Uiso   1.00
N87    N     0.93502   0.57559   0.49688   0.00000  Uiso   1.00
N88    N     0.79018   0.99323   0.26314   0.00000  Uiso   1.00
N89    N     0.89434   0.04840   0.83957   0.00000  Uiso   1.00
N90    N     0.80416   0.52287   0.48957   0.00000  Uiso   1.00
N91    N     0.65931   0.94051   0.25582   0.00000  Uiso   1.00
N92    N     0.76347   0.99568   0.83226   0.00000  Uiso   1.00
C93    C     0.52945   0.88706   0.88122   0.00000  Uiso   1.00
C94    C     0.51826   0.86802   0.78155   0.00000  Uiso   1.00
C95    C     0.51222   0.92648   0.72873   0.00000  Uiso   1.00
C96    C     0.50215   0.89648   0.63902   0.00000  Uiso   1.00
C97    C     0.48532   0.87990   0.48966   0.00000  Uiso   1.00
C98    C     0.45756   0.82852   0.90069   0.00000  Uiso   1.00
C99    C     0.40050   0.85378   0.94805   0.00000  Uiso   1.00
C100   C     0.33934   0.79054   0.95863   0.00000  Uiso   1.00
C101   C     0.22831   0.71264   0.99429   0.00000  Uiso   1.00
C102   C     0.60764   0.85689   0.91660   0.00000  Uiso   1.00
C103   C     0.67675   0.90598   0.97735   0.00000  Uiso   1.00
C104   C     0.74194   0.86661   0.00134   0.00000  Uiso   1.00
C105   C     0.86392   0.83274   0.06170   0.00000  Uiso   1.00
C106   C     0.52232   0.72983   0.81582   0.00000  Uiso   1.00
C107   C     0.51438   0.78261   0.74604   0.00000  Uiso   1.00
C108   C     0.50432   0.75252   0.65638   0.00000  Uiso   1.00
C109   C     0.49827   0.81093   0.60343   0.00000  Uiso   1.00
C110   C     0.45369   0.74312   0.86517   0.00000  Uiso   1.00
C111   C     0.39260   0.67983   0.87569   0.00000  Uiso   1.00
C112   C     0.33546   0.70498   0.92305   0.00000  Uiso   1.00
C113   C     0.60376   0.77148   0.88108   0.00000  Uiso   1.00
C114   C     0.66885   0.73202   0.90499   0.00000  Uiso   1.00
C115   C     0.73805   0.78105   0.96576   0.00000  Uiso   1.00
H116   H     0.53247   0.95355   0.90888   0.00000  Uiso   1.00
H117   H     0.51521   0.99257   0.75624   0.00000  Uiso   1.00
H118   H     0.40352   0.91988   0.97553   0.00000  Uiso   1.00
H119   H     0.67972   0.97207   0.00482   0.00000  Uiso   1.00
H120   H     0.49434   0.99816   0.57136   0.00000  Uiso   1.00
H121   H     0.25884   0.84489   0.03377   0.00000  Uiso   1.00
H122   H     0.84128   0.95495   0.09553   0.00000  Uiso   1.00
H123   H     0.51930   0.66333   0.78817   0.00000  Uiso   1.00
H124   H     0.50133   0.68643   0.62891   0.00000  Uiso   1.00
H125   H     0.38963   0.61374   0.84820   0.00000  Uiso   1.00
H126   H     0.66583   0.66593   0.87749   0.00000  Uiso   1.00
H127   H     0.48307   0.74968   0.46800   0.00000  Uiso   1.00
H128   H     0.24757   0.59642   0.93042   0.00000  Uiso   1.00
H129   H     0.83001   0.70647   0.99218   0.00000  Uiso   1.00
O130   O     0.47709   0.89434   0.41709   0.00000  Uiso   1.00
O131   O     0.16813   0.69327   0.02377   0.00000  Uiso   1.00
O132   O     0.93228   0.83766   0.10479   0.00000  Uiso   1.00
N133   N     0.49417   0.93651   0.56889   0.00000  Uiso   1.00
N134   N     0.27399   0.79322   0.00120   0.00000  Uiso   1.00
N135   N     0.81851   0.89611   0.05897   0.00000  Uiso   1.00
N136   N     0.48811   0.80281   0.51328   0.00000  Uiso   1.00
N137   N     0.26792   0.65952   0.94559   0.00000  Uiso   1.00
N138   N     0.81244   0.76241   0.00335   0.00000  Uiso   1.00
C139   C     0.12442   0.46918   0.10835   0.00000  Uiso   1.00
C140   C     0.21861   0.48008   0.12815   0.00000  Uiso   1.00
C141   C     0.26854   0.48551   0.06752   0.00000  Uiso   1.00
C142   C     0.35333   0.49541   0.09868   0.00000  Uiso   1.00
C143   C     0.49448   0.51173   0.11595   0.00000  Uiso   1.00
C144   C     0.10553   0.54298   0.16958   0.00000  Uiso   1.00
C145   C     0.06037   0.60127   0.14380   0.00000  Uiso   1.00
C146   C     0.04996   0.66411   0.20984   0.00000  Uiso   1.00
C147   C     0.01550   0.77803   0.29145   0.00000  Uiso   1.00
C148   C     0.09147   0.38992   0.13911   0.00000  Uiso   1.00
C149   C     0.03446   0.31952   0.08771   0.00000  Uiso   1.00
C150   C     0.01219   0.25350   0.12811   0.00000  Uiso   1.00
C151   C     0.95588   0.12978   0.16241   0.00000  Uiso   1.00
C152   C     0.18621   0.47711   0.27149   0.00000  Uiso   1.00
C153   C     0.25217   0.48439   0.21676   0.00000  Uiso   1.00
C154   C     0.33690   0.49428   0.24801   0.00000  Uiso   1.00
C155   C     0.38695   0.49972   0.18744   0.00000  Uiso   1.00
C156   C     0.13909   0.54729   0.25819   0.00000  Uiso   1.00
C157   C     0.12874   0.61005   0.32429   0.00000  Uiso   1.00
C158   C     0.08358   0.66842   0.29861   0.00000  Uiso   1.00
C159   C     0.12503   0.39422   0.22772   0.00000  Uiso   1.00
C160   C     0.10283   0.32830   0.26821   0.00000  Uiso   1.00
C161   C     0.04581   0.25782   0.21688   0.00000  Uiso   1.00
H162   H     0.09829   0.46583   0.03936   0.00000  Uiso   1.00
H163   H     0.24255   0.48218   0.99895   0.00000  Uiso   1.00
H164   H     0.03440   0.59791   0.07522   0.00000  Uiso   1.00
H165   H     0.00850   0.31621   0.01915   0.00000  Uiso   1.00
H166   H     0.41728   0.50224   0.99323   0.00000  Uiso   1.00
H167   H     0.97838   0.74626   0.15405   0.00000  Uiso   1.00
H168   H     0.92375   0.15224   0.03581   0.00000  Uiso   1.00
H169   H     0.21234   0.48047   0.34048   0.00000  Uiso   1.00
H170   H     0.36286   0.49762   0.31659   0.00000  Uiso   1.00
H171   H     0.15471   0.61336   0.39285   0.00000  Uiso   1.00
H172   H     0.12881   0.33166   0.33678   0.00000  Uiso   1.00
H173   H     0.51493   0.51478   0.25104   0.00000  Uiso   1.00
H174   H     0.07602   0.75879   0.41185   0.00000  Uiso   1.00
H175   H     0.02140   0.16477   0.29361   0.00000  Uiso   1.00
O176   O     0.56307   0.51956   0.10100   0.00000  Uiso   1.00
O177   O     0.98723   0.83969   0.31198   0.00000  Uiso   1.00
O178   O     0.91557   0.06035   0.15684   0.00000  Uiso   1.00
N179   N     0.41961   0.50282   0.05718   0.00000  Uiso   1.00
N180   N     0.00927   0.73097   0.20754   0.00000  Uiso   1.00
N181   N     0.95818   0.17562   0.09699   0.00000  Uiso   1.00
N182   N     0.47215   0.50956   0.19591   0.00000  Uiso   1.00
N183   N     0.06181   0.73771   0.34626   0.00000  Uiso   1.00
N184   N     0.01073   0.18236   0.23571   0.00000  Uiso   1.00
C185   C     0.11529   0.12298   0.46612   0.00000  Uiso   1.00
C186   C     0.13340   0.21894   0.47809   0.00000  Uiso   1.00
C187   C     0.07574   0.27025   0.48409   0.00000  Uiso   1.00
C188   C     0.10465   0.35654   0.49495   0.00000  Uiso   1.00
C189   C     0.12007   0.50041   0.51287   0.00000  Uiso   1.00
C190   C     0.17332   0.10384   0.54253   0.00000  Uiso   1.00
C191   C     0.14922   0.05838   0.60269   0.00000  Uiso   1.00
C192   C     0.21174   0.04777   0.66778   0.00000  Uiso   1.00
C193   C     0.28914   0.01291   0.78569   0.00000  Uiso   1.00
C194   C     0.14461   0.08865   0.38366   0.00000  Uiso   1.00
C195   C     0.09637   0.03039   0.31025   0.00000  Uiso   1.00
C196   C     0.13473   0.00698   0.24159   0.00000  Uiso   1.00
C197   C     0.16755   0.94853   0.11284   0.00000  Uiso   1.00
C198   C     0.26919   0.18498   0.47473   0.00000  Uiso   1.00
C199   C     0.21699   0.25261   0.48277   0.00000  Uiso   1.00
C200   C     0.24601   0.33884   0.49361   0.00000  Uiso   1.00
C201   C     0.18839   0.39027   0.49963   0.00000  Uiso   1.00
C202   C     0.25691   0.13752   0.54720   0.00000  Uiso   1.00
C203   C     0.31949   0.12697   0.61221   0.00000  Uiso   1.00
C204   C     0.29549   0.08151   0.67246   0.00000  Uiso   1.00
C205   C     0.22820   0.12233   0.38833   0.00000  Uiso   1.00
C206   C     0.26664   0.09899   0.31977   0.00000  Uiso   1.00
C207   C     0.21848   0.04071   0.24627   0.00000  Uiso   1.00
H208   H     0.05021   0.09676   0.46249   0.00000  Uiso   1.00
H209   H     0.01105   0.24416   0.48048   0.00000  Uiso   1.00
H210   H     0.08453   0.03232   0.59905   0.00000  Uiso   1.00
H211   H     0.03169   0.00434   0.30666   0.00000  Uiso   1.00
H212   H     0.00451   0.42244   0.50252   0.00000  Uiso   1.00
H213   H     0.15943   0.97573   0.75252   0.00000  Uiso   1.00
H214   H     0.04801   0.91673   0.13595   0.00000  Uiso   1.00
H215   H     0.33427   0.21120   0.47837   0.00000  Uiso   1.00
H216   H     0.31070   0.36488   0.49723   0.00000  Uiso   1.00
H217   H     0.38417   0.15304   0.61581   0.00000  Uiso   1.00
H218   H     0.33133   0.12506   0.32341   0.00000  Uiso   1.00
H219   H     0.24771   0.52042   0.51612   0.00000  Uiso   1.00
H220   H     0.40263   0.07371   0.76612   0.00000  Uiso   1.00
H221   H     0.29122   0.01472   0.14955   0.00000  Uiso   1.00
O222   O     0.10548   0.57047   0.52147   0.00000  Uiso   1.00
O223   O     0.30873   0.98439   0.84945   0.00000  Uiso   1.00
O224   O     0.16256   0.90700   0.04052   0.00000  Uiso   1.00
N225   N     0.06498   0.42441   0.50312   0.00000  Uiso   1.00
N226   N     0.20982   0.00677   0.73686   0.00000  Uiso   1.00
N227   N     0.10566   0.95160   0.16043   0.00000  Uiso   1.00
N228   N     0.19584   0.47713   0.51043   0.00000  Uiso   1.00
N229   N     0.34069   0.05949   0.74418   0.00000  Uiso   1.00
N230   N     0.23653   0.00432   0.16774   0.00000  Uiso   1.00
C231   C     0.47055   0.11294   0.11878   0.00000  Uiso   1.00
C232   C     0.48174   0.13198   0.21845   0.00000  Uiso   1.00
C233   C     0.48778   0.07352   0.27127   0.00000  Uiso   1.00
C234   C     0.49785   0.10352   0.36098   0.00000  Uiso   1.00
C235   C     0.51468   0.12010   0.51034   0.00000  Uiso   1.00
C236   C     0.54244   0.17148   0.09931   0.00000  Uiso   1.00
C237   C     0.59950   0.14622   0.05195   0.00000  Uiso   1.00
C238   C     0.66066   0.20946   0.04137   0.00000  Uiso   1.00
C239   C     0.77169   0.28736   0.00571   0.00000  Uiso   1.00
C240   C     0.39236   0.14311   0.08340   0.00000  Uiso   1.00
C241   C     0.32325   0.09402   0.02265   0.00000  Uiso   1.00
C242   C     0.25806   0.13339   0.99866   0.00000  Uiso   1.00
C243   C     0.13608   0.16726   0.93830   0.00000  Uiso   1.00
C244   C     0.47768   0.27017   0.18418   0.00000  Uiso   1.00
C245   C     0.48562   0.21739   0.25396   0.00000  Uiso   1.00
C246   C     0.49568   0.24748   0.34362   0.00000  Uiso   1.00
C247   C     0.50173   0.18907   0.39657   0.00000  Uiso   1.00
C248   C     0.54631   0.25688   0.13483   0.00000  Uiso   1.00
C249   C     0.60740   0.32017   0.12431   0.00000  Uiso   1.00
C250   C     0.66454   0.29502   0.07695   0.00000  Uiso   1.00
C251   C     0.39624   0.22852   0.11892   0.00000  Uiso   1.00
C252   C     0.33115   0.26798   0.09501   0.00000  Uiso   1.00
C253   C     0.26195   0.21895   0.03424   0.00000  Uiso   1.00
H254   H     0.46753   0.04645   0.09112   0.00000  Uiso   1.00
H255   H     0.48479   0.00743   0.24376   0.00000  Uiso   1.00
H256   H     0.59648   0.08012   0.02447   0.00000  Uiso   1.00
H257   H     0.32028   0.02793   0.99518   0.00000  Uiso   1.00
H258   H     0.50566   0.00184   0.42864   0.00000  Uiso   1.00
H259   H     0.74116   0.15511   0.96623   0.00000  Uiso   1.00
H260   H     0.15872   0.04505   0.90447   0.00000  Uiso   1.00
H261   H     0.48070   0.33667   0.21183   0.00000  Uiso   1.00
H262   H     0.49867   0.31357   0.37109   0.00000  Uiso   1.00
H263   H     0.61037   0.38626   0.15180   0.00000  Uiso   1.00
H264   H     0.33417   0.33407   0.12251   0.00000  Uiso   1.00
H265   H     0.51693   0.25032   0.53200   0.00000  Uiso   1.00
H266   H     0.75243   0.40358   0.06958   0.00000  Uiso   1.00
H267   H     0.16999   0.29353   0.00782   0.00000  Uiso   1.00
O268   O     0.52291   0.10566   0.58291   0.00000  Uiso   1.00
O269   O     0.83186   0.30673   0.97623   0.00000  Uiso   1.00
O270   O     0.06772   0.16234   0.89521   0.00000  Uiso   1.00
N271   N     0.50583   0.06349   0.43111   0.00000  Uiso   1.00
N272   N     0.72601   0.20678   0.99879   0.00000  Uiso   1.00
N273   N     0.18149   0.10389   0.94103   0.00000  Uiso   1.00
N274   N     0.51189   0.19719   0.48672   0.00000  Uiso   1.00
N275   N     0.73208   0.34048   0.05441   0.00000  Uiso   1.00
N276   N     0.18756   0.23759   0.99665   0.00000  Uiso   1.00
