data_job_03713
_audit_creation_date              2018-12-19
_audit_creation_method            'Materials Studio'
_symmetry_space_group_name_H-M    'P1'
_symmetry_Int_Tables_number       1
_symmetry_cell_setting            triclinic
loop_
_symmetry_equiv_pos_as_xyz
  x,y,z
_cell_length_a                    12.0510
_cell_length_b                    12.0510
_cell_length_c                    34.5804
_cell_angle_alpha                 90.0000
_cell_angle_beta                  90.0000
_cell_angle_gamma                 90.0000
loop_
_atom_site_label
_atom_site_type_symbol
_atom_site_fract_x
_atom_site_fract_y
_atom_site_fract_z
_atom_site_U_iso_or_equiv
_atom_site_adp_type
_atom_site_occupancy
C1     C     0.52087   0.86939   0.93930   0.00000  Uiso   1.00
C2     C     0.62967   0.80485   0.94030   0.00000  Uiso   1.00
C3     C     0.73328   0.84874   0.94885   0.00000  Uiso   1.00
C4     C     0.82261   0.77601   0.94824   0.00000  Uiso   1.00
C5     C     0.99368   0.69293   0.95111   0.00000  Uiso   1.00
C6     C     0.47232   0.85094   0.89909   0.00000  Uiso   1.00
C7     C     0.44360   0.93359   0.87299   0.00000  Uiso   1.00
C8     C     0.40046   0.89966   0.83769   0.00000  Uiso   1.00
C9     C     0.32715   0.88814   0.77660   0.00000  Uiso   1.00
C10    C     0.44308   0.81038   0.96735   0.00000  Uiso   1.00
C11    C     0.38976   0.85892   0.99864   0.00000  Uiso   1.00
C12    C     0.32198   0.79084   0.02081   0.00000  Uiso   1.00
C13    C     0.20328   0.71635   0.06570   0.00000  Uiso   1.00
C14    C     0.49528   0.66218   0.92302   0.00000  Uiso   1.00
C15    C     0.61577   0.69230   0.93145   0.00000  Uiso   1.00
C16    C     0.70497   0.61949   0.93083   0.00000  Uiso   1.00
C17    C     0.80869   0.66326   0.93938   0.00000  Uiso   1.00
C18    C     0.45842   0.73840   0.89024   0.00000  Uiso   1.00
C19    C     0.41530   0.70434   0.85497   0.00000  Uiso   1.00
C20    C     0.38653   0.78691   0.82883   0.00000  Uiso   1.00
C21    C     0.42919   0.69783   0.95851   0.00000  Uiso   1.00
C22    C     0.36146   0.62967   0.98063   0.00000  Uiso   1.00
C23    C     0.30805   0.67809   0.01195   0.00000  Uiso   1.00
H24    H     0.53168   0.95701   0.94619   0.00000  Uiso   1.00
H25    H     0.74400   0.93585   0.95569   0.00000  Uiso   1.00
H26    H     0.45436   0.02068   0.87985   0.00000  Uiso   1.00
H27    H     0.40053   0.94602   0.00548   0.00000  Uiso   1.00
H28    H     0.97327   0.86275   0.96231   0.00000  Uiso   1.00
H29    H     0.36251   0.04163   0.80240   0.00000  Uiso   1.00
H30    H     0.24900   0.88420   0.06732   0.00000  Uiso   1.00
H31    H     0.48446   0.57456   0.91613   0.00000  Uiso   1.00
H32    H     0.69419   0.53239   0.92398   0.00000  Uiso   1.00
H33    H     0.40455   0.61723   0.84814   0.00000  Uiso   1.00
H34    H     0.35073   0.54258   0.97377   0.00000  Uiso   1.00
H35    H     0.93284   0.53529   0.93657   0.00000  Uiso   1.00
H36    H     0.32208   0.71418   0.77666   0.00000  Uiso   1.00
H37    H     0.20858   0.55675   0.04158   0.00000  Uiso   1.00
O38    O     0.09188   0.67820   0.95514   0.00000  Uiso   1.00
O39    O     0.29057   0.91288   0.74534   0.00000  Uiso   1.00
O40    O     0.14166   0.70634   0.09291   0.00000  Uiso   1.00
N41    N     0.93497   0.79146   0.95518   0.00000  Uiso   1.00
N42    N     0.36396   0.95870   0.80567   0.00000  Uiso   1.00
N43    N     0.25782   0.81153   0.05335   0.00000  Uiso   1.00
N44    N     0.91322   0.61526   0.94134   0.00000  Uiso   1.00
N45    N     0.34221   0.78250   0.79182   0.00000  Uiso   1.00
N46    N     0.23607   0.63533   0.03950   0.00000  Uiso   1.00
C47    C     0.47913   0.13061   0.43930   0.00000  Uiso   1.00
C48    C     0.37033   0.19515   0.44030   0.00000  Uiso   1.00
C49    C     0.26672   0.15126   0.44885   0.00000  Uiso   1.00
C50    C     0.17739   0.22399   0.44824   0.00000  Uiso   1.00
C51    C     0.00632   0.30707   0.45111   0.00000  Uiso   1.00
C52    C     0.52768   0.14906   0.39909   0.00000  Uiso   1.00
C53    C     0.55640   0.06641   0.37299   0.00000  Uiso   1.00
C54    C     0.59954   0.10034   0.33769   0.00000  Uiso   1.00
C55    C     0.67285   0.11186   0.27660   0.00000  Uiso   1.00
C56    C     0.55692   0.18962   0.46735   0.00000  Uiso   1.00
C57    C     0.61024   0.14108   0.49864   0.00000  Uiso   1.00
C58    C     0.67802   0.20916   0.52081   0.00000  Uiso   1.00
C59    C     0.79672   0.28365   0.56570   0.00000  Uiso   1.00
C60    C     0.50472   0.33782   0.42302   0.00000  Uiso   1.00
C61    C     0.38423   0.30770   0.43145   0.00000  Uiso   1.00
C62    C     0.29503   0.38051   0.43083   0.00000  Uiso   1.00
C63    C     0.19131   0.33674   0.43938   0.00000  Uiso   1.00
C64    C     0.54158   0.26160   0.39024   0.00000  Uiso   1.00
C65    C     0.58470   0.29566   0.35497   0.00000  Uiso   1.00
C66    C     0.61347   0.21309   0.32883   0.00000  Uiso   1.00
C67    C     0.57081   0.30217   0.45851   0.00000  Uiso   1.00
C68    C     0.63854   0.37033   0.48063   0.00000  Uiso   1.00
C69    C     0.69195   0.32191   0.51195   0.00000  Uiso   1.00
H70    H     0.46832   0.04299   0.44619   0.00000  Uiso   1.00
H71    H     0.25600   0.06415   0.45569   0.00000  Uiso   1.00
H72    H     0.54564   0.97932   0.37985   0.00000  Uiso   1.00
H73    H     0.59947   0.05398   0.50548   0.00000  Uiso   1.00
H74    H     0.02673   0.13725   0.46231   0.00000  Uiso   1.00
H75    H     0.63749   0.95837   0.30240   0.00000  Uiso   1.00
H76    H     0.75100   0.11580   0.56732   0.00000  Uiso   1.00
H77    H     0.51554   0.42544   0.41613   0.00000  Uiso   1.00
H78    H     0.30581   0.46761   0.42398   0.00000  Uiso   1.00
H79    H     0.59545   0.38277   0.34814   0.00000  Uiso   1.00
H80    H     0.64927   0.45742   0.47377   0.00000  Uiso   1.00
H81    H     0.06716   0.46471   0.43657   0.00000  Uiso   1.00
H82    H     0.67792   0.28582   0.27666   0.00000  Uiso   1.00
H83    H     0.79142   0.44325   0.54158   0.00000  Uiso   1.00
O84    O     0.90812   0.32180   0.45514   0.00000  Uiso   1.00
O85    O     0.70943   0.08712   0.24534   0.00000  Uiso   1.00
O86    O     0.85834   0.29366   0.59291   0.00000  Uiso   1.00
N87    N     0.06503   0.20854   0.45518   0.00000  Uiso   1.00
N88    N     0.63604   0.04130   0.30567   0.00000  Uiso   1.00
N89    N     0.74218   0.18847   0.55335   0.00000  Uiso   1.00
N90    N     0.08678   0.38474   0.44134   0.00000  Uiso   1.00
N91    N     0.65779   0.21750   0.29182   0.00000  Uiso   1.00
N92    N     0.76393   0.36467   0.53950   0.00000  Uiso   1.00
C93    C     0.63061   0.02087   0.68930   0.00000  Uiso   1.00
C94    C     0.69515   0.12967   0.69030   0.00000  Uiso   1.00
C95    C     0.65126   0.23328   0.69885   0.00000  Uiso   1.00
C96    C     0.72399   0.32261   0.69824   0.00000  Uiso   1.00
C97    C     0.80707   0.49368   0.70111   0.00000  Uiso   1.00
C98    C     0.64906   0.97232   0.64909   0.00000  Uiso   1.00
C99    C     0.56641   0.94360   0.62299   0.00000  Uiso   1.00
C100   C     0.60034   0.90046   0.58769   0.00000  Uiso   1.00
C101   C     0.61186   0.82715   0.52660   0.00000  Uiso   1.00
C102   C     0.68962   0.94308   0.71735   0.00000  Uiso   1.00
C103   C     0.64108   0.88976   0.74864   0.00000  Uiso   1.00
C104   C     0.70916   0.82198   0.77081   0.00000  Uiso   1.00
C105   C     0.78365   0.70328   0.81570   0.00000  Uiso   1.00
C106   C     0.83782   0.99528   0.67302   0.00000  Uiso   1.00
C107   C     0.80770   0.11577   0.68145   0.00000  Uiso   1.00
C108   C     0.88051   0.20497   0.68083   0.00000  Uiso   1.00
C109   C     0.83674   0.30869   0.68938   0.00000  Uiso   1.00
C110   C     0.76160   0.95842   0.64024   0.00000  Uiso   1.00
C111   C     0.79566   0.91530   0.60497   0.00000  Uiso   1.00
C112   C     0.71309   0.88653   0.57883   0.00000  Uiso   1.00
C113   C     0.80217   0.92919   0.70851   0.00000  Uiso   1.00
C114   C     0.87033   0.86146   0.73063   0.00000  Uiso   1.00
C115   C     0.82191   0.80805   0.76195   0.00000  Uiso   1.00
H116   H     0.54299   0.03168   0.69619   0.00000  Uiso   1.00
H117   H     0.56415   0.24400   0.70569   0.00000  Uiso   1.00
H118   H     0.47932   0.95436   0.62985   0.00000  Uiso   1.00
H119   H     0.55398   0.90053   0.75548   0.00000  Uiso   1.00
H120   H     0.63725   0.47327   0.71231   0.00000  Uiso   1.00
H121   H     0.45837   0.86251   0.55240   0.00000  Uiso   1.00
H122   H     0.61580   0.74900   0.81732   0.00000  Uiso   1.00
H123   H     0.92544   0.98446   0.66613   0.00000  Uiso   1.00
H124   H     0.96761   0.19419   0.67398   0.00000  Uiso   1.00
H125   H     0.88277   0.90455   0.59814   0.00000  Uiso   1.00
H126   H     0.95742   0.85073   0.72377   0.00000  Uiso   1.00
H127   H     0.96471   0.43284   0.68657   0.00000  Uiso   1.00
H128   H     0.78582   0.82208   0.52666   0.00000  Uiso   1.00
H129   H     0.94325   0.70858   0.79158   0.00000  Uiso   1.00
O130   O     0.82180   0.59188   0.70514   0.00000  Uiso   1.00
O131   O     0.58712   0.79057   0.49534   0.00000  Uiso   1.00
O132   O     0.79366   0.64166   0.84291   0.00000  Uiso   1.00
N133   N     0.70854   0.43497   0.70518   0.00000  Uiso   1.00
N134   N     0.54130   0.86396   0.55567   0.00000  Uiso   1.00
N135   N     0.68847   0.75782   0.80335   0.00000  Uiso   1.00
N136   N     0.88474   0.41322   0.69134   0.00000  Uiso   1.00
N137   N     0.71750   0.84221   0.54182   0.00000  Uiso   1.00
N138   N     0.86467   0.73607   0.78950   0.00000  Uiso   1.00
C139   C     0.36939   0.97913   0.18930   0.00000  Uiso   1.00
C140   C     0.30485   0.87033   0.19030   0.00000  Uiso   1.00
C141   C     0.34874   0.76672   0.19885   0.00000  Uiso   1.00
C142   C     0.27601   0.67739   0.19824   0.00000  Uiso   1.00
C143   C     0.19293   0.50632   0.20111   0.00000  Uiso   1.00
C144   C     0.35094   0.02768   0.14909   0.00000  Uiso   1.00
C145   C     0.43359   0.05640   0.12299   0.00000  Uiso   1.00
C146   C     0.39966   0.09954   0.08769   0.00000  Uiso   1.00
C147   C     0.38814   0.17285   0.02660   0.00000  Uiso   1.00
C148   C     0.31038   0.05692   0.21735   0.00000  Uiso   1.00
C149   C     0.35892   0.11024   0.24864   0.00000  Uiso   1.00
C150   C     0.29084   0.17802   0.27081   0.00000  Uiso   1.00
C151   C     0.21635   0.29672   0.31570   0.00000  Uiso   1.00
C152   C     0.16218   0.00472   0.17302   0.00000  Uiso   1.00
C153   C     0.19230   0.88423   0.18145   0.00000  Uiso   1.00
C154   C     0.11949   0.79503   0.18083   0.00000  Uiso   1.00
C155   C     0.16326   0.69131   0.18938   0.00000  Uiso   1.00
C156   C     0.23840   0.04158   0.14024   0.00000  Uiso   1.00
C157   C     0.20434   0.08470   0.10497   0.00000  Uiso   1.00
C158   C     0.28691   0.11347   0.07883   0.00000  Uiso   1.00
C159   C     0.19783   0.07081   0.20851   0.00000  Uiso   1.00
C160   C     0.12967   0.13854   0.23063   0.00000  Uiso   1.00
C161   C     0.17809   0.19195   0.26195   0.00000  Uiso   1.00
H162   H     0.45701   0.96832   0.19619   0.00000  Uiso   1.00
H163   H     0.43585   0.75600   0.20569   0.00000  Uiso   1.00
H164   H     0.52068   0.04564   0.12985   0.00000  Uiso   1.00
H165   H     0.44602   0.09947   0.25548   0.00000  Uiso   1.00
H166   H     0.36275   0.52673   0.21231   0.00000  Uiso   1.00
H167   H     0.54163   0.13749   0.05240   0.00000  Uiso   1.00
H168   H     0.38420   0.25100   0.31732   0.00000  Uiso   1.00
H169   H     0.07456   0.01554   0.16613   0.00000  Uiso   1.00
H170   H     0.03239   0.80581   0.17398   0.00000  Uiso   1.00
H171   H     0.11723   0.09545   0.09814   0.00000  Uiso   1.00
H172   H     0.04258   0.14927   0.22377   0.00000  Uiso   1.00
H173   H     0.03529   0.56716   0.18657   0.00000  Uiso   1.00
H174   H     0.21418   0.17792   0.02666   0.00000  Uiso   1.00
H175   H     0.05675   0.29142   0.29158   0.00000  Uiso   1.00
O176   O     0.17820   0.40812   0.20514   0.00000  Uiso   1.00
O177   O     0.41288   0.20943   0.99534   0.00000  Uiso   1.00
O178   O     0.20634   0.35834   0.34291   0.00000  Uiso   1.00
N179   N     0.29146   0.56503   0.20518   0.00000  Uiso   1.00
N180   N     0.45870   0.13604   0.05567   0.00000  Uiso   1.00
N181   N     0.31153   0.24218   0.30335   0.00000  Uiso   1.00
N182   N     0.11526   0.58678   0.19134   0.00000  Uiso   1.00
N183   N     0.28250   0.15779   0.04182   0.00000  Uiso   1.00
N184   N     0.13533   0.26393   0.28950   0.00000  Uiso   1.00
C185   C     0.97913   0.36939   0.81070   0.00000  Uiso   1.00
C186   C     0.87033   0.30485   0.80970   0.00000  Uiso   1.00
C187   C     0.76672   0.34874   0.80115   0.00000  Uiso   1.00
C188   C     0.67739   0.27601   0.80176   0.00000  Uiso   1.00
C189   C     0.50632   0.19293   0.79889   0.00000  Uiso   1.00
C190   C     0.02768   0.35094   0.85091   0.00000  Uiso   1.00
C191   C     0.05640   0.43359   0.87701   0.00000  Uiso   1.00
C192   C     0.09954   0.39966   0.91231   0.00000  Uiso   1.00
C193   C     0.17285   0.38814   0.97340   0.00000  Uiso   1.00
C194   C     0.05692   0.31038   0.78265   0.00000  Uiso   1.00
C195   C     0.11024   0.35892   0.75136   0.00000  Uiso   1.00
C196   C     0.17802   0.29084   0.72919   0.00000  Uiso   1.00
C197   C     0.29672   0.21635   0.68430   0.00000  Uiso   1.00
C198   C     0.00472   0.16218   0.82698   0.00000  Uiso   1.00
C199   C     0.88423   0.19230   0.81855   0.00000  Uiso   1.00
C200   C     0.79503   0.11949   0.81917   0.00000  Uiso   1.00
C201   C     0.69131   0.16326   0.81062   0.00000  Uiso   1.00
C202   C     0.04158   0.23840   0.85976   0.00000  Uiso   1.00
C203   C     0.08470   0.20434   0.89503   0.00000  Uiso   1.00
C204   C     0.11347   0.28691   0.92117   0.00000  Uiso   1.00
C205   C     0.07081   0.19783   0.79149   0.00000  Uiso   1.00
C206   C     0.13854   0.12967   0.76937   0.00000  Uiso   1.00
C207   C     0.19195   0.17809   0.73805   0.00000  Uiso   1.00
H208   H     0.96832   0.45701   0.80381   0.00000  Uiso   1.00
H209   H     0.75600   0.43585   0.79431   0.00000  Uiso   1.00
H210   H     0.04564   0.52068   0.87015   0.00000  Uiso   1.00
H211   H     0.09947   0.44602   0.74452   0.00000  Uiso   1.00
H212   H     0.52673   0.36275   0.78769   0.00000  Uiso   1.00
H213   H     0.13749   0.54163   0.94760   0.00000  Uiso   1.00
H214   H     0.25100   0.38420   0.68268   0.00000  Uiso   1.00
H215   H     0.01554   0.07456   0.83387   0.00000  Uiso   1.00
H216   H     0.80581   0.03239   0.82602   0.00000  Uiso   1.00
H217   H     0.09545   0.11723   0.90186   0.00000  Uiso   1.00
H218   H     0.14927   0.04258   0.77623   0.00000  Uiso   1.00
H219   H     0.56716   0.03529   0.81343   0.00000  Uiso   1.00
H220   H     0.17792   0.21418   0.97334   0.00000  Uiso   1.00
H221   H     0.29142   0.05675   0.70842   0.00000  Uiso   1.00
O222   O     0.40812   0.17820   0.79486   0.00000  Uiso   1.00
O223   O     0.20943   0.41288   0.00466   0.00000  Uiso   1.00
O224   O     0.35834   0.20634   0.65709   0.00000  Uiso   1.00
N225   N     0.56503   0.29146   0.79482   0.00000  Uiso   1.00
N226   N     0.13604   0.45870   0.94433   0.00000  Uiso   1.00
N227   N     0.24218   0.31153   0.69665   0.00000  Uiso   1.00
N228   N     0.58678   0.11526   0.80866   0.00000  Uiso   1.00
N229   N     0.15779   0.28250   0.95818   0.00000  Uiso   1.00
N230   N     0.26393   0.13533   0.71050   0.00000  Uiso   1.00
C231   C     0.02087   0.63061   0.31070   0.00000  Uiso   1.00
C232   C     0.12967   0.69515   0.30970   0.00000  Uiso   1.00
C233   C     0.23328   0.65126   0.30115   0.00000  Uiso   1.00
C234   C     0.32261   0.72399   0.30176   0.00000  Uiso   1.00
C235   C     0.49368   0.80707   0.29889   0.00000  Uiso   1.00
C236   C     0.97232   0.64906   0.35091   0.00000  Uiso   1.00
C237   C     0.94360   0.56641   0.37701   0.00000  Uiso   1.00
C238   C     0.90046   0.60034   0.41231   0.00000  Uiso   1.00
C239   C     0.82715   0.61186   0.47340   0.00000  Uiso   1.00
C240   C     0.94308   0.68962   0.28265   0.00000  Uiso   1.00
C241   C     0.88976   0.64108   0.25136   0.00000  Uiso   1.00
C242   C     0.82198   0.70916   0.22919   0.00000  Uiso   1.00
C243   C     0.70328   0.78365   0.18430   0.00000  Uiso   1.00
C244   C     0.99528   0.83782   0.32698   0.00000  Uiso   1.00
C245   C     0.11577   0.80770   0.31855   0.00000  Uiso   1.00
C246   C     0.20497   0.88051   0.31917   0.00000  Uiso   1.00
C247   C     0.30869   0.83674   0.31062   0.00000  Uiso   1.00
C248   C     0.95842   0.76160   0.35976   0.00000  Uiso   1.00
C249   C     0.91530   0.79566   0.39503   0.00000  Uiso   1.00
C250   C     0.88653   0.71309   0.42117   0.00000  Uiso   1.00
C251   C     0.92919   0.80217   0.29149   0.00000  Uiso   1.00
C252   C     0.86146   0.87033   0.26937   0.00000  Uiso   1.00
C253   C     0.80805   0.82191   0.23805   0.00000  Uiso   1.00
H254   H     0.03168   0.54299   0.30381   0.00000  Uiso   1.00
H255   H     0.24400   0.56415   0.29431   0.00000  Uiso   1.00
H256   H     0.95436   0.47932   0.37015   0.00000  Uiso   1.00
H257   H     0.90053   0.55398   0.24452   0.00000  Uiso   1.00
H258   H     0.47327   0.63725   0.28769   0.00000  Uiso   1.00
H259   H     0.86251   0.45837   0.44760   0.00000  Uiso   1.00
H260   H     0.74900   0.61580   0.18268   0.00000  Uiso   1.00
H261   H     0.98446   0.92544   0.33387   0.00000  Uiso   1.00
H262   H     0.19419   0.96761   0.32602   0.00000  Uiso   1.00
H263   H     0.90455   0.88277   0.40186   0.00000  Uiso   1.00
H264   H     0.85073   0.95742   0.27623   0.00000  Uiso   1.00
H265   H     0.43284   0.96471   0.31343   0.00000  Uiso   1.00
H266   H     0.82208   0.78582   0.47334   0.00000  Uiso   1.00
H267   H     0.70858   0.94325   0.20842   0.00000  Uiso   1.00
O268   O     0.59188   0.82180   0.29486   0.00000  Uiso   1.00
O269   O     0.79057   0.58712   0.50466   0.00000  Uiso   1.00
O270   O     0.64166   0.79366   0.15709   0.00000  Uiso   1.00
N271   N     0.43497   0.70854   0.29482   0.00000  Uiso   1.00
N272   N     0.86396   0.54130   0.44433   0.00000  Uiso   1.00
N273   N     0.75782   0.68847   0.19665   0.00000  Uiso   1.00
N274   N     0.41322   0.88474   0.30866   0.00000  Uiso   1.00
N275   N     0.84221   0.71750   0.45818   0.00000  Uiso   1.00
N276   N     0.73607   0.86467   0.21050   0.00000  Uiso   1.00
C277   C     0.86939   0.52087   0.06070   0.00000  Uiso   1.00
C278   C     0.80485   0.62967   0.05970   0.00000  Uiso   1.00
C279   C     0.84874   0.73328   0.05115   0.00000  Uiso   1.00
C280   C     0.77601   0.82261   0.05176   0.00000  Uiso   1.00
C281   C     0.69293   0.99368   0.04889   0.00000  Uiso   1.00
C282   C     0.85094   0.47232   0.10091   0.00000  Uiso   1.00
C283   C     0.93359   0.44360   0.12701   0.00000  Uiso   1.00
C284   C     0.89966   0.40046   0.16231   0.00000  Uiso   1.00
C285   C     0.88814   0.32715   0.22340   0.00000  Uiso   1.00
C286   C     0.81038   0.44308   0.03265   0.00000  Uiso   1.00
C287   C     0.85892   0.38976   0.00136   0.00000  Uiso   1.00
C288   C     0.79084   0.32198   0.97919   0.00000  Uiso   1.00
C289   C     0.71635   0.20328   0.93430   0.00000  Uiso   1.00
C290   C     0.66218   0.49528   0.07698   0.00000  Uiso   1.00
C291   C     0.69230   0.61577   0.06855   0.00000  Uiso   1.00
C292   C     0.61949   0.70497   0.06917   0.00000  Uiso   1.00
C293   C     0.66326   0.80869   0.06062   0.00000  Uiso   1.00
C294   C     0.73840   0.45842   0.10976   0.00000  Uiso   1.00
C295   C     0.70434   0.41530   0.14503   0.00000  Uiso   1.00
C296   C     0.78691   0.38653   0.17117   0.00000  Uiso   1.00
C297   C     0.69783   0.42919   0.04149   0.00000  Uiso   1.00
C298   C     0.62967   0.36146   0.01937   0.00000  Uiso   1.00
C299   C     0.67809   0.30805   0.98805   0.00000  Uiso   1.00
H300   H     0.95701   0.53168   0.05381   0.00000  Uiso   1.00
H301   H     0.93585   0.74400   0.04431   0.00000  Uiso   1.00
H302   H     0.02068   0.45436   0.12015   0.00000  Uiso   1.00
H303   H     0.94602   0.40053   0.99452   0.00000  Uiso   1.00
H304   H     0.86275   0.97327   0.03769   0.00000  Uiso   1.00
H305   H     0.04163   0.36251   0.19760   0.00000  Uiso   1.00
H306   H     0.88420   0.24900   0.93268   0.00000  Uiso   1.00
H307   H     0.57456   0.48446   0.08387   0.00000  Uiso   1.00
H308   H     0.53239   0.69419   0.07602   0.00000  Uiso   1.00
H309   H     0.61723   0.40455   0.15186   0.00000  Uiso   1.00
H310   H     0.54258   0.35073   0.02623   0.00000  Uiso   1.00
H311   H     0.53529   0.93284   0.06343   0.00000  Uiso   1.00
H312   H     0.71418   0.32208   0.22334   0.00000  Uiso   1.00
H313   H     0.55675   0.20858   0.95842   0.00000  Uiso   1.00
O314   O     0.67820   0.09188   0.04486   0.00000  Uiso   1.00
O315   O     0.91288   0.29057   0.25466   0.00000  Uiso   1.00
O316   O     0.70634   0.14166   0.90709   0.00000  Uiso   1.00
N317   N     0.79146   0.93497   0.04482   0.00000  Uiso   1.00
N318   N     0.95870   0.36396   0.19433   0.00000  Uiso   1.00
N319   N     0.81153   0.25782   0.94665   0.00000  Uiso   1.00
N320   N     0.61526   0.91322   0.05866   0.00000  Uiso   1.00
N321   N     0.78250   0.34221   0.20818   0.00000  Uiso   1.00
N322   N     0.63533   0.23607   0.96050   0.00000  Uiso   1.00
C323   C     0.13061   0.47913   0.56070   0.00000  Uiso   1.00
C324   C     0.19515   0.37033   0.55970   0.00000  Uiso   1.00
C325   C     0.15126   0.26672   0.55115   0.00000  Uiso   1.00
C326   C     0.22399   0.17739   0.55176   0.00000  Uiso   1.00
C327   C     0.30707   0.00632   0.54889   0.00000  Uiso   1.00
C328   C     0.14906   0.52768   0.60091   0.00000  Uiso   1.00
C329   C     0.06641   0.55640   0.62701   0.00000  Uiso   1.00
C330   C     0.10034   0.59954   0.66231   0.00000  Uiso   1.00
C331   C     0.11186   0.67285   0.72340   0.00000  Uiso   1.00
C332   C     0.18962   0.55692   0.53265   0.00000  Uiso   1.00
C333   C     0.14108   0.61024   0.50136   0.00000  Uiso   1.00
C334   C     0.20916   0.67802   0.47919   0.00000  Uiso   1.00
C335   C     0.28365   0.79672   0.43430   0.00000  Uiso   1.00
C336   C     0.33782   0.50472   0.57698   0.00000  Uiso   1.00
C337   C     0.30770   0.38423   0.56855   0.00000  Uiso   1.00
C338   C     0.38051   0.29503   0.56917   0.00000  Uiso   1.00
C339   C     0.33674   0.19131   0.56062   0.00000  Uiso   1.00
C340   C     0.26160   0.54158   0.60976   0.00000  Uiso   1.00
C341   C     0.29566   0.58470   0.64503   0.00000  Uiso   1.00
C342   C     0.21309   0.61347   0.67117   0.00000  Uiso   1.00
C343   C     0.30217   0.57081   0.54149   0.00000  Uiso   1.00
C344   C     0.37033   0.63854   0.51937   0.00000  Uiso   1.00
C345   C     0.32191   0.69195   0.48805   0.00000  Uiso   1.00
H346   H     0.04299   0.46832   0.55381   0.00000  Uiso   1.00
H347   H     0.06415   0.25600   0.54431   0.00000  Uiso   1.00
H348   H     0.97932   0.54564   0.62015   0.00000  Uiso   1.00
H349   H     0.05398   0.59947   0.49452   0.00000  Uiso   1.00
H350   H     0.13725   0.02673   0.53769   0.00000  Uiso   1.00
H351   H     0.95837   0.63749   0.69760   0.00000  Uiso   1.00
H352   H     0.11580   0.75100   0.43268   0.00000  Uiso   1.00
H353   H     0.42544   0.51554   0.58387   0.00000  Uiso   1.00
H354   H     0.46761   0.30581   0.57602   0.00000  Uiso   1.00
H355   H     0.38277   0.59545   0.65186   0.00000  Uiso   1.00
H356   H     0.45742   0.64927   0.52623   0.00000  Uiso   1.00
H357   H     0.46471   0.06716   0.56343   0.00000  Uiso   1.00
H358   H     0.28582   0.67792   0.72334   0.00000  Uiso   1.00
H359   H     0.44325   0.79142   0.45842   0.00000  Uiso   1.00
O360   O     0.32180   0.90812   0.54486   0.00000  Uiso   1.00
O361   O     0.08712   0.70943   0.75466   0.00000  Uiso   1.00
O362   O     0.29366   0.85834   0.40709   0.00000  Uiso   1.00
N363   N     0.20854   0.06503   0.54482   0.00000  Uiso   1.00
N364   N     0.04130   0.63604   0.69433   0.00000  Uiso   1.00
N365   N     0.18847   0.74218   0.44665   0.00000  Uiso   1.00
N366   N     0.38474   0.08678   0.55866   0.00000  Uiso   1.00
N367   N     0.21750   0.65779   0.70818   0.00000  Uiso   1.00
N368   N     0.36467   0.76393   0.46050   0.00000  Uiso   1.00
