data_job_06785
_audit_creation_date              2018-12-19
_audit_creation_method            'Materials Studio'
_symmetry_space_group_name_H-M    'P1'
_symmetry_Int_Tables_number       1
_symmetry_cell_setting            triclinic
loop_
_symmetry_equiv_pos_as_xyz
  x,y,z
_cell_length_a                    15.1391
_cell_length_b                    23.4198
_cell_length_c                    26.4865
_cell_angle_alpha                 63.9837
_cell_angle_beta                  86.2417
_cell_angle_gamma                 73.6823
loop_
_atom_site_label
_atom_site_type_symbol
_atom_site_fract_x
_atom_site_fract_y
_atom_site_fract_z
_atom_site_U_iso_or_equiv
_atom_site_adp_type
_atom_site_occupancy
C1     C     0.75471   0.70014   0.24361   0.00000  Uiso   1.00
C2     C     0.67352   0.71509   0.20427   0.00000  Uiso   1.00
C3     C     0.62676   0.77721   0.16354   0.00000  Uiso   1.00
C4     C     0.55437   0.78050   0.13186   0.00000  Uiso   1.00
C5     C     0.43203   0.81235   0.06945   0.00000  Uiso   1.00
C6     C     0.72644   0.66477   0.30322   0.00000  Uiso   1.00
C7     C     0.72420   0.68458   0.34570   0.00000  Uiso   1.00
C8     C     0.69636   0.64551   0.39732   0.00000  Uiso   1.00
C9     C     0.65625   0.59922   0.48855   0.00000  Uiso   1.00
C10    C     0.83303   0.64888   0.23442   0.00000  Uiso   1.00
C11    C     0.92041   0.65532   0.21906   0.00000  Uiso   1.00
C12    C     0.98233   0.60286   0.21277   0.00000  Uiso   1.00
C13    C     0.10771   0.53189   0.19718   0.00000  Uiso   1.00
C14    C     0.70928   0.59552   0.25976   0.00000  Uiso   1.00
C15    C     0.64885   0.65826   0.21304   0.00000  Uiso   1.00
C16    C     0.57651   0.66146   0.18141   0.00000  Uiso   1.00
C17    C     0.52965   0.72357   0.14064   0.00000  Uiso   1.00
C18    C     0.70177   0.60795   0.31200   0.00000  Uiso   1.00
C19    C     0.67394   0.56884   0.36357   0.00000  Uiso   1.00
C20    C     0.67165   0.58859   0.40611   0.00000  Uiso   1.00
C21    C     0.80836   0.59205   0.24319   0.00000  Uiso   1.00
C22    C     0.87015   0.53957   0.23693   0.00000  Uiso   1.00
C23    C     0.95761   0.54593   0.22156   0.00000  Uiso   1.00
H24    H     0.77392   0.74438   0.23679   0.00000  Uiso   1.00
H25    H     0.64587   0.82117   0.15677   0.00000  Uiso   1.00
H26    H     0.74330   0.72856   0.33890   0.00000  Uiso   1.00
H27    H     0.93948   0.69930   0.21228   0.00000  Uiso   1.00
H28    H     0.49301   0.88125   0.07194   0.00000  Uiso   1.00
H29    H     0.69848   0.68596   0.45597   0.00000  Uiso   1.00
H30    H     0.11216   0.62426   0.18897   0.00000  Uiso   1.00
H31    H     0.69008   0.55128   0.26660   0.00000  Uiso   1.00
H32    H     0.55743   0.61748   0.18821   0.00000  Uiso   1.00
H33    H     0.65486   0.52486   0.37034   0.00000  Uiso   1.00
H34    H     0.85104   0.49560   0.24372   0.00000  Uiso   1.00
H35    H     0.42123   0.71593   0.09746   0.00000  Uiso   1.00
H36    H     0.62669   0.52063   0.48150   0.00000  Uiso   1.00
H37    H     0.04037   0.45893   0.21449   0.00000  Uiso   1.00
O38    O     0.37135   0.84562   0.03261   0.00000  Uiso   1.00
O39    O     0.64093   0.58939   0.53645   0.00000  Uiso   1.00
O40    O     0.18367   0.50845   0.18615   0.00000  Uiso   1.00
N41    N     0.49433   0.83326   0.08869   0.00000  Uiso   1.00
N42    N     0.68641   0.65067   0.44774   0.00000  Uiso   1.00
N43    N     0.07318   0.59298   0.19813   0.00000  Uiso   1.00
N44    N     0.45571   0.74430   0.10242   0.00000  Uiso   1.00
N45    N     0.64779   0.56171   0.46147   0.00000  Uiso   1.00
N46    N     0.03456   0.50402   0.21186   0.00000  Uiso   1.00
C47    C     0.72191   0.17730   0.55469   0.00000  Uiso   1.00
C48    C     0.61922   0.19317   0.56426   0.00000  Uiso   1.00
C49    C     0.58130   0.19011   0.61422   0.00000  Uiso   1.00
C50    C     0.48577   0.20653   0.61442   0.00000  Uiso   1.00
C51    C     0.33477   0.22828   0.63659   0.00000  Uiso   1.00
C52    C     0.74104   0.12358   0.53437   0.00000  Uiso   1.00
C53    C     0.80554   0.06201   0.55920   0.00000  Uiso   1.00
C54    C     0.81257   0.01986   0.53423   0.00000  Uiso   1.00
C55    C     0.85074   0.93358   0.50998   0.00000  Uiso   1.00
C56    C     0.73543   0.23886   0.50482   0.00000  Uiso   1.00
C57    C     0.79524   0.27422   0.50478   0.00000  Uiso   1.00
C58    C     0.79755   0.32912   0.45492   0.00000  Uiso   1.00
C59    C     0.82701   0.42184   0.38478   0.00000  Uiso   1.00
C60    C     0.61970   0.21190   0.46622   0.00000  Uiso   1.00
C61    C     0.56371   0.21196   0.51620   0.00000  Uiso   1.00
C62    C     0.46821   0.22839   0.51633   0.00000  Uiso   1.00
C63    C     0.43015   0.22536   0.56628   0.00000  Uiso   1.00
C64    C     0.68552   0.14237   0.48632   0.00000  Uiso   1.00
C65    C     0.69246   0.10029   0.46131   0.00000  Uiso   1.00
C66    C     0.75695   0.03868   0.48609   0.00000  Uiso   1.00
C67    C     0.67991   0.25766   0.45676   0.00000  Uiso   1.00
C68    C     0.68214   0.31250   0.40689   0.00000  Uiso   1.00
C69    C     0.74194   0.34794   0.40678   0.00000  Uiso   1.00
H70    H     0.76513   0.16266   0.59211   0.00000  Uiso   1.00
H71    H     0.62428   0.17556   0.65140   0.00000  Uiso   1.00
H72    H     0.84850   0.04749   0.59638   0.00000  Uiso   1.00
H73    H     0.83819   0.25966   0.54197   0.00000  Uiso   1.00
H74    H     0.44364   0.19812   0.69595   0.00000  Uiso   1.00
H75    H     0.91644   0.92808   0.57993   0.00000  Uiso   1.00
H76    H     0.89470   0.37549   0.46520   0.00000  Uiso   1.00
H77    H     0.57648   0.22653   0.42880   0.00000  Uiso   1.00
H78    H     0.42527   0.24293   0.47913   0.00000  Uiso   1.00
H79    H     0.64949   0.11486   0.42412   0.00000  Uiso   1.00
H80    H     0.63917   0.32703   0.36971   0.00000  Uiso   1.00
H81    H     0.28211   0.25280   0.55613   0.00000  Uiso   1.00
H82    H     0.75492   0.98276   0.44012   0.00000  Uiso   1.00
H83    H     0.73316   0.43017   0.32538   0.00000  Uiso   1.00
O84    O     0.26681   0.23507   0.66210   0.00000  Uiso   1.00
O85    O     0.88712   0.88080   0.50989   0.00000  Uiso   1.00
O86    O     0.85858   0.46779   0.35936   0.00000  Uiso   1.00
N87    N     0.42638   0.20875   0.65613   0.00000  Uiso   1.00
N88    N     0.86841   0.95627   0.54767   0.00000  Uiso   1.00
N89    N     0.84809   0.37456   0.44040   0.00000  Uiso   1.00
N90    N     0.33946   0.23817   0.58090   0.00000  Uiso   1.00
N91    N     0.78149   0.98570   0.47244   0.00000  Uiso   1.00
N92    N     0.76117   0.40398   0.36516   0.00000  Uiso   1.00
C93    C     0.59239   0.26957   0.14175   0.00000  Uiso   1.00
C94    C     0.57091   0.20777   0.18688   0.00000  Uiso   1.00
C95    C     0.58261   0.14874   0.18332   0.00000  Uiso   1.00
C96    C     0.55892   0.09804   0.22909   0.00000  Uiso   1.00
C97    C     0.53071   0.00085   0.29191   0.00000  Uiso   1.00
C98    C     0.50323   0.32555   0.12813   0.00000  Uiso   1.00
C99    C     0.45804   0.36555   0.07517   0.00000  Uiso   1.00
C100   C     0.37739   0.41400   0.07148   0.00000  Uiso   1.00
C101   C     0.24414   0.49971   0.04308   0.00000  Uiso   1.00
C102   C     0.65996   0.28563   0.17028   0.00000  Uiso   1.00
C103   C     0.74653   0.29208   0.15276   0.00000  Uiso   1.00
C104   C     0.79782   0.30694   0.18456   0.00000  Uiso   1.00
C105   C     0.90792   0.33066   0.22161   0.00000  Uiso   1.00
C106   C     0.52953   0.28449   0.22936   0.00000  Uiso   1.00
C107   C     0.53676   0.21588   0.23447   0.00000  Uiso   1.00
C108   C     0.51306   0.16525   0.28025   0.00000  Uiso   1.00
C109   C     0.52472   0.10615   0.27677   0.00000  Uiso   1.00
C110   C     0.46909   0.33366   0.17571   0.00000  Uiso   1.00
C111   C     0.38849   0.38206   0.17210   0.00000  Uiso   1.00
C112   C     0.34318   0.42213   0.11915   0.00000  Uiso   1.00
C113   C     0.62581   0.29373   0.21787   0.00000  Uiso   1.00
C114   C     0.67698   0.30859   0.24970   0.00000  Uiso   1.00
C115   C     0.76362   0.31506   0.23223   0.00000  Uiso   1.00
H116   H     0.61897   0.26326   0.10470   0.00000  Uiso   1.00
H117   H     0.60902   0.14249   0.14649   0.00000  Uiso   1.00
H118   H     0.48448   0.35927   0.03835   0.00000  Uiso   1.00
H119   H     0.77293   0.28581   0.11594   0.00000  Uiso   1.00
H120   H     0.58290   0.01217   0.21379   0.00000  Uiso   1.00
H121   H     0.32032   0.46928   0.98578   0.00000  Uiso   1.00
H122   H     0.92857   0.31437   0.14937   0.00000  Uiso   1.00
H123   H     0.50295   0.29081   0.26641   0.00000  Uiso   1.00
H124   H     0.48663   0.17154   0.31707   0.00000  Uiso   1.00
H125   H     0.36209   0.38832   0.20894   0.00000  Uiso   1.00
H126   H     0.65054   0.31486   0.28652   0.00000  Uiso   1.00
H127   H     0.48356   0.03574   0.35224   0.00000  Uiso   1.00
H128   H     0.22098   0.49286   0.12423   0.00000  Uiso   1.00
H129   H     0.82922   0.33795   0.28783   0.00000  Uiso   1.00
O130   O     0.52456   0.94501   0.31342   0.00000  Uiso   1.00
O131   O     0.18008   0.54473   0.01427   0.00000  Uiso   1.00
O132   O     0.97808   0.34149   0.22891   0.00000  Uiso   1.00
N133   N     0.56178   0.03408   0.23943   0.00000  Uiso   1.00
N134   N     0.31627   0.46145   0.02625   0.00000  Uiso   1.00
N135   N     0.88492   0.31664   0.17919   0.00000  Uiso   1.00
N136   N     0.50833   0.04677   0.31393   0.00000  Uiso   1.00
N137   N     0.26282   0.47414   0.10075   0.00000  Uiso   1.00
N138   N     0.83147   0.32933   0.25369   0.00000  Uiso   1.00
C139   C     0.24334   0.31205   0.98235   0.00000  Uiso   1.00
C140   C     0.16218   0.29719   0.96423   0.00000  Uiso   1.00
C141   C     0.16845   0.25004   0.94481   0.00000  Uiso   1.00
C142   C     0.08615   0.24402   0.93035   0.00000  Uiso   1.00
C143   C     0.97311   0.21488   0.90150   0.00000  Uiso   1.00
C144   C     0.22827   0.30336   0.04250   0.00000  Uiso   1.00
C145   C     0.29012   0.26140   0.08888   0.00000  Uiso   1.00
C146   C     0.26345   0.26058   0.14031   0.00000  Uiso   1.00
C147   C     0.25306   0.24105   0.23297   0.00000  Uiso   1.00
C148   C     0.23178   0.38572   0.94640   0.00000  Uiso   1.00
C149   C     0.29659   0.41303   0.91199   0.00000  Uiso   1.00
C150   C     0.27289   0.48155   0.88252   0.00000  Uiso   1.00
C151   C     0.26795   0.58991   0.82597   0.00000  Uiso   1.00
C152   C     0.08604   0.38520   0.99121   0.00000  Uiso   1.00
C153   C     0.07674   0.33692   0.96904   0.00000  Uiso   1.00
C154   C     0.99441   0.33097   0.95460   0.00000  Uiso   1.00
C155   C     0.00055   0.28382   0.93516   0.00000  Uiso   1.00
C156   C     0.14283   0.34308   0.04731   0.00000  Uiso   1.00
C157   C     0.11608   0.34233   0.09868   0.00000  Uiso   1.00
C158   C     0.17786   0.30038   0.14512   0.00000  Uiso   1.00
C159   C     0.14634   0.42545   0.95121   0.00000  Uiso   1.00
C160   C     0.12254   0.49395   0.92179   0.00000  Uiso   1.00
C161   C     0.18730   0.52135   0.88734   0.00000  Uiso   1.00
H162   H     0.30986   0.28112   0.97861   0.00000  Uiso   1.00
H163   H     0.23458   0.21930   0.94110   0.00000  Uiso   1.00
H164   H     0.35623   0.23067   0.08515   0.00000  Uiso   1.00
H165   H     0.36270   0.38226   0.90828   0.00000  Uiso   1.00
H166   H     0.11344   0.16827   0.90165   0.00000  Uiso   1.00
H167   H     0.36996   0.19225   0.20538   0.00000  Uiso   1.00
H168   H     0.38360   0.51193   0.83242   0.00000  Uiso   1.00
H169   H     0.01952   0.41613   0.99495   0.00000  Uiso   1.00
H170   H     0.92830   0.36172   0.95833   0.00000  Uiso   1.00
H171   H     0.04995   0.37308   0.10238   0.00000  Uiso   1.00
H172   H     0.05642   0.52468   0.92552   0.00000  Uiso   1.00
H173   H     0.86484   0.28386   0.91564   0.00000  Uiso   1.00
H174   H     0.12137   0.30784   0.21937   0.00000  Uiso   1.00
H175   H     0.13501   0.62752   0.84641   0.00000  Uiso   1.00
O176   O     0.93437   0.18782   0.88427   0.00000  Uiso   1.00
O177   O     0.27093   0.21930   0.28275   0.00000  Uiso   1.00
O178   O     0.28882   0.63870   0.79345   0.00000  Uiso   1.00
N179   N     0.06745   0.20295   0.90995   0.00000  Uiso   1.00
N180   N     0.30728   0.22536   0.19393   0.00000  Uiso   1.00
N181   N     0.32004   0.52423   0.84526   0.00000  Uiso   1.00
N182   N     0.93368   0.26515   0.91748   0.00000  Uiso   1.00
N183   N     0.17351   0.28756   0.20145   0.00000  Uiso   1.00
N184   N     0.18627   0.58643   0.85279   0.00000  Uiso   1.00
C185   C     0.02669   0.01897   0.77862   0.00000  Uiso   1.00
C186   C     0.93437   0.05540   0.79165   0.00000  Uiso   1.00
C187   C     0.91941   0.07144   0.83669   0.00000  Uiso   1.00
C188   C     0.82994   0.10486   0.84127   0.00000  Uiso   1.00
C189   C     0.69753   0.15891   0.86743   0.00000  Uiso   1.00
C190   C     0.04372   0.06403   0.71875   0.00000  Uiso   1.00
C191   C     0.12070   0.08731   0.70251   0.00000  Uiso   1.00
C192   C     0.12328   0.12798   0.64572   0.00000  Uiso   1.00
C193   C     0.16066   0.19538   0.55871   0.00000  Uiso   1.00
C194   C     0.01134   0.95862   0.77612   0.00000  Uiso   1.00
C195   C     0.06111   0.89327   0.80810   0.00000  Uiso   1.00
C196   C     0.03645   0.84519   0.79960   0.00000  Uiso   1.00
C197   C     0.02356   0.74892   0.80166   0.00000  Uiso   1.00
C198   C     0.89441   0.04979   0.70664   0.00000  Uiso   1.00
C199   C     0.86252   0.07214   0.75255   0.00000  Uiso   1.00
C200   C     0.77305   0.10554   0.75705   0.00000  Uiso   1.00
C201   C     0.75796   0.12163   0.80210   0.00000  Uiso   1.00
C202   C     0.97187   0.08077   0.67966   0.00000  Uiso   1.00
C203   C     0.97434   0.12141   0.62287   0.00000  Uiso   1.00
C204   C     0.05130   0.14475   0.60655   0.00000  Uiso   1.00
C205   C     0.93948   0.97535   0.73702   0.00000  Uiso   1.00
C206   C     0.91475   0.92737   0.72846   0.00000  Uiso   1.00
C207   C     0.96447   0.86196   0.76043   0.00000  Uiso   1.00
H208   H     0.08263   0.00594   0.80905   0.00000  Uiso   1.00
H209   H     0.97504   0.05849   0.86694   0.00000  Uiso   1.00
H210   H     0.17629   0.07434   0.73278   0.00000  Uiso   1.00
H211   H     0.11671   0.88033   0.83835   0.00000  Uiso   1.00
H212   H     0.82406   0.12414   0.91386   0.00000  Uiso   1.00
H213   H     0.24844   0.15756   0.63097   0.00000  Uiso   1.00
H214   H     0.12280   0.74845   0.85360   0.00000  Uiso   1.00
H215   H     0.83847   0.06283   0.67619   0.00000  Uiso   1.00
H216   H     0.71746   0.11849   0.72679   0.00000  Uiso   1.00
H217   H     0.91873   0.13435   0.59263   0.00000  Uiso   1.00
H218   H     0.85914   0.94034   0.69820   0.00000  Uiso   1.00
H219   H     0.61501   0.17285   0.80011   0.00000  Uiso   1.00
H220   H     0.03939   0.20626   0.51722   0.00000  Uiso   1.00
H221   H     0.91375   0.79715   0.73985   0.00000  Uiso   1.00
O222   O     0.64435   0.18411   0.89266   0.00000  Uiso   1.00
O223   O     0.20113   0.22794   0.52152   0.00000  Uiso   1.00
O224   O     0.03629   0.69119   0.81360   0.00000  Uiso   1.00
N225   N     0.79146   0.12795   0.88015   0.00000  Uiso   1.00
N226   N     0.18823   0.15921   0.61567   0.00000  Uiso   1.00
N227   N     0.07078   0.77672   0.82379   0.00000  Uiso   1.00
N228   N     0.67897   0.15416   0.81895   0.00000  Uiso   1.00
N229   N     0.07574   0.18541   0.55446   0.00000  Uiso   1.00
N230   N     0.95829   0.80293   0.76259   0.00000  Uiso   1.00
C231   C     0.13904   0.77602   0.31503   0.00000  Uiso   1.00
C232   C     0.03979   0.80927   0.28991   0.00000  Uiso   1.00
C233   C     0.00048   0.87685   0.25920   0.00000  Uiso   1.00
C234   C     0.90866   0.89741   0.23985   0.00000  Uiso   1.00
C235   C     0.76226   0.95595   0.19916   0.00000  Uiso   1.00
C236   C     0.18051   0.72638   0.29120   0.00000  Uiso   1.00
C237   C     0.25951   0.72427   0.26158   0.00000  Uiso   1.00
C238   C     0.28615   0.67505   0.24332   0.00000  Uiso   1.00
C239   C     0.35826   0.60487   0.20466   0.00000  Uiso   1.00
C240   C     0.13299   0.73507   0.37783   0.00000  Uiso   1.00
C241   C     0.17205   0.74026   0.42105   0.00000  Uiso   1.00
C242   C     0.15869   0.69834   0.47573   0.00000  Uiso   1.00
C243   C     0.15701   0.64166   0.57158   0.00000  Uiso   1.00
C244   C     0.04589   0.69235   0.33527   0.00000  Uiso   1.00
C245   C     0.98920   0.76382   0.30091   0.00000  Uiso   1.00
C246   C     0.89741   0.78428   0.28160   0.00000  Uiso   1.00
C247   C     0.85797   0.85189   0.25087   0.00000  Uiso   1.00
C248   C     0.12992   0.68093   0.30220   0.00000  Uiso   1.00
C249   C     0.15645   0.63170   0.28398   0.00000  Uiso   1.00
C250   C     0.23547   0.62952   0.25433   0.00000  Uiso   1.00
C251   C     0.08239   0.68963   0.38883   0.00000  Uiso   1.00
C252   C     0.06898   0.64769   0.44345   0.00000  Uiso   1.00
C253   C     0.10801   0.65281   0.48675   0.00000  Uiso   1.00
H254   H     0.17844   0.81140   0.30646   0.00000  Uiso   1.00
H255   H     0.03966   0.91201   0.25070   0.00000  Uiso   1.00
H256   H     0.29866   0.75944   0.25308   0.00000  Uiso   1.00
H257   H     0.21120   0.77543   0.41253   0.00000  Uiso   1.00
H258   H     0.86349   0.00351   0.19370   0.00000  Uiso   1.00
H259   H     0.40962   0.68180   0.19874   0.00000  Uiso   1.00
H260   H     0.22521   0.71552   0.53497   0.00000  Uiso   1.00
H261   H     0.00650   0.65696   0.34383   0.00000  Uiso   1.00
H262   H     0.85828   0.74910   0.29012   0.00000  Uiso   1.00
H263   H     0.11728   0.59654   0.29250   0.00000  Uiso   1.00
H264   H     0.02983   0.61253   0.45194   0.00000  Uiso   1.00
H265   H     0.71628   0.87129   0.22570   0.00000  Uiso   1.00
H266   H     0.26242   0.54958   0.23074   0.00000  Uiso   1.00
H267   H     0.07800   0.58330   0.56696   0.00000  Uiso   1.00
O268   O     0.69549   0.00079   0.17368   0.00000  Uiso   1.00
O269   O     0.41201   0.57872   0.18030   0.00000  Uiso   1.00
O270   O     0.17005   0.62296   0.62141   0.00000  Uiso   1.00
N271   N     0.84918   0.95974   0.20862   0.00000  Uiso   1.00
N272   N     0.35978   0.65898   0.21332   0.00000  Uiso   1.00
N273   N     0.18738   0.69048   0.52766   0.00000  Uiso   1.00
N274   N     0.76997   0.88860   0.22583   0.00000  Uiso   1.00
N275   N     0.28056   0.58783   0.23053   0.00000  Uiso   1.00
N276   N     0.10817   0.61934   0.54488   0.00000  Uiso   1.00
C277   C     0.33187   0.38197   0.74897   0.00000  Uiso   1.00
C278   C     0.41473   0.38782   0.77420   0.00000  Uiso   1.00
C279   C     0.48098   0.33565   0.81386   0.00000  Uiso   1.00
C280   C     0.55139   0.35127   0.83163   0.00000  Uiso   1.00
C281   C     0.67948   0.35040   0.87399   0.00000  Uiso   1.00
C282   C     0.33878   0.41380   0.68535   0.00000  Uiso   1.00
C283   C     0.34117   0.38348   0.65031   0.00000  Uiso   1.00
C284   C     0.34764   0.42099   0.59328   0.00000  Uiso   1.00
C285   C     0.35775   0.46047   0.49770   0.00000  Uiso   1.00
C286   C     0.24705   0.42687   0.76066   0.00000  Uiso   1.00
C287   C     0.17229   0.40754   0.78893   0.00000  Uiso   1.00
C288   C     0.10151   0.45606   0.79530   0.00000  Uiso   1.00
C289   C     0.96920   0.51583   0.81666   0.00000  Uiso   1.00
C290   C     0.33910   0.50249   0.71000   0.00000  Uiso   1.00
C291   C     0.41866   0.45328   0.75302   0.00000  Uiso   1.00
C292   C     0.48898   0.46899   0.77074   0.00000  Uiso   1.00
C293   C     0.55532   0.41686   0.81042   0.00000  Uiso   1.00
C294   C     0.34271   0.47927   0.66417   0.00000  Uiso   1.00
C295   C     0.34917   0.51683   0.60718   0.00000  Uiso   1.00
C296   C     0.35157   0.48657   0.57207   0.00000  Uiso   1.00
C297   C     0.25098   0.49234   0.73949   0.00000  Uiso   1.00
C298   C     0.18030   0.54089   0.74581   0.00000  Uiso   1.00
C299   C     0.10545   0.52164   0.77409   0.00000  Uiso   1.00
H300   H     0.32881   0.33100   0.76545   0.00000  Uiso   1.00
H301   H     0.47792   0.28499   0.83023   0.00000  Uiso   1.00
H302   H     0.33812   0.33282   0.66670   0.00000  Uiso   1.00
H303   H     0.16927   0.35688   0.80531   0.00000  Uiso   1.00
H304   H     0.64498   0.26285   0.89270   0.00000  Uiso   1.00
H305   H     0.35018   0.36371   0.54789   0.00000  Uiso   1.00
H306   H     0.99413   0.41444   0.84017   0.00000  Uiso   1.00
H307   H     0.34216   0.55346   0.69351   0.00000  Uiso   1.00
H308   H     0.49201   0.51966   0.75434   0.00000  Uiso   1.00
H309   H     0.35221   0.56749   0.59082   0.00000  Uiso   1.00
H310   H     0.18336   0.59155   0.72942   0.00000  Uiso   1.00
H311   H     0.65642   0.45331   0.83110   0.00000  Uiso   1.00
H312   H     0.36161   0.55418   0.48629   0.00000  Uiso   1.00
H313   H     0.00557   0.60491   0.77857   0.00000  Uiso   1.00
O314   O     0.74905   0.33183   0.90320   0.00000  Uiso   1.00
O315   O     0.36226   0.46416   0.45083   0.00000  Uiso   1.00
O316   O     0.89514   0.53071   0.83429   0.00000  Uiso   1.00
N317   N     0.62710   0.31232   0.86986   0.00000  Uiso   1.00
N318   N     0.35149   0.40661   0.54749   0.00000  Uiso   1.00
N319   N     0.01860   0.45404   0.82073   0.00000  Uiso   1.00
N320   N     0.63326   0.41480   0.83672   0.00000  Uiso   1.00
N321   N     0.35765   0.50910   0.51434   0.00000  Uiso   1.00
N322   N     0.02476   0.55653   0.78759   0.00000  Uiso   1.00
C323   C     0.25022   0.92624   0.41157   0.00000  Uiso   1.00
C324   C     0.31513   0.88112   0.38915   0.00000  Uiso   1.00
C325   C     0.30236   0.88043   0.33804   0.00000  Uiso   1.00
C326   C     0.36964   0.83547   0.32521   0.00000  Uiso   1.00
C327   C     0.45871   0.77193   0.28476   0.00000  Uiso   1.00
C328   C     0.30842   0.96315   0.42345   0.00000  Uiso   1.00
C329   C     0.28999   0.03142   0.40118   0.00000  Uiso   1.00
C330   C     0.35163   0.05551   0.41723   0.00000  Uiso   1.00
C331   C     0.43024   0.11932   0.43006   0.00000  Uiso   1.00
C332   C     0.22456   0.88058   0.46878   0.00000  Uiso   1.00
C333   C     0.13562   0.87945   0.48463   0.00000  Uiso   1.00
C334   C     0.12665   0.83403   0.53885   0.00000  Uiso   1.00
C335   C     0.07506   0.76964   0.62207   0.00000  Uiso   1.00
C336   C     0.39243   0.84762   0.47968   0.00000  Uiso   1.00
C337   C     0.39238   0.83842   0.42615   0.00000  Uiso   1.00
C338   C     0.45970   0.79344   0.41339   0.00000  Uiso   1.00
C339   C     0.44702   0.79268   0.36227   0.00000  Uiso   1.00
C340   C     0.38566   0.92045   0.46045   0.00000  Uiso   1.00
C341   C     0.44733   0.94444   0.47654   0.00000  Uiso   1.00
C342   C     0.42901   0.01273   0.45429   0.00000  Uiso   1.00
C343   C     0.30181   0.83787   0.50578   0.00000  Uiso   1.00
C344   C     0.29297   0.79246   0.55999   0.00000  Uiso   1.00
C345   C     0.20404   0.79125   0.57592   0.00000  Uiso   1.00
H346   H     0.19008   0.95949   0.38277   0.00000  Uiso   1.00
H347   H     0.24257   0.91349   0.30941   0.00000  Uiso   1.00
H348   H     0.23021   0.06446   0.37256   0.00000  Uiso   1.00
H349   H     0.07587   0.91250   0.45599   0.00000  Uiso   1.00
H350   H     0.33485   0.84367   0.24440   0.00000  Uiso   1.00
H351   H     0.30876   0.16200   0.37755   0.00000  Uiso   1.00
H352   H     0.98330   0.84157   0.55349   0.00000  Uiso   1.00
H353   H     0.45257   0.81437   0.50849   0.00000  Uiso   1.00
H354   H     0.51947   0.76040   0.44203   0.00000  Uiso   1.00
H355   H     0.50710   0.91138   0.50517   0.00000  Uiso   1.00
H356   H     0.35276   0.75942   0.58861   0.00000  Uiso   1.00
H357   H     0.55959   0.71942   0.35203   0.00000  Uiso   1.00
H358   H     0.53350   0.03776   0.48518   0.00000  Uiso   1.00
H359   H     0.20804   0.71732   0.66112   0.00000  Uiso   1.00
O360   O     0.48650   0.74868   0.25222   0.00000  Uiso   1.00
O361   O     0.45226   0.16631   0.42692   0.00000  Uiso   1.00
O362   O     0.02527   0.74592   0.65774   0.00000  Uiso   1.00
N363   N     0.37855   0.82183   0.27885   0.00000  Uiso   1.00
N364   N     0.35417   0.11945   0.40333   0.00000  Uiso   1.00
N365   N     0.04989   0.81988   0.56783   0.00000  Uiso   1.00
N366   N     0.49948   0.75497   0.33677   0.00000  Uiso   1.00
N367   N     0.47510   0.05259   0.46125   0.00000  Uiso   1.00
N368   N     0.17082   0.75303   0.62575   0.00000  Uiso   1.00
C369   C     0.41015   0.76527   0.89725   0.00000  Uiso   1.00
C370   C     0.41134   0.83604   0.88116   0.00000  Uiso   1.00
C371   C     0.33587   0.88745   0.87864   0.00000  Uiso   1.00
C372   C     0.35121   0.94855   0.86304   0.00000  Uiso   1.00
C373   C     0.33972   0.05703   0.84001   0.00000  Uiso   1.00
C374   C     0.48186   0.72095   0.94657   0.00000  Uiso   1.00
C375   C     0.46569   0.67559   0.99903   0.00000  Uiso   1.00
C376   C     0.54040   0.63979   0.03849   0.00000  Uiso   1.00
C377   C     0.63842   0.56955   0.11698   0.00000  Uiso   1.00
C378   C     0.44789   0.75051   0.84812   0.00000  Uiso   1.00
C379   C     0.40316   0.72999   0.81782   0.00000  Uiso   1.00
C380   C     0.44928   0.71908   0.77440   0.00000  Uiso   1.00
C381   C     0.49454   0.69474   0.70003   0.00000  Uiso   1.00
C382   C     0.57159   0.78235   0.87403   0.00000  Uiso   1.00
C383   C     0.49902   0.84532   0.86855   0.00000  Uiso   1.00
C384   C     0.51448   0.90636   0.85295   0.00000  Uiso   1.00
C385   C     0.43905   0.95785   0.85041   0.00000  Uiso   1.00
C386   C     0.56954   0.73023   0.93396   0.00000  Uiso   1.00
C387   C     0.64430   0.69449   0.97334   0.00000  Uiso   1.00
C388   C     0.62824   0.64909   0.02586   0.00000  Uiso   1.00
C389   C     0.53557   0.75980   0.83551   0.00000  Uiso   1.00
C390   C     0.58177   0.74890   0.79213   0.00000  Uiso   1.00
C391   C     0.53712   0.72837   0.76176   0.00000  Uiso   1.00
H392   H     0.34189   0.75804   0.90707   0.00000  Uiso   1.00
H393   H     0.26803   0.88025   0.88841   0.00000  Uiso   1.00
H394   H     0.39783   0.66841   0.00878   0.00000  Uiso   1.00
H395   H     0.33531   0.72281   0.82759   0.00000  Uiso   1.00
H396   H     0.22481   0.01983   0.86217   0.00000  Uiso   1.00
H397   H     0.49852   0.57314   0.11598   0.00000  Uiso   1.00
H398   H     0.36668   0.68786   0.73390   0.00000  Uiso   1.00
H399   H     0.63985   0.78958   0.86421   0.00000  Uiso   1.00
H400   H     0.58234   0.91353   0.84319   0.00000  Uiso   1.00
H401   H     0.71214   0.70169   0.96357   0.00000  Uiso   1.00
H402   H     0.64962   0.75609   0.78238   0.00000  Uiso   1.00
H403   H     0.47992   0.04684   0.82548   0.00000  Uiso   1.00
H404   H     0.75363   0.60015   0.07928   0.00000  Uiso   1.00
H405   H     0.62179   0.71487   0.69721   0.00000  Uiso   1.00
O406   O     0.30916   0.11430   0.83079   0.00000  Uiso   1.00
O407   O     0.66825   0.52825   0.16377   0.00000  Uiso   1.00
O408   O     0.49528   0.67876   0.66249   0.00000  Uiso   1.00
N409   N     0.29274   0.00918   0.85641   0.00000  Uiso   1.00
N410   N     0.54864   0.59156   0.09371   0.00000  Uiso   1.00
N411   N     0.42539   0.69879   0.73651   0.00000  Uiso   1.00
N412   N     0.43001   0.02371   0.83666   0.00000  Uiso   1.00
N413   N     0.68591   0.60609   0.07396   0.00000  Uiso   1.00
N414   N     0.56266   0.71333   0.71676   0.00000  Uiso   1.00
C415   C     0.86383   0.79530   0.06106   0.00000  Uiso   1.00
C416   C     0.95236   0.80935   0.07029   0.00000  Uiso   1.00
C417   C     0.97246   0.82212   0.11403   0.00000  Uiso   1.00
C418   C     0.05718   0.83377   0.11505   0.00000  Uiso   1.00
C419   C     0.18515   0.85578   0.13563   0.00000  Uiso   1.00
C420   C     0.82409   0.84657   0.00192   0.00000  Uiso   1.00
C421   C     0.73633   0.89064   0.98817   0.00000  Uiso   1.00
C422   C     0.71306   0.93363   0.93163   0.00000  Uiso   1.00
C423   C     0.64186   0.01339   0.84606   0.00000  Uiso   1.00
C424   C     0.89364   0.72861   0.05891   0.00000  Uiso   1.00
C425   C     0.86434   0.67350   0.09308   0.00000  Uiso   1.00
C426   C     0.89961   0.61717   0.08451   0.00000  Uiso   1.00
C427   C     0.93640   0.51378   0.08744   0.00000  Uiso   1.00
C428   C     0.97854   0.79328   0.98508   0.00000  Uiso   1.00
C429   C     0.01467   0.80825   0.02902   0.00000  Uiso   1.00
C430   C     0.09938   0.81988   0.02997   0.00000  Uiso   1.00
C431   C     0.11960   0.83267   0.07370   0.00000  Uiso   1.00
C432   C     0.88639   0.84547   0.96065   0.00000  Uiso   1.00
C433   C     0.86324   0.88840   0.90411   0.00000  Uiso   1.00
C434   C     0.77548   0.93252   0.89028   0.00000  Uiso   1.00
C435   C     0.95595   0.72751   0.01764   0.00000  Uiso   1.00
C436   C     0.99126   0.67125   0.00902   0.00000  Uiso   1.00
C437   C     0.96203   0.61606   0.04317   0.00000  Uiso   1.00
H438   H     0.81531   0.79616   0.09319   0.00000  Uiso   1.00
H439   H     0.92422   0.82298   0.14596   0.00000  Uiso   1.00
H440   H     0.68812   0.89148   0.02012   0.00000  Uiso   1.00
H441   H     0.81612   0.67437   0.12501   0.00000  Uiso   1.00
H442   H     0.07243   0.85224   0.18625   0.00000  Uiso   1.00
H443   H     0.57459   0.99667   0.92091   0.00000  Uiso   1.00
H444   H     0.84450   0.53884   0.14209   0.00000  Uiso   1.00
H445   H     0.02705   0.79242   0.95295   0.00000  Uiso   1.00
H446   H     0.14758   0.81902   0.99802   0.00000  Uiso   1.00
H447   H     0.91148   0.88753   0.87218   0.00000  Uiso   1.00
H448   H     0.03948   0.67042   0.97707   0.00000  Uiso   1.00
H449   H     0.25371   0.84904   0.06618   0.00000  Uiso   1.00
H450   H     0.75587   0.99346   0.80084   0.00000  Uiso   1.00
H451   H     0.02578   0.53564   0.02202   0.00000  Uiso   1.00
O452   O     0.23852   0.86823   0.15839   0.00000  Uiso   1.00
O453   O     0.58537   0.05770   0.81027   0.00000  Uiso   1.00
O454   O     0.93949   0.45705   0.10046   0.00000  Uiso   1.00
N455   N     0.09856   0.84782   0.15181   0.00000  Uiso   1.00
N456   N     0.63312   0.98286   0.90373   0.00000  Uiso   1.00
N457   N     0.88544   0.55484   0.11051   0.00000  Uiso   1.00
N458   N     0.19611   0.84610   0.08720   0.00000  Uiso   1.00
N459   N     0.73066   0.98114   0.83912   0.00000  Uiso   1.00
N460   N     0.98299   0.55312   0.04590   0.00000  Uiso   1.00
C461   C     0.83552   0.07283   0.29483   0.00000  Uiso   1.00
C462   C     0.90125   0.07351   0.24853   0.00000  Uiso   1.00
C463   C     0.87950   0.11151   0.19113   0.00000  Uiso   1.00
C464   C     0.94926   0.10506   0.15563   0.00000  Uiso   1.00
C465   C     0.03787   0.11262   0.08052   0.00000  Uiso   1.00
C466   C     0.83496   0.00091   0.32894   0.00000  Uiso   1.00
C467   C     0.75747   0.97788   0.33915   0.00000  Uiso   1.00
C468   C     0.77144   0.91031   0.37133   0.00000  Uiso   1.00
C469   C     0.75712   0.80516   0.42109   0.00000  Uiso   1.00
C470   C     0.88177   0.08989   0.33374   0.00000  Uiso   1.00
C471   C     0.84363   0.14166   0.34800   0.00000  Uiso   1.00
C472   C     0.89700   0.14900   0.38423   0.00000  Uiso   1.00
C473   C     0.95536   0.18202   0.44145   0.00000  Uiso   1.00
C474   C     0.99810   0.99378   0.33384   0.00000  Uiso   1.00
C475   C     0.98955   0.03057   0.26973   0.00000  Uiso   1.00
C476   C     0.05937   0.02406   0.23430   0.00000  Uiso   1.00
C477   C     0.03773   0.06205   0.17685   0.00000  Uiso   1.00
C478   C     0.92326   0.95797   0.35013   0.00000  Uiso   1.00
C479   C     0.93734   0.89042   0.38231   0.00000  Uiso   1.00
C480   C     0.85990   0.86729   0.39256   0.00000  Uiso   1.00
C481   C     0.97008   0.04695   0.35493   0.00000  Uiso   1.00
C482   C     0.02351   0.05421   0.39116   0.00000  Uiso   1.00
C483   C     0.98546   0.10599   0.40546   0.00000  Uiso   1.00
H484   H     0.76677   0.10625   0.27833   0.00000  Uiso   1.00
H485   H     0.81115   0.14473   0.17475   0.00000  Uiso   1.00
H486   H     0.68914   0.01111   0.32275   0.00000  Uiso   1.00
H487   H     0.77529   0.17488   0.33159   0.00000  Uiso   1.00
H488   H     0.89928   0.16844   0.06926   0.00000  Uiso   1.00
H489   H     0.64202   0.88671   0.38133   0.00000  Uiso   1.00
H490   H     0.82369   0.23204   0.39998   0.00000  Uiso   1.00
H491   H     0.06685   0.96035   0.35034   0.00000  Uiso   1.00
H492   H     0.12770   0.99083   0.25071   0.00000  Uiso   1.00
H493   H     0.00569   0.85721   0.39870   0.00000  Uiso   1.00
H494   H     0.09184   0.02097   0.40755   0.00000  Uiso   1.00
H495   H     0.15621   0.04353   0.13091   0.00000  Uiso   1.00
H496   H     0.89894   0.76179   0.44298   0.00000  Uiso   1.00
H497   H     0.08061   0.10712   0.46163   0.00000  Uiso   1.00
O498   O     0.06235   0.12865   0.03325   0.00000  Uiso   1.00
O499   O     0.72483   0.75903   0.44267   0.00000  Uiso   1.00
O500   O     0.96317   0.21209   0.46714   0.00000  Uiso   1.00
N501   N     0.95141   0.13487   0.09744   0.00000  Uiso   1.00
N502   N     0.71088   0.87146   0.38920   0.00000  Uiso   1.00
N503   N     0.88071   0.19431   0.40665   0.00000  Uiso   1.00
N504   N     0.08965   0.06766   0.13062   0.00000  Uiso   1.00
N505   N     0.84913   0.80425   0.42237   0.00000  Uiso   1.00
N506   N     0.01896   0.12709   0.43982   0.00000  Uiso   1.00
C507   C     0.90510   0.42779   0.60879   0.00000  Uiso   1.00
C508   C     0.96563   0.36576   0.65610   0.00000  Uiso   1.00
C509   C     0.94289   0.30692   0.68680   0.00000  Uiso   1.00
C510   C     0.00765   0.25596   0.72833   0.00000  Uiso   1.00
C511   C     0.08878   0.15850   0.80021   0.00000  Uiso   1.00
C512   C     0.89349   0.48363   0.62587   0.00000  Uiso   1.00
C513   C     0.81010   0.52389   0.63116   0.00000  Uiso   1.00
C514   C     0.81413   0.57216   0.64724   0.00000  Uiso   1.00
C515   C     0.78326   0.65772   0.67216   0.00000  Uiso   1.00
C516   C     0.96269   0.44367   0.55755   0.00000  Uiso   1.00
C517   C     0.93748   0.45034   0.50537   0.00000  Uiso   1.00
C518   C     0.99977   0.46498   0.46392   0.00000  Uiso   1.00
C519   C     0.07634   0.48849   0.38276   0.00000  Uiso   1.00
C520   C     0.06055   0.44194   0.62795   0.00000  Uiso   1.00
C521   C     0.05007   0.37345   0.66650   0.00000  Uiso   1.00
C522   C     0.11488   0.32257   0.70799   0.00000  Uiso   1.00
C523   C     0.09224   0.26366   0.73875   0.00000  Uiso   1.00
C524   C     0.97792   0.49132   0.63628   0.00000  Uiso   1.00
C525   C     0.98208   0.53954   0.65235   0.00000  Uiso   1.00
C526   C     0.89872   0.57986   0.65766   0.00000  Uiso   1.00
C527   C     0.04713   0.45135   0.56795   0.00000  Uiso   1.00
C528   C     0.10946   0.46599   0.52657   0.00000  Uiso   1.00
C529   C     0.08435   0.47268   0.47435   0.00000  Uiso   1.00
H530   H     0.83936   0.42181   0.60069   0.00000  Uiso   1.00
H531   H     0.87754   0.30099   0.67874   0.00000  Uiso   1.00
H532   H     0.74477   0.51793   0.62310   0.00000  Uiso   1.00
H533   H     0.87213   0.44439   0.49734   0.00000  Uiso   1.00
H534   H     0.95709   0.17044   0.76986   0.00000  Uiso   1.00
H535   H     0.67713   0.62789   0.65252   0.00000  Uiso   1.00
H536   H     0.94570   0.47281   0.38733   0.00000  Uiso   1.00
H537   H     0.12628   0.44793   0.63605   0.00000  Uiso   1.00
H538   H     0.18021   0.32854   0.71604   0.00000  Uiso   1.00
H539   H     0.04743   0.54548   0.66040   0.00000  Uiso   1.00
H540   H     0.17480   0.47194   0.53464   0.00000  Uiso   1.00
H541   H     0.20275   0.19280   0.80014   0.00000  Uiso   1.00
H542   H     0.92278   0.65025   0.68280   0.00000  Uiso   1.00
H543   H     0.19135   0.49517   0.41761   0.00000  Uiso   1.00
O544   O     0.11020   0.10262   0.83699   0.00000  Uiso   1.00
O545   O     0.74290   0.70278   0.68304   0.00000  Uiso   1.00
O546   O     0.09526   0.49932   0.33511   0.00000  Uiso   1.00
N547   N     0.00751   0.19208   0.76600   0.00000  Uiso   1.00
N548   N     0.74577   0.61976   0.65631   0.00000  Uiso   1.00
N549   N     0.99684   0.47480   0.40837   0.00000  Uiso   1.00
N550   N     0.13970   0.20411   0.78230   0.00000  Uiso   1.00
N551   N     0.87795   0.63179   0.67260   0.00000  Uiso   1.00
N552   N     0.12903   0.48683   0.42466   0.00000  Uiso   1.00
