data_job_01416
_audit_creation_date              2018-12-19
_audit_creation_method            'Materials Studio'
_symmetry_space_group_name_H-M    'P1'
_symmetry_Int_Tables_number       1
_symmetry_cell_setting            triclinic
loop_
_symmetry_equiv_pos_as_xyz
  x,y,z
_cell_length_a                    11.7038
_cell_length_b                    13.7733
_cell_length_c                    20.7771
_cell_angle_alpha                 90.0000
_cell_angle_beta                  135.8917
_cell_angle_gamma                 90.0000
loop_
_atom_site_label
_atom_site_type_symbol
_atom_site_fract_x
_atom_site_fract_y
_atom_site_fract_z
_atom_site_U_iso_or_equiv
_atom_site_adp_type
_atom_site_occupancy
C1     C     0.14419   0.49841   0.73961   0.00000  Uiso   1.00
C2     C     0.14681   0.48226   0.81328   0.00000  Uiso   1.00
C3     C     0.22145   0.54239   0.88836   0.00000  Uiso   1.00
C4     C     0.21010   0.51497   0.94792   0.00000  Uiso   1.00
C5     C     0.22687   0.50273   0.06462   0.00000  Uiso   1.00
C6     C     0.21733   0.40697   0.73936   0.00000  Uiso   1.00
C7     C     0.35125   0.40380   0.75229   0.00000  Uiso   1.00
C8     C     0.39925   0.31300   0.74962   0.00000  Uiso   1.00
C9     C     0.52543   0.18387   0.75149   0.00000  Uiso   1.00
C10    C     0.96367   0.49933   0.64719   0.00000  Uiso   1.00
C11    C     0.88431   0.57382   0.58260   0.00000  Uiso   1.00
C12    C     0.71875   0.56077   0.50231   0.00000  Uiso   1.00
C13    C     0.45109   0.57506   0.36108   0.00000  Uiso   1.00
C14    C     0.99130   0.34277   0.71186   0.00000  Uiso   1.00
C15    C     0.06377   0.39772   0.79820   0.00000  Uiso   1.00
C16    C     0.05229   0.37020   0.85766   0.00000  Uiso   1.00
C17    C     0.12690   0.43029   0.93282   0.00000  Uiso   1.00
C18    C     0.13429   0.32243   0.72429   0.00000  Uiso   1.00
C19    C     0.18210   0.23161   0.72159   0.00000  Uiso   1.00
C20    C     0.31606   0.22831   0.73451   0.00000  Uiso   1.00
C21    C     0.88062   0.41480   0.63211   0.00000  Uiso   1.00
C22    C     0.71516   0.40163   0.55190   0.00000  Uiso   1.00
C23    C     0.63556   0.47608   0.48721   0.00000  Uiso   1.00
H24    H     0.20885   0.56421   0.75135   0.00000  Uiso   1.00
H25    H     0.28572   0.60780   0.90001   0.00000  Uiso   1.00
H26    H     0.41548   0.46923   0.76395   0.00000  Uiso   1.00
H27    H     0.94861   0.63922   0.59429   0.00000  Uiso   1.00
H28    H     0.33437   0.61883   0.05820   0.00000  Uiso   1.00
H29    H     0.60795   0.32665   0.77127   0.00000  Uiso   1.00
H30    H     0.62347   0.68511   0.41352   0.00000  Uiso   1.00
H31    H     0.92664   0.27695   0.70012   0.00000  Uiso   1.00
H32    H     0.98802   0.30478   0.84597   0.00000  Uiso   1.00
H33    H     0.11780   0.16621   0.70991   0.00000  Uiso   1.00
H34    H     0.65093   0.33620   0.54026   0.00000  Uiso   1.00
H35    H     0.09276   0.37288   0.01434   0.00000  Uiso   1.00
H36    H     0.36634   0.08070   0.72741   0.00000  Uiso   1.00
H37    H     0.38186   0.43916   0.36966   0.00000  Uiso   1.00
O38    O     0.25908   0.51933   0.13316   0.00000  Uiso   1.00
O39    O     0.61799   0.13600   0.75670   0.00000  Uiso   1.00
O40    O     0.32638   0.60630   0.28734   0.00000  Uiso   1.00
N41    N     0.26905   0.55714   0.02785   0.00000  Uiso   1.00
N42    N     0.52486   0.28397   0.75961   0.00000  Uiso   1.00
N43    N     0.60446   0.61909   0.42513   0.00000  Uiso   1.00
N44    N     0.13904   0.42480   0.00425   0.00000  Uiso   1.00
N45    N     0.39485   0.15162   0.73601   0.00000  Uiso   1.00
N46    N     0.47445   0.48674   0.40153   0.00000  Uiso   1.00
C47    C     0.85581   0.99841   0.76039   0.00000  Uiso   1.00
C48    C     0.85319   0.98226   0.68672   0.00000  Uiso   1.00
C49    C     0.77855   0.04239   0.61164   0.00000  Uiso   1.00
C50    C     0.78990   0.01497   0.55208   0.00000  Uiso   1.00
C51    C     0.77313   0.00273   0.43538   0.00000  Uiso   1.00
C52    C     0.78267   0.90697   0.76064   0.00000  Uiso   1.00
C53    C     0.64875   0.90380   0.74771   0.00000  Uiso   1.00
C54    C     0.60075   0.81300   0.75038   0.00000  Uiso   1.00
C55    C     0.47457   0.68387   0.74851   0.00000  Uiso   1.00
C56    C     0.03633   0.99933   0.85281   0.00000  Uiso   1.00
C57    C     0.11569   0.07382   0.91740   0.00000  Uiso   1.00
C58    C     0.28125   0.06077   0.99769   0.00000  Uiso   1.00
C59    C     0.54891   0.07506   0.13892   0.00000  Uiso   1.00
C60    C     0.00870   0.84277   0.78814   0.00000  Uiso   1.00
C61    C     0.93623   0.89772   0.70180   0.00000  Uiso   1.00
C62    C     0.94771   0.87020   0.64234   0.00000  Uiso   1.00
C63    C     0.87310   0.93029   0.56718   0.00000  Uiso   1.00
C64    C     0.86571   0.82243   0.77571   0.00000  Uiso   1.00
C65    C     0.81790   0.73161   0.77841   0.00000  Uiso   1.00
C66    C     0.68394   0.72831   0.76549   0.00000  Uiso   1.00
C67    C     0.11938   0.91480   0.86789   0.00000  Uiso   1.00
C68    C     0.28484   0.90163   0.94810   0.00000  Uiso   1.00
C69    C     0.36444   0.97608   0.01279   0.00000  Uiso   1.00
H70    H     0.79115   0.06421   0.74865   0.00000  Uiso   1.00
H71    H     0.71428   0.10780   0.59999   0.00000  Uiso   1.00
H72    H     0.58452   0.96923   0.73605   0.00000  Uiso   1.00
H73    H     0.05139   0.13922   0.90571   0.00000  Uiso   1.00
H74    H     0.66563   0.11883   0.44180   0.00000  Uiso   1.00
H75    H     0.39205   0.82665   0.72873   0.00000  Uiso   1.00
H76    H     0.37653   0.18511   0.08648   0.00000  Uiso   1.00
H77    H     0.07336   0.77695   0.79988   0.00000  Uiso   1.00
H78    H     0.01198   0.80478   0.65403   0.00000  Uiso   1.00
H79    H     0.88220   0.66621   0.79009   0.00000  Uiso   1.00
H80    H     0.34907   0.83620   0.95974   0.00000  Uiso   1.00
H81    H     0.90724   0.87288   0.48566   0.00000  Uiso   1.00
H82    H     0.63366   0.58070   0.77259   0.00000  Uiso   1.00
H83    H     0.61814   0.93916   0.13034   0.00000  Uiso   1.00
O84    O     0.74092   0.01933   0.36684   0.00000  Uiso   1.00
O85    O     0.38201   0.63600   0.74330   0.00000  Uiso   1.00
O86    O     0.67362   0.10630   0.21266   0.00000  Uiso   1.00
N87    N     0.73095   0.05714   0.47215   0.00000  Uiso   1.00
N88    N     0.47514   0.78397   0.74039   0.00000  Uiso   1.00
N89    N     0.39554   0.11909   0.07487   0.00000  Uiso   1.00
N90    N     0.86096   0.92480   0.49575   0.00000  Uiso   1.00
N91    N     0.60515   0.65162   0.76399   0.00000  Uiso   1.00
N92    N     0.52555   0.98674   0.09847   0.00000  Uiso   1.00
C93    C     0.85581   0.50159   0.26039   0.00000  Uiso   1.00
C94    C     0.85319   0.51774   0.18672   0.00000  Uiso   1.00
C95    C     0.77855   0.45761   0.11164   0.00000  Uiso   1.00
C96    C     0.78990   0.48503   0.05208   0.00000  Uiso   1.00
C97    C     0.77313   0.49727   0.93538   0.00000  Uiso   1.00
C98    C     0.78267   0.59303   0.26064   0.00000  Uiso   1.00
C99    C     0.64875   0.59620   0.24771   0.00000  Uiso   1.00
C100   C     0.60075   0.68700   0.25038   0.00000  Uiso   1.00
C101   C     0.47457   0.81613   0.24851   0.00000  Uiso   1.00
C102   C     0.03633   0.50067   0.35281   0.00000  Uiso   1.00
C103   C     0.11569   0.42618   0.41740   0.00000  Uiso   1.00
C104   C     0.28125   0.43923   0.49769   0.00000  Uiso   1.00
C105   C     0.54891   0.42494   0.63892   0.00000  Uiso   1.00
C106   C     0.00870   0.65723   0.28814   0.00000  Uiso   1.00
C107   C     0.93623   0.60228   0.20180   0.00000  Uiso   1.00
C108   C     0.94771   0.62980   0.14234   0.00000  Uiso   1.00
C109   C     0.87310   0.56971   0.06718   0.00000  Uiso   1.00
C110   C     0.86571   0.67757   0.27571   0.00000  Uiso   1.00
C111   C     0.81790   0.76839   0.27841   0.00000  Uiso   1.00
C112   C     0.68394   0.77169   0.26549   0.00000  Uiso   1.00
C113   C     0.11938   0.58520   0.36789   0.00000  Uiso   1.00
C114   C     0.28484   0.59837   0.44810   0.00000  Uiso   1.00
C115   C     0.36444   0.52392   0.51279   0.00000  Uiso   1.00
H116   H     0.79115   0.43579   0.24865   0.00000  Uiso   1.00
H117   H     0.71428   0.39220   0.09999   0.00000  Uiso   1.00
H118   H     0.58452   0.53077   0.23605   0.00000  Uiso   1.00
H119   H     0.05139   0.36078   0.40571   0.00000  Uiso   1.00
H120   H     0.66563   0.38117   0.94180   0.00000  Uiso   1.00
H121   H     0.39205   0.67335   0.22873   0.00000  Uiso   1.00
H122   H     0.37653   0.31489   0.58648   0.00000  Uiso   1.00
H123   H     0.07336   0.72305   0.29988   0.00000  Uiso   1.00
H124   H     0.01198   0.69522   0.15403   0.00000  Uiso   1.00
H125   H     0.88220   0.83379   0.29009   0.00000  Uiso   1.00
H126   H     0.34907   0.66380   0.45974   0.00000  Uiso   1.00
H127   H     0.90724   0.62712   0.98566   0.00000  Uiso   1.00
H128   H     0.63366   0.91930   0.27259   0.00000  Uiso   1.00
H129   H     0.61814   0.56084   0.63034   0.00000  Uiso   1.00
O130   O     0.74092   0.48067   0.86684   0.00000  Uiso   1.00
O131   O     0.38201   0.86400   0.24330   0.00000  Uiso   1.00
O132   O     0.67362   0.39370   0.71266   0.00000  Uiso   1.00
N133   N     0.73095   0.44286   0.97215   0.00000  Uiso   1.00
N134   N     0.47514   0.71603   0.24039   0.00000  Uiso   1.00
N135   N     0.39554   0.38091   0.57487   0.00000  Uiso   1.00
N136   N     0.86096   0.57520   0.99575   0.00000  Uiso   1.00
N137   N     0.60515   0.84838   0.26399   0.00000  Uiso   1.00
N138   N     0.52555   0.51326   0.59847   0.00000  Uiso   1.00
C139   C     0.14419   0.00159   0.23961   0.00000  Uiso   1.00
C140   C     0.14681   0.01774   0.31328   0.00000  Uiso   1.00
C141   C     0.22145   0.95761   0.38836   0.00000  Uiso   1.00
C142   C     0.21010   0.98503   0.44792   0.00000  Uiso   1.00
C143   C     0.22687   0.99727   0.56462   0.00000  Uiso   1.00
C144   C     0.21733   0.09303   0.23936   0.00000  Uiso   1.00
C145   C     0.35125   0.09620   0.25229   0.00000  Uiso   1.00
C146   C     0.39925   0.18700   0.24962   0.00000  Uiso   1.00
C147   C     0.52543   0.31613   0.25149   0.00000  Uiso   1.00
C148   C     0.96367   0.00067   0.14719   0.00000  Uiso   1.00
C149   C     0.88431   0.92618   0.08260   0.00000  Uiso   1.00
C150   C     0.71875   0.93923   0.00231   0.00000  Uiso   1.00
C151   C     0.45109   0.92494   0.86108   0.00000  Uiso   1.00
C152   C     0.99130   0.15723   0.21186   0.00000  Uiso   1.00
C153   C     0.06377   0.10228   0.29820   0.00000  Uiso   1.00
C154   C     0.05229   0.12980   0.35766   0.00000  Uiso   1.00
C155   C     0.12690   0.06971   0.43282   0.00000  Uiso   1.00
C156   C     0.13429   0.17757   0.22429   0.00000  Uiso   1.00
C157   C     0.18210   0.26839   0.22159   0.00000  Uiso   1.00
C158   C     0.31606   0.27169   0.23451   0.00000  Uiso   1.00
C159   C     0.88062   0.08520   0.13211   0.00000  Uiso   1.00
C160   C     0.71516   0.09837   0.05190   0.00000  Uiso   1.00
C161   C     0.63556   0.02392   0.98721   0.00000  Uiso   1.00
H162   H     0.20885   0.93579   0.25135   0.00000  Uiso   1.00
H163   H     0.28572   0.89220   0.40001   0.00000  Uiso   1.00
H164   H     0.41548   0.03077   0.26395   0.00000  Uiso   1.00
H165   H     0.94861   0.86078   0.09429   0.00000  Uiso   1.00
H166   H     0.33437   0.88117   0.55820   0.00000  Uiso   1.00
H167   H     0.60795   0.17335   0.27127   0.00000  Uiso   1.00
H168   H     0.62347   0.81489   0.91352   0.00000  Uiso   1.00
H169   H     0.92664   0.22305   0.20012   0.00000  Uiso   1.00
H170   H     0.98802   0.19522   0.34597   0.00000  Uiso   1.00
H171   H     0.11780   0.33379   0.20991   0.00000  Uiso   1.00
H172   H     0.65093   0.16380   0.04026   0.00000  Uiso   1.00
H173   H     0.09276   0.12712   0.51434   0.00000  Uiso   1.00
H174   H     0.36634   0.41930   0.22741   0.00000  Uiso   1.00
H175   H     0.38186   0.06084   0.86966   0.00000  Uiso   1.00
O176   O     0.25908   0.98067   0.63316   0.00000  Uiso   1.00
O177   O     0.61799   0.36400   0.25670   0.00000  Uiso   1.00
O178   O     0.32638   0.89370   0.78734   0.00000  Uiso   1.00
N179   N     0.26905   0.94286   0.52785   0.00000  Uiso   1.00
N180   N     0.52486   0.21603   0.25961   0.00000  Uiso   1.00
N181   N     0.60446   0.88091   0.92513   0.00000  Uiso   1.00
N182   N     0.13904   0.07520   0.50425   0.00000  Uiso   1.00
N183   N     0.39485   0.34838   0.23601   0.00000  Uiso   1.00
N184   N     0.47445   0.01326   0.90153   0.00000  Uiso   1.00
