data_job_04197
_audit_creation_date              2018-12-19
_audit_creation_method            'Materials Studio'
_symmetry_space_group_name_H-M    'P1'
_symmetry_Int_Tables_number       1
_symmetry_cell_setting            triclinic
loop_
_symmetry_equiv_pos_as_xyz
  x,y,z
_cell_length_a                    14.9503
_cell_length_b                    18.2063
_cell_length_c                    19.8659
_cell_angle_alpha                 90.0000
_cell_angle_beta                  90.0000
_cell_angle_gamma                 90.0000
loop_
_atom_site_label
_atom_site_type_symbol
_atom_site_fract_x
_atom_site_fract_y
_atom_site_fract_z
_atom_site_U_iso_or_equiv
_atom_site_adp_type
_atom_site_occupancy
C1     C     0.19269   0.16270   0.20289   0.00000  Uiso   1.00
C2     C     0.24615   0.13370   0.26261   0.00000  Uiso   1.00
C3     C     0.24917   0.16498   0.32627   0.00000  Uiso   1.00
C4     C     0.30205   0.13014   0.37403   0.00000  Uiso   1.00
C5     C     0.37778   0.09483   0.46911   0.00000  Uiso   1.00
C6     C     0.26002   0.17423   0.14620   0.00000  Uiso   1.00
C7     C     0.27470   0.23959   0.11199   0.00000  Uiso   1.00
C8     C     0.33925   0.23886   0.06175   0.00000  Uiso   1.00
C9     C     0.43647   0.26647   0.97606   0.00000  Uiso   1.00
C10    C     0.13258   0.09965   0.18038   0.00000  Uiso   1.00
C11    C     0.04009   0.10230   0.17488   0.00000  Uiso   1.00
C12    C     0.99735   0.03878   0.15340   0.00000  Uiso   1.00
C13    C     0.89669   0.95059   0.12079   0.00000  Uiso   1.00
C14    C     0.28123   0.04519   0.17449   0.00000  Uiso   1.00
C15    C     0.29424   0.06987   0.24719   0.00000  Uiso   1.00
C16    C     0.34713   0.03497   0.29486   0.00000  Uiso   1.00
C17    C     0.35023   0.06619   0.35859   0.00000  Uiso   1.00
C18    C     0.30812   0.11040   0.13078   0.00000  Uiso   1.00
C19    C     0.37266   0.10957   0.08058   0.00000  Uiso   1.00
C20    C     0.38743   0.17492   0.04630   0.00000  Uiso   1.00
C21    C     0.18067   0.03582   0.16496   0.00000  Uiso   1.00
C22    C     0.13806   0.97229   0.14348   0.00000  Uiso   1.00
C23    C     0.04553   0.97484   0.13795   0.00000  Uiso   1.00
H24    H     0.15525   0.21239   0.21489   0.00000  Uiso   1.00
H25    H     0.21195   0.21438   0.33819   0.00000  Uiso   1.00
H26    H     0.23746   0.28897   0.12393   0.00000  Uiso   1.00
H27    H     0.00290   0.15170   0.18682   0.00000  Uiso   1.00
H28    H     0.29604   0.18845   0.46808   0.00000  Uiso   1.00
H29    H     0.34982   0.34572   0.01629   0.00000  Uiso   1.00
H30    H     0.85520   0.05627   0.14891   0.00000  Uiso   1.00
H31    H     0.31867   0.99549   0.16249   0.00000  Uiso   1.00
H32    H     0.38434   0.98557   0.28291   0.00000  Uiso   1.00
H33    H     0.40986   0.06017   0.06865   0.00000  Uiso   1.00
H34    H     0.17529   0.92290   0.13155   0.00000  Uiso   1.00
H35    H     0.43597   0.00274   0.42322   0.00000  Uiso   1.00
H36    H     0.48975   0.16002   0.97142   0.00000  Uiso   1.00
H37    H     0.99512   0.87057   0.10405   0.00000  Uiso   1.00
O38    O     0.40628   0.09300   0.52581   0.00000  Uiso   1.00
O39    O     0.47682   0.29933   0.93307   0.00000  Uiso   1.00
O40    O     0.82788   0.91958   0.10707   0.00000  Uiso   1.00
N41    N     0.31995   0.14610   0.44100   0.00000  Uiso   1.00
N42    N     0.37024   0.29314   0.01861   0.00000  Uiso   1.00
N43    N     0.90781   0.02253   0.14258   0.00000  Uiso   1.00
N44    N     0.39524   0.04617   0.41686   0.00000  Uiso   1.00
N45    N     0.44553   0.19321   0.99447   0.00000  Uiso   1.00
N46    N     0.98310   0.92261   0.11844   0.00000  Uiso   1.00
C47    C     0.69269   0.66270   0.20289   0.00000  Uiso   1.00
C48    C     0.74615   0.63370   0.26261   0.00000  Uiso   1.00
C49    C     0.74917   0.66498   0.32627   0.00000  Uiso   1.00
C50    C     0.80205   0.63014   0.37403   0.00000  Uiso   1.00
C51    C     0.87778   0.59483   0.46911   0.00000  Uiso   1.00
C52    C     0.76002   0.67423   0.14620   0.00000  Uiso   1.00
C53    C     0.77470   0.73959   0.11199   0.00000  Uiso   1.00
C54    C     0.83925   0.73886   0.06175   0.00000  Uiso   1.00
C55    C     0.93647   0.76647   0.97606   0.00000  Uiso   1.00
C56    C     0.63258   0.59965   0.18038   0.00000  Uiso   1.00
C57    C     0.54009   0.60230   0.17488   0.00000  Uiso   1.00
C58    C     0.49735   0.53878   0.15340   0.00000  Uiso   1.00
C59    C     0.39669   0.45059   0.12079   0.00000  Uiso   1.00
C60    C     0.78123   0.54519   0.17449   0.00000  Uiso   1.00
C61    C     0.79424   0.56987   0.24719   0.00000  Uiso   1.00
C62    C     0.84713   0.53497   0.29486   0.00000  Uiso   1.00
C63    C     0.85023   0.56619   0.35859   0.00000  Uiso   1.00
C64    C     0.80812   0.61040   0.13078   0.00000  Uiso   1.00
C65    C     0.87266   0.60957   0.08058   0.00000  Uiso   1.00
C66    C     0.88743   0.67492   0.04630   0.00000  Uiso   1.00
C67    C     0.68067   0.53582   0.16496   0.00000  Uiso   1.00
C68    C     0.63806   0.47229   0.14348   0.00000  Uiso   1.00
C69    C     0.54553   0.47484   0.13795   0.00000  Uiso   1.00
H70    H     0.65525   0.71239   0.21489   0.00000  Uiso   1.00
H71    H     0.71195   0.71438   0.33819   0.00000  Uiso   1.00
H72    H     0.73746   0.78897   0.12393   0.00000  Uiso   1.00
H73    H     0.50290   0.65170   0.18682   0.00000  Uiso   1.00
H74    H     0.79604   0.68845   0.46808   0.00000  Uiso   1.00
H75    H     0.84982   0.84572   0.01629   0.00000  Uiso   1.00
H76    H     0.35520   0.55627   0.14891   0.00000  Uiso   1.00
H77    H     0.81867   0.49549   0.16249   0.00000  Uiso   1.00
H78    H     0.88434   0.48557   0.28291   0.00000  Uiso   1.00
H79    H     0.90986   0.56017   0.06865   0.00000  Uiso   1.00
H80    H     0.67529   0.42290   0.13155   0.00000  Uiso   1.00
H81    H     0.93597   0.50274   0.42322   0.00000  Uiso   1.00
H82    H     0.98975   0.66002   0.97142   0.00000  Uiso   1.00
H83    H     0.49512   0.37057   0.10405   0.00000  Uiso   1.00
O84    O     0.90628   0.59300   0.52581   0.00000  Uiso   1.00
O85    O     0.97682   0.79933   0.93307   0.00000  Uiso   1.00
O86    O     0.32788   0.41958   0.10707   0.00000  Uiso   1.00
N87    N     0.81995   0.64610   0.44100   0.00000  Uiso   1.00
N88    N     0.87024   0.79314   0.01861   0.00000  Uiso   1.00
N89    N     0.40781   0.52253   0.14258   0.00000  Uiso   1.00
N90    N     0.89524   0.54617   0.41686   0.00000  Uiso   1.00
N91    N     0.94553   0.69321   0.99447   0.00000  Uiso   1.00
N92    N     0.48310   0.42261   0.11844   0.00000  Uiso   1.00
C93    C     0.80731   0.83730   0.70289   0.00000  Uiso   1.00
C94    C     0.75385   0.86630   0.76261   0.00000  Uiso   1.00
C95    C     0.75083   0.83502   0.82627   0.00000  Uiso   1.00
C96    C     0.69795   0.86986   0.87403   0.00000  Uiso   1.00
C97    C     0.62222   0.90517   0.96911   0.00000  Uiso   1.00
C98    C     0.73998   0.82577   0.64620   0.00000  Uiso   1.00
C99    C     0.72530   0.76041   0.61199   0.00000  Uiso   1.00
C100   C     0.66075   0.76114   0.56175   0.00000  Uiso   1.00
C101   C     0.56353   0.73353   0.47606   0.00000  Uiso   1.00
C102   C     0.86742   0.90035   0.68038   0.00000  Uiso   1.00
C103   C     0.95991   0.89770   0.67488   0.00000  Uiso   1.00
C104   C     0.00265   0.96122   0.65340   0.00000  Uiso   1.00
C105   C     0.10331   0.04941   0.62079   0.00000  Uiso   1.00
C106   C     0.71877   0.95481   0.67449   0.00000  Uiso   1.00
C107   C     0.70576   0.93013   0.74719   0.00000  Uiso   1.00
C108   C     0.65287   0.96503   0.79486   0.00000  Uiso   1.00
C109   C     0.64977   0.93381   0.85859   0.00000  Uiso   1.00
C110   C     0.69188   0.88960   0.63078   0.00000  Uiso   1.00
C111   C     0.62734   0.89043   0.58058   0.00000  Uiso   1.00
C112   C     0.61257   0.82508   0.54630   0.00000  Uiso   1.00
C113   C     0.81933   0.96418   0.66496   0.00000  Uiso   1.00
C114   C     0.86194   0.02771   0.64348   0.00000  Uiso   1.00
C115   C     0.95447   0.02516   0.63795   0.00000  Uiso   1.00
H116   H     0.84475   0.78761   0.71489   0.00000  Uiso   1.00
H117   H     0.78805   0.78562   0.83819   0.00000  Uiso   1.00
H118   H     0.76254   0.71103   0.62393   0.00000  Uiso   1.00
H119   H     0.99710   0.84830   0.68682   0.00000  Uiso   1.00
H120   H     0.70396   0.81155   0.96808   0.00000  Uiso   1.00
H121   H     0.65018   0.65428   0.51629   0.00000  Uiso   1.00
H122   H     0.14480   0.94373   0.64891   0.00000  Uiso   1.00
H123   H     0.68133   0.00451   0.66249   0.00000  Uiso   1.00
H124   H     0.61566   0.01443   0.78291   0.00000  Uiso   1.00
H125   H     0.59014   0.93983   0.56865   0.00000  Uiso   1.00
H126   H     0.82471   0.07710   0.63155   0.00000  Uiso   1.00
H127   H     0.56403   0.99726   0.92322   0.00000  Uiso   1.00
H128   H     0.51025   0.83998   0.47142   0.00000  Uiso   1.00
H129   H     0.00488   0.12943   0.60405   0.00000  Uiso   1.00
O130   O     0.59372   0.90700   0.02581   0.00000  Uiso   1.00
O131   O     0.52318   0.70067   0.43307   0.00000  Uiso   1.00
O132   O     0.17212   0.08042   0.60707   0.00000  Uiso   1.00
N133   N     0.68005   0.85390   0.94100   0.00000  Uiso   1.00
N134   N     0.62976   0.70686   0.51861   0.00000  Uiso   1.00
N135   N     0.09219   0.97747   0.64258   0.00000  Uiso   1.00
N136   N     0.60476   0.95383   0.91686   0.00000  Uiso   1.00
N137   N     0.55447   0.80679   0.49447   0.00000  Uiso   1.00
N138   N     0.01690   0.07739   0.61844   0.00000  Uiso   1.00
C139   C     0.30731   0.33730   0.70289   0.00000  Uiso   1.00
C140   C     0.25385   0.36630   0.76261   0.00000  Uiso   1.00
C141   C     0.25083   0.33502   0.82627   0.00000  Uiso   1.00
C142   C     0.19795   0.36986   0.87403   0.00000  Uiso   1.00
C143   C     0.12222   0.40517   0.96911   0.00000  Uiso   1.00
C144   C     0.23998   0.32577   0.64620   0.00000  Uiso   1.00
C145   C     0.22530   0.26041   0.61199   0.00000  Uiso   1.00
C146   C     0.16075   0.26114   0.56175   0.00000  Uiso   1.00
C147   C     0.06353   0.23353   0.47606   0.00000  Uiso   1.00
C148   C     0.36742   0.40035   0.68038   0.00000  Uiso   1.00
C149   C     0.45991   0.39770   0.67488   0.00000  Uiso   1.00
C150   C     0.50265   0.46122   0.65340   0.00000  Uiso   1.00
C151   C     0.60331   0.54941   0.62079   0.00000  Uiso   1.00
C152   C     0.21877   0.45481   0.67449   0.00000  Uiso   1.00
C153   C     0.20576   0.43013   0.74719   0.00000  Uiso   1.00
C154   C     0.15287   0.46503   0.79486   0.00000  Uiso   1.00
C155   C     0.14977   0.43381   0.85859   0.00000  Uiso   1.00
C156   C     0.19188   0.38960   0.63078   0.00000  Uiso   1.00
C157   C     0.12734   0.39043   0.58058   0.00000  Uiso   1.00
C158   C     0.11257   0.32508   0.54630   0.00000  Uiso   1.00
C159   C     0.31933   0.46418   0.66496   0.00000  Uiso   1.00
C160   C     0.36194   0.52771   0.64348   0.00000  Uiso   1.00
C161   C     0.45447   0.52516   0.63795   0.00000  Uiso   1.00
H162   H     0.34475   0.28761   0.71489   0.00000  Uiso   1.00
H163   H     0.28805   0.28562   0.83819   0.00000  Uiso   1.00
H164   H     0.26254   0.21103   0.62393   0.00000  Uiso   1.00
H165   H     0.49710   0.34830   0.68682   0.00000  Uiso   1.00
H166   H     0.20396   0.31155   0.96808   0.00000  Uiso   1.00
H167   H     0.15018   0.15428   0.51629   0.00000  Uiso   1.00
H168   H     0.64480   0.44373   0.64891   0.00000  Uiso   1.00
H169   H     0.18133   0.50451   0.66249   0.00000  Uiso   1.00
H170   H     0.11566   0.51443   0.78291   0.00000  Uiso   1.00
H171   H     0.09014   0.43983   0.56865   0.00000  Uiso   1.00
H172   H     0.32471   0.57710   0.63155   0.00000  Uiso   1.00
H173   H     0.06403   0.49726   0.92322   0.00000  Uiso   1.00
H174   H     0.01025   0.33998   0.47142   0.00000  Uiso   1.00
H175   H     0.50488   0.62943   0.60405   0.00000  Uiso   1.00
O176   O     0.09372   0.40700   0.02581   0.00000  Uiso   1.00
O177   O     0.02318   0.20067   0.43307   0.00000  Uiso   1.00
O178   O     0.67212   0.58042   0.60707   0.00000  Uiso   1.00
N179   N     0.18005   0.35390   0.94100   0.00000  Uiso   1.00
N180   N     0.12976   0.20686   0.51861   0.00000  Uiso   1.00
N181   N     0.59219   0.47747   0.64258   0.00000  Uiso   1.00
N182   N     0.10476   0.45383   0.91686   0.00000  Uiso   1.00
N183   N     0.05447   0.30679   0.49447   0.00000  Uiso   1.00
N184   N     0.51690   0.57739   0.61844   0.00000  Uiso   1.00
C185   C     0.80731   0.16270   0.29711   0.00000  Uiso   1.00
C186   C     0.75385   0.13370   0.23739   0.00000  Uiso   1.00
C187   C     0.75083   0.16498   0.17373   0.00000  Uiso   1.00
C188   C     0.69795   0.13014   0.12597   0.00000  Uiso   1.00
C189   C     0.62222   0.09483   0.03089   0.00000  Uiso   1.00
C190   C     0.73998   0.17423   0.35380   0.00000  Uiso   1.00
C191   C     0.72530   0.23959   0.38801   0.00000  Uiso   1.00
C192   C     0.66075   0.23886   0.43825   0.00000  Uiso   1.00
C193   C     0.56353   0.26647   0.52394   0.00000  Uiso   1.00
C194   C     0.86742   0.09965   0.31962   0.00000  Uiso   1.00
C195   C     0.95991   0.10230   0.32512   0.00000  Uiso   1.00
C196   C     0.00265   0.03878   0.34660   0.00000  Uiso   1.00
C197   C     0.10331   0.95059   0.37921   0.00000  Uiso   1.00
C198   C     0.71877   0.04519   0.32551   0.00000  Uiso   1.00
C199   C     0.70576   0.06987   0.25281   0.00000  Uiso   1.00
C200   C     0.65287   0.03497   0.20514   0.00000  Uiso   1.00
C201   C     0.64977   0.06619   0.14141   0.00000  Uiso   1.00
C202   C     0.69188   0.11040   0.36922   0.00000  Uiso   1.00
C203   C     0.62734   0.10957   0.41942   0.00000  Uiso   1.00
C204   C     0.61257   0.17492   0.45370   0.00000  Uiso   1.00
C205   C     0.81933   0.03582   0.33504   0.00000  Uiso   1.00
C206   C     0.86194   0.97229   0.35652   0.00000  Uiso   1.00
C207   C     0.95447   0.97484   0.36205   0.00000  Uiso   1.00
H208   H     0.84475   0.21239   0.28511   0.00000  Uiso   1.00
H209   H     0.78805   0.21438   0.16181   0.00000  Uiso   1.00
H210   H     0.76254   0.28897   0.37607   0.00000  Uiso   1.00
H211   H     0.99710   0.15170   0.31318   0.00000  Uiso   1.00
H212   H     0.70396   0.18845   0.03192   0.00000  Uiso   1.00
H213   H     0.65018   0.34572   0.48371   0.00000  Uiso   1.00
H214   H     0.14480   0.05627   0.35109   0.00000  Uiso   1.00
H215   H     0.68133   0.99549   0.33751   0.00000  Uiso   1.00
H216   H     0.61566   0.98557   0.21709   0.00000  Uiso   1.00
H217   H     0.59014   0.06017   0.43135   0.00000  Uiso   1.00
H218   H     0.82471   0.92290   0.36845   0.00000  Uiso   1.00
H219   H     0.56403   0.00274   0.07678   0.00000  Uiso   1.00
H220   H     0.51025   0.16002   0.52858   0.00000  Uiso   1.00
H221   H     0.00488   0.87057   0.39595   0.00000  Uiso   1.00
O222   O     0.59372   0.09300   0.97419   0.00000  Uiso   1.00
O223   O     0.52318   0.29933   0.56693   0.00000  Uiso   1.00
O224   O     0.17212   0.91958   0.39293   0.00000  Uiso   1.00
N225   N     0.68005   0.14610   0.05900   0.00000  Uiso   1.00
N226   N     0.62976   0.29314   0.48139   0.00000  Uiso   1.00
N227   N     0.09219   0.02253   0.35742   0.00000  Uiso   1.00
N228   N     0.60476   0.04617   0.08314   0.00000  Uiso   1.00
N229   N     0.55447   0.19321   0.50553   0.00000  Uiso   1.00
N230   N     0.01690   0.92261   0.38156   0.00000  Uiso   1.00
C231   C     0.30731   0.66270   0.29711   0.00000  Uiso   1.00
C232   C     0.25385   0.63370   0.23739   0.00000  Uiso   1.00
C233   C     0.25083   0.66498   0.17373   0.00000  Uiso   1.00
C234   C     0.19795   0.63014   0.12597   0.00000  Uiso   1.00
C235   C     0.12222   0.59483   0.03089   0.00000  Uiso   1.00
C236   C     0.23998   0.67423   0.35380   0.00000  Uiso   1.00
C237   C     0.22530   0.73959   0.38801   0.00000  Uiso   1.00
C238   C     0.16075   0.73886   0.43825   0.00000  Uiso   1.00
C239   C     0.06353   0.76647   0.52394   0.00000  Uiso   1.00
C240   C     0.36742   0.59965   0.31962   0.00000  Uiso   1.00
C241   C     0.45991   0.60230   0.32512   0.00000  Uiso   1.00
C242   C     0.50265   0.53878   0.34660   0.00000  Uiso   1.00
C243   C     0.60331   0.45059   0.37921   0.00000  Uiso   1.00
C244   C     0.21877   0.54519   0.32551   0.00000  Uiso   1.00
C245   C     0.20576   0.56987   0.25281   0.00000  Uiso   1.00
C246   C     0.15287   0.53497   0.20514   0.00000  Uiso   1.00
C247   C     0.14977   0.56619   0.14141   0.00000  Uiso   1.00
C248   C     0.19188   0.61040   0.36922   0.00000  Uiso   1.00
C249   C     0.12734   0.60957   0.41942   0.00000  Uiso   1.00
C250   C     0.11257   0.67492   0.45370   0.00000  Uiso   1.00
C251   C     0.31933   0.53582   0.33504   0.00000  Uiso   1.00
C252   C     0.36194   0.47229   0.35652   0.00000  Uiso   1.00
C253   C     0.45447   0.47484   0.36205   0.00000  Uiso   1.00
H254   H     0.34475   0.71239   0.28511   0.00000  Uiso   1.00
H255   H     0.28805   0.71438   0.16181   0.00000  Uiso   1.00
H256   H     0.26254   0.78897   0.37607   0.00000  Uiso   1.00
H257   H     0.49710   0.65170   0.31318   0.00000  Uiso   1.00
H258   H     0.20396   0.68845   0.03192   0.00000  Uiso   1.00
H259   H     0.15018   0.84572   0.48371   0.00000  Uiso   1.00
H260   H     0.64480   0.55627   0.35109   0.00000  Uiso   1.00
H261   H     0.18133   0.49549   0.33751   0.00000  Uiso   1.00
H262   H     0.11566   0.48557   0.21709   0.00000  Uiso   1.00
H263   H     0.09014   0.56017   0.43135   0.00000  Uiso   1.00
H264   H     0.32471   0.42290   0.36845   0.00000  Uiso   1.00
H265   H     0.06403   0.50274   0.07678   0.00000  Uiso   1.00
H266   H     0.01025   0.66002   0.52858   0.00000  Uiso   1.00
H267   H     0.50488   0.37057   0.39595   0.00000  Uiso   1.00
O268   O     0.09372   0.59300   0.97419   0.00000  Uiso   1.00
O269   O     0.02318   0.79933   0.56693   0.00000  Uiso   1.00
O270   O     0.67212   0.41958   0.39293   0.00000  Uiso   1.00
N271   N     0.18005   0.64610   0.05900   0.00000  Uiso   1.00
N272   N     0.12976   0.79314   0.48139   0.00000  Uiso   1.00
N273   N     0.59219   0.52253   0.35742   0.00000  Uiso   1.00
N274   N     0.10476   0.54617   0.08314   0.00000  Uiso   1.00
N275   N     0.05447   0.69321   0.50553   0.00000  Uiso   1.00
N276   N     0.51690   0.42261   0.38156   0.00000  Uiso   1.00
C277   C     0.19269   0.83730   0.79711   0.00000  Uiso   1.00
C278   C     0.24615   0.86630   0.73739   0.00000  Uiso   1.00
C279   C     0.24917   0.83502   0.67373   0.00000  Uiso   1.00
C280   C     0.30205   0.86986   0.62597   0.00000  Uiso   1.00
C281   C     0.37778   0.90517   0.53089   0.00000  Uiso   1.00
C282   C     0.26002   0.82577   0.85380   0.00000  Uiso   1.00
C283   C     0.27470   0.76041   0.88801   0.00000  Uiso   1.00
C284   C     0.33925   0.76114   0.93825   0.00000  Uiso   1.00
C285   C     0.43647   0.73353   0.02394   0.00000  Uiso   1.00
C286   C     0.13258   0.90035   0.81962   0.00000  Uiso   1.00
C287   C     0.04009   0.89770   0.82512   0.00000  Uiso   1.00
C288   C     0.99735   0.96122   0.84660   0.00000  Uiso   1.00
C289   C     0.89669   0.04941   0.87921   0.00000  Uiso   1.00
C290   C     0.28123   0.95481   0.82551   0.00000  Uiso   1.00
C291   C     0.29424   0.93013   0.75281   0.00000  Uiso   1.00
C292   C     0.34713   0.96503   0.70514   0.00000  Uiso   1.00
C293   C     0.35023   0.93381   0.64141   0.00000  Uiso   1.00
C294   C     0.30812   0.88960   0.86922   0.00000  Uiso   1.00
C295   C     0.37266   0.89043   0.91942   0.00000  Uiso   1.00
C296   C     0.38743   0.82508   0.95370   0.00000  Uiso   1.00
C297   C     0.18067   0.96418   0.83504   0.00000  Uiso   1.00
C298   C     0.13806   0.02771   0.85652   0.00000  Uiso   1.00
C299   C     0.04553   0.02516   0.86205   0.00000  Uiso   1.00
H300   H     0.15525   0.78761   0.78511   0.00000  Uiso   1.00
H301   H     0.21195   0.78562   0.66181   0.00000  Uiso   1.00
H302   H     0.23746   0.71103   0.87607   0.00000  Uiso   1.00
H303   H     0.00290   0.84830   0.81318   0.00000  Uiso   1.00
H304   H     0.29604   0.81155   0.53192   0.00000  Uiso   1.00
H305   H     0.34982   0.65428   0.98371   0.00000  Uiso   1.00
H306   H     0.85520   0.94373   0.85109   0.00000  Uiso   1.00
H307   H     0.31867   0.00451   0.83751   0.00000  Uiso   1.00
H308   H     0.38434   0.01443   0.71709   0.00000  Uiso   1.00
H309   H     0.40986   0.93983   0.93135   0.00000  Uiso   1.00
H310   H     0.17529   0.07710   0.86845   0.00000  Uiso   1.00
H311   H     0.43597   0.99726   0.57678   0.00000  Uiso   1.00
H312   H     0.48975   0.83998   0.02858   0.00000  Uiso   1.00
H313   H     0.99512   0.12943   0.89595   0.00000  Uiso   1.00
O314   O     0.40628   0.90700   0.47419   0.00000  Uiso   1.00
O315   O     0.47682   0.70067   0.06693   0.00000  Uiso   1.00
O316   O     0.82788   0.08042   0.89293   0.00000  Uiso   1.00
N317   N     0.31995   0.85390   0.55900   0.00000  Uiso   1.00
N318   N     0.37024   0.70686   0.98139   0.00000  Uiso   1.00
N319   N     0.90781   0.97747   0.85742   0.00000  Uiso   1.00
N320   N     0.39524   0.95383   0.58314   0.00000  Uiso   1.00
N321   N     0.44553   0.80679   0.00553   0.00000  Uiso   1.00
N322   N     0.98310   0.07739   0.88156   0.00000  Uiso   1.00
C323   C     0.69269   0.33730   0.79711   0.00000  Uiso   1.00
C324   C     0.74615   0.36630   0.73739   0.00000  Uiso   1.00
C325   C     0.74917   0.33502   0.67373   0.00000  Uiso   1.00
C326   C     0.80205   0.36986   0.62597   0.00000  Uiso   1.00
C327   C     0.87778   0.40517   0.53089   0.00000  Uiso   1.00
C328   C     0.76002   0.32577   0.85380   0.00000  Uiso   1.00
C329   C     0.77470   0.26041   0.88801   0.00000  Uiso   1.00
C330   C     0.83925   0.26114   0.93825   0.00000  Uiso   1.00
C331   C     0.93647   0.23353   0.02394   0.00000  Uiso   1.00
C332   C     0.63258   0.40035   0.81962   0.00000  Uiso   1.00
C333   C     0.54009   0.39770   0.82512   0.00000  Uiso   1.00
C334   C     0.49735   0.46122   0.84660   0.00000  Uiso   1.00
C335   C     0.39669   0.54941   0.87921   0.00000  Uiso   1.00
C336   C     0.78123   0.45481   0.82551   0.00000  Uiso   1.00
C337   C     0.79424   0.43013   0.75281   0.00000  Uiso   1.00
C338   C     0.84713   0.46503   0.70514   0.00000  Uiso   1.00
C339   C     0.85023   0.43381   0.64141   0.00000  Uiso   1.00
C340   C     0.80812   0.38960   0.86922   0.00000  Uiso   1.00
C341   C     0.87266   0.39043   0.91942   0.00000  Uiso   1.00
C342   C     0.88743   0.32508   0.95370   0.00000  Uiso   1.00
C343   C     0.68067   0.46418   0.83504   0.00000  Uiso   1.00
C344   C     0.63806   0.52771   0.85652   0.00000  Uiso   1.00
C345   C     0.54553   0.52516   0.86205   0.00000  Uiso   1.00
H346   H     0.65525   0.28761   0.78511   0.00000  Uiso   1.00
H347   H     0.71195   0.28562   0.66181   0.00000  Uiso   1.00
H348   H     0.73746   0.21103   0.87607   0.00000  Uiso   1.00
H349   H     0.50290   0.34830   0.81318   0.00000  Uiso   1.00
H350   H     0.79604   0.31155   0.53192   0.00000  Uiso   1.00
H351   H     0.84982   0.15428   0.98371   0.00000  Uiso   1.00
H352   H     0.35520   0.44373   0.85109   0.00000  Uiso   1.00
H353   H     0.81867   0.50451   0.83751   0.00000  Uiso   1.00
H354   H     0.88434   0.51443   0.71709   0.00000  Uiso   1.00
H355   H     0.90986   0.43983   0.93135   0.00000  Uiso   1.00
H356   H     0.67529   0.57710   0.86845   0.00000  Uiso   1.00
H357   H     0.93597   0.49726   0.57678   0.00000  Uiso   1.00
H358   H     0.98975   0.33998   0.02858   0.00000  Uiso   1.00
H359   H     0.49512   0.62943   0.89595   0.00000  Uiso   1.00
O360   O     0.90628   0.40700   0.47419   0.00000  Uiso   1.00
O361   O     0.97682   0.20067   0.06693   0.00000  Uiso   1.00
O362   O     0.32788   0.58042   0.89293   0.00000  Uiso   1.00
N363   N     0.81995   0.35390   0.55900   0.00000  Uiso   1.00
N364   N     0.87024   0.20686   0.98139   0.00000  Uiso   1.00
N365   N     0.40781   0.47747   0.85742   0.00000  Uiso   1.00
N366   N     0.89524   0.45383   0.58314   0.00000  Uiso   1.00
N367   N     0.94553   0.30679   0.00553   0.00000  Uiso   1.00
N368   N     0.48310   0.57739   0.88156   0.00000  Uiso   1.00
