data_job_06347
_audit_creation_date              2018-12-19
_audit_creation_method            'Materials Studio'
_symmetry_space_group_name_H-M    'P1'
_symmetry_Int_Tables_number       1
_symmetry_cell_setting            triclinic
loop_
_symmetry_equiv_pos_as_xyz
  x,y,z
_cell_length_a                    16.8873
_cell_length_b                    16.8725
_cell_length_c                    16.8570
_cell_angle_alpha                 97.3905
_cell_angle_beta                  97.3839
_cell_angle_gamma                 97.3753
loop_
_atom_site_label
_atom_site_type_symbol
_atom_site_fract_x
_atom_site_fract_y
_atom_site_fract_z
_atom_site_U_iso_or_equiv
_atom_site_adp_type
_atom_site_occupancy
C1     C     0.30642   0.27955   0.78961   0.00000  Uiso   1.00
C2     C     0.34327   0.20751   0.75414   0.00000  Uiso   1.00
C3     C     0.42281   0.19525   0.77290   0.00000  Uiso   1.00
C4     C     0.44474   0.12554   0.73392   0.00000  Uiso   1.00
C5     C     0.51044   0.02212   0.68730   0.00000  Uiso   1.00
C6     C     0.27129   0.31687   0.71769   0.00000  Uiso   1.00
C7     C     0.29030   0.39656   0.70581   0.00000  Uiso   1.00
C8     C     0.25163   0.41891   0.63614   0.00000  Uiso   1.00
C9     C     0.20553   0.48529   0.53295   0.00000  Uiso   1.00
C10    C     0.23445   0.24440   0.82670   0.00000  Uiso   1.00
C11    C     0.22247   0.26317   0.90646   0.00000  Uiso   1.00
C12    C     0.15277   0.22453   0.92858   0.00000  Uiso   1.00
C13    C     0.04948   0.17839   0.99464   0.00000  Uiso   1.00
C14    C     0.20392   0.17756   0.68704   0.00000  Uiso   1.00
C15    C     0.28760   0.15211   0.69843   0.00000  Uiso   1.00
C16    C     0.30941   0.08240   0.65941   0.00000  Uiso   1.00
C17    C     0.38897   0.07004   0.67811   0.00000  Uiso   1.00
C18    C     0.21562   0.26147   0.66198   0.00000  Uiso   1.00
C19    C     0.17690   0.28371   0.59232   0.00000  Uiso   1.00
C20    C     0.19585   0.36341   0.58033   0.00000  Uiso   1.00
C21    C     0.17878   0.18900   0.77098   0.00000  Uiso   1.00
C22    C     0.10908   0.15033   0.79298   0.00000  Uiso   1.00
C23    C     0.09700   0.16903   0.87276   0.00000  Uiso   1.00
H24    H     0.34976   0.32269   0.83298   0.00000  Uiso   1.00
H25    H     0.46588   0.23814   0.81601   0.00000  Uiso   1.00
H26    H     0.33338   0.43942   0.74893   0.00000  Uiso   1.00
H27    H     0.26557   0.30605   0.94956   0.00000  Uiso   1.00
H28    H     0.57007   0.11998   0.77261   0.00000  Uiso   1.00
H29    H     0.29068   0.54440   0.63118   0.00000  Uiso   1.00
H30    H     0.14768   0.26317   0.05424   0.00000  Uiso   1.00
H31    H     0.16057   0.13443   0.64366   0.00000  Uiso   1.00
H32    H     0.26631   0.03954   0.61630   0.00000  Uiso   1.00
H33    H     0.13382   0.24083   0.54922   0.00000  Uiso   1.00
H34    H     0.06601   0.10746   0.74985   0.00000  Uiso   1.00
H35    H     0.40810   0.95879   0.61051   0.00000  Uiso   1.00
H36    H     0.12871   0.38322   0.46909   0.00000  Uiso   1.00
H37    H     0.98571   0.10198   0.89214   0.00000  Uiso   1.00
O38    O     0.56206   0.98038   0.67696   0.00000  Uiso   1.00
O39    O     0.19550   0.53720   0.49142   0.00000  Uiso   1.00
O40    O     0.00790   0.16823   0.04647   0.00000  Uiso   1.00
N41    N     0.51743   0.09506   0.73823   0.00000  Uiso   1.00
N42    N     0.25623   0.49186   0.60599   0.00000  Uiso   1.00
N43    N     0.12253   0.22895   0.00151   0.00000  Uiso   1.00
N44    N     0.43028   0.00833   0.65101   0.00000  Uiso   1.00
N45    N     0.16908   0.40513   0.51877   0.00000  Uiso   1.00
N46    N     0.03537   0.14222   0.91429   0.00000  Uiso   1.00
C47    C     0.78969   0.30647   0.27962   0.00000  Uiso   1.00
C48    C     0.75428   0.34335   0.20751   0.00000  Uiso   1.00
C49    C     0.77301   0.42295   0.19525   0.00000  Uiso   1.00
C50    C     0.73410   0.44490   0.12549   0.00000  Uiso   1.00
C51    C     0.68756   0.51066   0.02198   0.00000  Uiso   1.00
C52    C     0.71790   0.27133   0.31697   0.00000  Uiso   1.00
C53    C     0.70604   0.29037   0.39674   0.00000  Uiso   1.00
C54    C     0.63651   0.25167   0.41912   0.00000  Uiso   1.00
C55    C     0.53351   0.20557   0.48557   0.00000  Uiso   1.00
C56    C     0.82670   0.23443   0.24442   0.00000  Uiso   1.00
C57    C     0.90632   0.22243   0.26320   0.00000  Uiso   1.00
C58    C     0.92839   0.15265   0.22450   0.00000  Uiso   1.00
C59    C     0.99433   0.04926   0.17829   0.00000  Uiso   1.00
C60    C     0.68730   0.20388   0.17753   0.00000  Uiso   1.00
C61    C     0.69867   0.28763   0.15207   0.00000  Uiso   1.00
C62    C     0.65972   0.30946   0.08230   0.00000  Uiso   1.00
C63    C     0.67839   0.38908   0.06993   0.00000  Uiso   1.00
C64    C     0.66229   0.21561   0.26153   0.00000  Uiso   1.00
C65    C     0.59276   0.17687   0.28380   0.00000  Uiso   1.00
C66    C     0.58079   0.19585   0.36358   0.00000  Uiso   1.00
C67    C     0.77109   0.17871   0.18896   0.00000  Uiso   1.00
C68    C     0.79304   0.10893   0.15024   0.00000  Uiso   1.00
C69    C     0.87268   0.09683   0.16895   0.00000  Uiso   1.00
H70    H     0.83298   0.34984   0.32279   0.00000  Uiso   1.00
H71    H     0.81604   0.46606   0.23818   0.00000  Uiso   1.00
H72    H     0.74909   0.33348   0.43964   0.00000  Uiso   1.00
H73    H     0.94934   0.26556   0.30611   0.00000  Uiso   1.00
H74    H     0.77272   0.57034   0.11993   0.00000  Uiso   1.00
H75    H     0.63156   0.29078   0.54473   0.00000  Uiso   1.00
H76    H     0.05383   0.14754   0.26316   0.00000  Uiso   1.00
H77    H     0.64400   0.16050   0.13436   0.00000  Uiso   1.00
H78    H     0.61669   0.26632   0.03940   0.00000  Uiso   1.00
H79    H     0.54974   0.13375   0.24087   0.00000  Uiso   1.00
H80    H     0.74999   0.06583   0.10733   0.00000  Uiso   1.00
H81    H     0.61091   0.40823   0.95860   0.00000  Uiso   1.00
H82    H     0.46975   0.12867   0.38341   0.00000  Uiso   1.00
H83    H     0.89202   0.98543   0.10182   0.00000  Uiso   1.00
O84    O     0.67724   0.56232   0.98021   0.00000  Uiso   1.00
O85    O     0.49206   0.19554   0.53754   0.00000  Uiso   1.00
O86    O     0.04606   0.00762   0.16811   0.00000  Uiso   1.00
N87    N     0.73840   0.51766   0.09499   0.00000  Uiso   1.00
N88    N     0.60641   0.25630   0.49215   0.00000  Uiso   1.00
N89    N     0.00120   0.12237   0.22891   0.00000  Uiso   1.00
N90    N     0.65133   0.43043   0.00817   0.00000  Uiso   1.00
N91    N     0.51935   0.16907   0.40534   0.00000  Uiso   1.00
N92    N     0.91413   0.03514   0.14210   0.00000  Uiso   1.00
C93    C     0.27950   0.78965   0.30651   0.00000  Uiso   1.00
C94    C     0.20753   0.75423   0.34344   0.00000  Uiso   1.00
C95    C     0.19529   0.77299   0.42312   0.00000  Uiso   1.00
C96    C     0.12566   0.73406   0.44509   0.00000  Uiso   1.00
C97    C     0.02235   0.68750   0.51092   0.00000  Uiso   1.00
C98    C     0.31679   0.71779   0.27132   0.00000  Uiso   1.00
C99    C     0.39641   0.70591   0.29037   0.00000  Uiso   1.00
C100   C     0.41875   0.63630   0.25162   0.00000  Uiso   1.00
C101   C     0.48507   0.53320   0.20545   0.00000  Uiso   1.00
C102   C     0.24436   0.82670   0.23441   0.00000  Uiso   1.00
C103   C     0.26311   0.90638   0.22241   0.00000  Uiso   1.00
C104   C     0.22449   0.92847   0.15258   0.00000  Uiso   1.00
C105   C     0.17836   0.99446   0.04910   0.00000  Uiso   1.00
C106   C     0.17760   0.68717   0.20383   0.00000  Uiso   1.00
C107   C     0.15218   0.69857   0.28766   0.00000  Uiso   1.00
C108   C     0.08255   0.65961   0.30952   0.00000  Uiso   1.00
C109   C     0.07021   0.67830   0.38922   0.00000  Uiso   1.00
C110   C     0.26144   0.66213   0.21555   0.00000  Uiso   1.00
C111   C     0.28367   0.59253   0.17677   0.00000  Uiso   1.00
C112   C     0.36330   0.58054   0.19575   0.00000  Uiso   1.00
C113   C     0.18901   0.77104   0.17864   0.00000  Uiso   1.00
C114   C     0.15036   0.79300   0.10881   0.00000  Uiso   1.00
C115   C     0.16904   0.87271   0.09671   0.00000  Uiso   1.00
H116   H     0.32260   0.83298   0.34993   0.00000  Uiso   1.00
H117   H     0.23815   0.81606   0.46627   0.00000  Uiso   1.00
H118   H     0.43923   0.74900   0.33353   0.00000  Uiso   1.00
H119   H     0.30595   0.94944   0.26558   0.00000  Uiso   1.00
H120   H     0.12012   0.77273   0.57065   0.00000  Uiso   1.00
H121   H     0.54413   0.63133   0.29075   0.00000  Uiso   1.00
H122   H     0.26307   0.05401   0.14748   0.00000  Uiso   1.00
H123   H     0.13451   0.64383   0.16041   0.00000  Uiso   1.00
H124   H     0.03972   0.61653   0.26635   0.00000  Uiso   1.00
H125   H     0.24082   0.54947   0.13361   0.00000  Uiso   1.00
H126   H     0.10753   0.74991   0.06567   0.00000  Uiso   1.00
H127   H     0.95908   0.61078   0.40839   0.00000  Uiso   1.00
H128   H     0.38309   0.46939   0.12848   0.00000  Uiso   1.00
H129   H     0.10203   0.89207   0.98522   0.00000  Uiso   1.00
O130   O     0.98066   0.67719   0.56264   0.00000  Uiso   1.00
O131   O     0.53695   0.49170   0.19540   0.00000  Uiso   1.00
O132   O     0.16820   0.04624   0.00744   0.00000  Uiso   1.00
N133   N     0.09522   0.73838   0.51792   0.00000  Uiso   1.00
N134   N     0.49164   0.60617   0.25624   0.00000  Uiso   1.00
N135   N     0.22889   0.00134   0.12228   0.00000  Uiso   1.00
N136   N     0.00856   0.65123   0.43061   0.00000  Uiso   1.00
N137   N     0.40498   0.51903   0.16893   0.00000  Uiso   1.00
N138   N     0.14223   0.91419   0.03497   0.00000  Uiso   1.00
C139   C     0.69358   0.72045   0.21039   0.00000  Uiso   1.00
C140   C     0.65673   0.79249   0.24586   0.00000  Uiso   1.00
C141   C     0.57719   0.80476   0.22710   0.00000  Uiso   1.00
C142   C     0.55526   0.87446   0.26608   0.00000  Uiso   1.00
C143   C     0.48956   0.97788   0.31270   0.00000  Uiso   1.00
C144   C     0.72871   0.68313   0.28231   0.00000  Uiso   1.00
C145   C     0.70970   0.60344   0.29419   0.00000  Uiso   1.00
C146   C     0.74837   0.58109   0.36386   0.00000  Uiso   1.00
C147   C     0.79447   0.51471   0.46705   0.00000  Uiso   1.00
C148   C     0.76555   0.75560   0.17330   0.00000  Uiso   1.00
C149   C     0.77753   0.73683   0.09354   0.00000  Uiso   1.00
C150   C     0.84723   0.77547   0.07142   0.00000  Uiso   1.00
C151   C     0.95052   0.82161   0.00536   0.00000  Uiso   1.00
C152   C     0.79608   0.82244   0.31296   0.00000  Uiso   1.00
C153   C     0.71240   0.84789   0.30157   0.00000  Uiso   1.00
C154   C     0.69059   0.91760   0.34059   0.00000  Uiso   1.00
C155   C     0.61104   0.92996   0.32189   0.00000  Uiso   1.00
C156   C     0.78438   0.73853   0.33802   0.00000  Uiso   1.00
C157   C     0.82310   0.71629   0.40768   0.00000  Uiso   1.00
C158   C     0.80415   0.63659   0.41967   0.00000  Uiso   1.00
C159   C     0.82122   0.81100   0.22902   0.00000  Uiso   1.00
C160   C     0.89092   0.84968   0.20702   0.00000  Uiso   1.00
C161   C     0.90300   0.83097   0.12724   0.00000  Uiso   1.00
H162   H     0.65024   0.67731   0.16702   0.00000  Uiso   1.00
H163   H     0.53413   0.76186   0.18399   0.00000  Uiso   1.00
H164   H     0.66662   0.56058   0.25107   0.00000  Uiso   1.00
H165   H     0.73443   0.69395   0.05044   0.00000  Uiso   1.00
H166   H     0.42993   0.88002   0.22739   0.00000  Uiso   1.00
H167   H     0.70932   0.45560   0.36882   0.00000  Uiso   1.00
H168   H     0.85232   0.73683   0.94576   0.00000  Uiso   1.00
H169   H     0.83943   0.86557   0.35634   0.00000  Uiso   1.00
H170   H     0.73369   0.96046   0.38370   0.00000  Uiso   1.00
H171   H     0.86618   0.75917   0.45078   0.00000  Uiso   1.00
H172   H     0.93399   0.89254   0.25015   0.00000  Uiso   1.00
H173   H     0.59190   0.04121   0.38949   0.00000  Uiso   1.00
H174   H     0.87129   0.61678   0.53091   0.00000  Uiso   1.00
H175   H     0.01429   0.89802   0.10786   0.00000  Uiso   1.00
O176   O     0.43794   0.01962   0.32304   0.00000  Uiso   1.00
O177   O     0.80450   0.46280   0.50858   0.00000  Uiso   1.00
O178   O     0.99210   0.83177   0.95353   0.00000  Uiso   1.00
N179   N     0.48257   0.90494   0.26177   0.00000  Uiso   1.00
N180   N     0.74377   0.50814   0.39401   0.00000  Uiso   1.00
N181   N     0.87747   0.77105   0.99849   0.00000  Uiso   1.00
N182   N     0.56972   0.99168   0.34899   0.00000  Uiso   1.00
N183   N     0.83093   0.59487   0.48123   0.00000  Uiso   1.00
N184   N     0.96463   0.85778   0.08571   0.00000  Uiso   1.00
C185   C     0.21031   0.69353   0.72038   0.00000  Uiso   1.00
C186   C     0.24572   0.65665   0.79249   0.00000  Uiso   1.00
C187   C     0.22699   0.57705   0.80475   0.00000  Uiso   1.00
C188   C     0.26590   0.55510   0.87451   0.00000  Uiso   1.00
C189   C     0.31244   0.48935   0.97802   0.00000  Uiso   1.00
C190   C     0.28210   0.72867   0.68303   0.00000  Uiso   1.00
C191   C     0.29396   0.70963   0.60326   0.00000  Uiso   1.00
C192   C     0.36349   0.74833   0.58088   0.00000  Uiso   1.00
C193   C     0.46649   0.79443   0.51443   0.00000  Uiso   1.00
C194   C     0.17330   0.76557   0.75558   0.00000  Uiso   1.00
C195   C     0.09368   0.77757   0.73681   0.00000  Uiso   1.00
C196   C     0.07161   0.84735   0.77550   0.00000  Uiso   1.00
C197   C     0.00567   0.95074   0.82171   0.00000  Uiso   1.00
C198   C     0.31270   0.79612   0.82247   0.00000  Uiso   1.00
C199   C     0.30133   0.71237   0.84793   0.00000  Uiso   1.00
C200   C     0.34028   0.69054   0.91770   0.00000  Uiso   1.00
C201   C     0.32161   0.61092   0.93007   0.00000  Uiso   1.00
C202   C     0.33772   0.78439   0.73847   0.00000  Uiso   1.00
C203   C     0.40724   0.82313   0.71621   0.00000  Uiso   1.00
C204   C     0.41921   0.80415   0.63642   0.00000  Uiso   1.00
C205   C     0.22891   0.82129   0.81104   0.00000  Uiso   1.00
C206   C     0.20696   0.89107   0.84976   0.00000  Uiso   1.00
C207   C     0.12732   0.90317   0.83105   0.00000  Uiso   1.00
H208   H     0.16702   0.65016   0.67721   0.00000  Uiso   1.00
H209   H     0.18396   0.53394   0.76182   0.00000  Uiso   1.00
H210   H     0.25091   0.66652   0.56036   0.00000  Uiso   1.00
H211   H     0.05066   0.73444   0.69389   0.00000  Uiso   1.00
H212   H     0.22728   0.42966   0.88007   0.00000  Uiso   1.00
H213   H     0.36844   0.70922   0.45527   0.00000  Uiso   1.00
H214   H     0.94617   0.85246   0.73685   0.00000  Uiso   1.00
H215   H     0.35600   0.83950   0.86564   0.00000  Uiso   1.00
H216   H     0.38331   0.73368   0.96060   0.00000  Uiso   1.00
H217   H     0.45027   0.86625   0.75913   0.00000  Uiso   1.00
H218   H     0.25001   0.93417   0.89267   0.00000  Uiso   1.00
H219   H     0.38909   0.59177   0.04140   0.00000  Uiso   1.00
H220   H     0.53025   0.87133   0.61660   0.00000  Uiso   1.00
H221   H     0.10798   0.01457   0.89818   0.00000  Uiso   1.00
O222   O     0.32276   0.43768   0.01979   0.00000  Uiso   1.00
O223   O     0.50794   0.80446   0.46246   0.00000  Uiso   1.00
O224   O     0.95394   0.99238   0.83189   0.00000  Uiso   1.00
N225   N     0.26160   0.48234   0.90501   0.00000  Uiso   1.00
N226   N     0.39359   0.74370   0.50785   0.00000  Uiso   1.00
N227   N     0.99880   0.87763   0.77109   0.00000  Uiso   1.00
N228   N     0.34867   0.56957   0.99183   0.00000  Uiso   1.00
N229   N     0.48065   0.83093   0.59466   0.00000  Uiso   1.00
N230   N     0.08587   0.96486   0.85790   0.00000  Uiso   1.00
C231   C     0.72050   0.21035   0.69349   0.00000  Uiso   1.00
C232   C     0.79247   0.24577   0.65656   0.00000  Uiso   1.00
C233   C     0.80471   0.22701   0.57688   0.00000  Uiso   1.00
C234   C     0.87434   0.26594   0.55491   0.00000  Uiso   1.00
C235   C     0.97765   0.31250   0.48908   0.00000  Uiso   1.00
C236   C     0.68321   0.28221   0.72868   0.00000  Uiso   1.00
C237   C     0.60359   0.29409   0.70963   0.00000  Uiso   1.00
C238   C     0.58125   0.36370   0.74838   0.00000  Uiso   1.00
C239   C     0.51493   0.46680   0.79455   0.00000  Uiso   1.00
C240   C     0.75564   0.17330   0.76559   0.00000  Uiso   1.00
C241   C     0.73689   0.09362   0.77759   0.00000  Uiso   1.00
C242   C     0.77552   0.07153   0.84742   0.00000  Uiso   1.00
C243   C     0.82164   0.00554   0.95090   0.00000  Uiso   1.00
C244   C     0.82240   0.31283   0.79617   0.00000  Uiso   1.00
C245   C     0.84782   0.30143   0.71234   0.00000  Uiso   1.00
C246   C     0.91745   0.34039   0.69048   0.00000  Uiso   1.00
C247   C     0.92979   0.32170   0.61078   0.00000  Uiso   1.00
C248   C     0.73856   0.33788   0.78445   0.00000  Uiso   1.00
C249   C     0.71633   0.40747   0.82323   0.00000  Uiso   1.00
C250   C     0.63670   0.41946   0.80425   0.00000  Uiso   1.00
C251   C     0.81099   0.22896   0.82136   0.00000  Uiso   1.00
C252   C     0.84964   0.20700   0.89119   0.00000  Uiso   1.00
C253   C     0.83096   0.12729   0.90329   0.00000  Uiso   1.00
H254   H     0.67740   0.16702   0.65007   0.00000  Uiso   1.00
H255   H     0.76185   0.18394   0.53373   0.00000  Uiso   1.00
H256   H     0.56077   0.25100   0.66648   0.00000  Uiso   1.00
H257   H     0.69405   0.05056   0.73442   0.00000  Uiso   1.00
H258   H     0.87988   0.22727   0.42935   0.00000  Uiso   1.00
H259   H     0.45587   0.36867   0.70925   0.00000  Uiso   1.00
H260   H     0.73693   0.94599   0.85253   0.00000  Uiso   1.00
H261   H     0.86549   0.35617   0.83959   0.00000  Uiso   1.00
H262   H     0.96028   0.38347   0.73366   0.00000  Uiso   1.00
H263   H     0.75918   0.45053   0.86639   0.00000  Uiso   1.00
H264   H     0.89247   0.25009   0.93433   0.00000  Uiso   1.00
H265   H     0.04093   0.38922   0.59161   0.00000  Uiso   1.00
H266   H     0.61691   0.53061   0.87152   0.00000  Uiso   1.00
H267   H     0.89797   0.10793   0.01478   0.00000  Uiso   1.00
O268   O     0.01934   0.32281   0.43736   0.00000  Uiso   1.00
O269   O     0.46305   0.50831   0.80460   0.00000  Uiso   1.00
O270   O     0.83180   0.95376   0.99256   0.00000  Uiso   1.00
N271   N     0.90478   0.26162   0.48208   0.00000  Uiso   1.00
N272   N     0.50836   0.39383   0.74376   0.00000  Uiso   1.00
N273   N     0.77111   0.99867   0.87772   0.00000  Uiso   1.00
N274   N     0.99144   0.34877   0.56939   0.00000  Uiso   1.00
N275   N     0.59502   0.48097   0.83107   0.00000  Uiso   1.00
N276   N     0.85777   0.08581   0.96503   0.00000  Uiso   1.00
