data_job_02319
_audit_creation_date              2018-12-19
_audit_creation_method            'Materials Studio'
_symmetry_space_group_name_H-M    'P1'
_symmetry_Int_Tables_number       1
_symmetry_cell_setting            triclinic
loop_
_symmetry_equiv_pos_as_xyz
  x,y,z
_cell_length_a                    9.7656
_cell_length_b                    9.8124
_cell_length_c                    19.3389
_cell_angle_alpha                 91.9429
_cell_angle_beta                  85.0798
_cell_angle_gamma                 101.1465
loop_
_atom_site_label
_atom_site_type_symbol
_atom_site_fract_x
_atom_site_fract_y
_atom_site_fract_z
_atom_site_U_iso_or_equiv
_atom_site_adp_type
_atom_site_occupancy
C1     C     0.80452   0.73072   0.20528   0.00000  Uiso   1.00
C2     C     0.68813   0.63955   0.16769   0.00000  Uiso   1.00
C3     C     0.54873   0.65296   0.17259   0.00000  Uiso   1.00
C4     C     0.45852   0.55930   0.13411   0.00000  Uiso   1.00
C5     C     0.27052   0.43340   0.08213   0.00000  Uiso   1.00
C6     C     0.86836   0.63219   0.24638   0.00000  Uiso   1.00
C7     C     0.88051   0.63944   0.31745   0.00000  Uiso   1.00
C8     C     0.94204   0.53960   0.34521   0.00000  Uiso   1.00
C9     C     0.03395   0.40234   0.41541   0.00000  Uiso   1.00
C10    C     0.91717   0.79008   0.14896   0.00000  Uiso   1.00
C11    C     0.97039   0.93008   0.13813   0.00000  Uiso   1.00
C12    C     0.07305   0.96316   0.08388   0.00000  Uiso   1.00
C13    C     0.24075   0.07105   0.00281   0.00000  Uiso   1.00
C14    C     0.89221   0.54053   0.12822   0.00000  Uiso   1.00
C15    C     0.73576   0.53624   0.12583   0.00000  Uiso   1.00
C16    C     0.64574   0.44254   0.08733   0.00000  Uiso   1.00
C17    C     0.50623   0.45581   0.09217   0.00000  Uiso   1.00
C18    C     0.91598   0.52889   0.20453   0.00000  Uiso   1.00
C19    C     0.97752   0.42902   0.23219   0.00000  Uiso   1.00
C20    C     0.98975   0.43610   0.30328   0.00000  Uiso   1.00
C21    C     0.96480   0.68677   0.10710   0.00000  Uiso   1.00
C22    C     0.06740   0.71965   0.05287   0.00000  Uiso   1.00
C23    C     0.12076   0.85967   0.04195   0.00000  Uiso   1.00
H24    H     0.76745   0.81114   0.23787   0.00000  Uiso   1.00
H25    H     0.51191   0.73291   0.20499   0.00000  Uiso   1.00
H26    H     0.84365   0.71940   0.34983   0.00000  Uiso   1.00
H27    H     0.93351   0.00999   0.17053   0.00000  Uiso   1.00
H28    H     0.24959   0.60059   0.15010   0.00000  Uiso   1.00
H29    H     0.94913   0.57213   0.45549   0.00000  Uiso   1.00
H30    H     0.13863   0.18490   0.07741   0.00000  Uiso   1.00
H31    H     0.92929   0.46010   0.09563   0.00000  Uiso   1.00
H32    H     0.68262   0.36260   0.05494   0.00000  Uiso   1.00
H33    H     0.01437   0.34909   0.19978   0.00000  Uiso   1.00
H34    H     0.10423   0.63968   0.02048   0.00000  Uiso   1.00
H35    H     0.38814   0.30003   0.02832   0.00000  Uiso   1.00
H36    H     0.08770   0.27158   0.33371   0.00000  Uiso   1.00
H37    H     0.27719   0.88434   0.95563   0.00000  Uiso   1.00
O38    O     0.15367   0.39248   0.06503   0.00000  Uiso   1.00
O39    O     0.07147   0.35517   0.46569   0.00000  Uiso   1.00
O40    O     0.32008   0.15910   0.96966   0.00000  Uiso   1.00
N41    N     0.31605   0.54325   0.12701   0.00000  Uiso   1.00
N42    N     0.97007   0.51663   0.41254   0.00000  Uiso   1.00
N43    N     0.14725   0.08952   0.05908   0.00000  Uiso   1.00
N44    N     0.39061   0.38152   0.06148   0.00000  Uiso   1.00
N45    N     0.04462   0.35490   0.34701   0.00000  Uiso   1.00
N46    N     0.22181   0.92779   0.99355   0.00000  Uiso   1.00
C47    C     0.19548   0.26928   0.79472   0.00000  Uiso   1.00
C48    C     0.31187   0.36045   0.83231   0.00000  Uiso   1.00
C49    C     0.45127   0.34704   0.82741   0.00000  Uiso   1.00
C50    C     0.54148   0.44070   0.86589   0.00000  Uiso   1.00
C51    C     0.72948   0.56660   0.91787   0.00000  Uiso   1.00
C52    C     0.13164   0.36781   0.75362   0.00000  Uiso   1.00
C53    C     0.11949   0.36056   0.68255   0.00000  Uiso   1.00
C54    C     0.05796   0.46040   0.65479   0.00000  Uiso   1.00
C55    C     0.96605   0.59766   0.58459   0.00000  Uiso   1.00
C56    C     0.08283   0.20992   0.85104   0.00000  Uiso   1.00
C57    C     0.02961   0.06992   0.86187   0.00000  Uiso   1.00
C58    C     0.92695   0.03684   0.91612   0.00000  Uiso   1.00
C59    C     0.75925   0.92895   0.99719   0.00000  Uiso   1.00
C60    C     0.10779   0.45947   0.87178   0.00000  Uiso   1.00
C61    C     0.26424   0.46376   0.87417   0.00000  Uiso   1.00
C62    C     0.35426   0.55746   0.91267   0.00000  Uiso   1.00
C63    C     0.49377   0.54419   0.90783   0.00000  Uiso   1.00
C64    C     0.08402   0.47111   0.79547   0.00000  Uiso   1.00
C65    C     0.02248   0.57098   0.76781   0.00000  Uiso   1.00
C66    C     0.01025   0.56390   0.69672   0.00000  Uiso   1.00
C67    C     0.03520   0.31323   0.89290   0.00000  Uiso   1.00
C68    C     0.93260   0.28035   0.94713   0.00000  Uiso   1.00
C69    C     0.87924   0.14033   0.95805   0.00000  Uiso   1.00
H70    H     0.23255   0.18886   0.76213   0.00000  Uiso   1.00
H71    H     0.48809   0.26709   0.79501   0.00000  Uiso   1.00
H72    H     0.15635   0.28060   0.65017   0.00000  Uiso   1.00
H73    H     0.06649   0.99001   0.82947   0.00000  Uiso   1.00
H74    H     0.75041   0.39941   0.84990   0.00000  Uiso   1.00
H75    H     0.05087   0.42787   0.54451   0.00000  Uiso   1.00
H76    H     0.86137   0.81510   0.92259   0.00000  Uiso   1.00
H77    H     0.07071   0.53990   0.90437   0.00000  Uiso   1.00
H78    H     0.31738   0.63740   0.94506   0.00000  Uiso   1.00
H79    H     0.98563   0.65091   0.80022   0.00000  Uiso   1.00
H80    H     0.89577   0.36032   0.97952   0.00000  Uiso   1.00
H81    H     0.61186   0.69997   0.97168   0.00000  Uiso   1.00
H82    H     0.91230   0.72842   0.66629   0.00000  Uiso   1.00
H83    H     0.72281   0.11566   0.04437   0.00000  Uiso   1.00
O84    O     0.84633   0.60752   0.93497   0.00000  Uiso   1.00
O85    O     0.92853   0.64483   0.53431   0.00000  Uiso   1.00
O86    O     0.67992   0.84090   0.03034   0.00000  Uiso   1.00
N87    N     0.68395   0.45675   0.87299   0.00000  Uiso   1.00
N88    N     0.02993   0.48337   0.58746   0.00000  Uiso   1.00
N89    N     0.85275   0.91048   0.94092   0.00000  Uiso   1.00
N90    N     0.60939   0.61848   0.93852   0.00000  Uiso   1.00
N91    N     0.95538   0.64510   0.65299   0.00000  Uiso   1.00
N92    N     0.77819   0.07221   0.00645   0.00000  Uiso   1.00
