data_job_00680
_audit_creation_date              2018-12-19
_audit_creation_method            'Materials Studio'
_symmetry_space_group_name_H-M    'P1'
_symmetry_Int_Tables_number       1
_symmetry_cell_setting            triclinic
loop_
_symmetry_equiv_pos_as_xyz
  x,y,z
_cell_length_a                    22.2039
_cell_length_b                    10.1120
_cell_length_c                    18.5037
_cell_angle_alpha                 90.0000
_cell_angle_beta                  34.3324
_cell_angle_gamma                 90.0000
loop_
_atom_site_label
_atom_site_type_symbol
_atom_site_fract_x
_atom_site_fract_y
_atom_site_fract_z
_atom_site_U_iso_or_equiv
_atom_site_adp_type
_atom_site_occupancy
C1     C     0.70990   0.25054   0.62124   0.00000  Uiso   1.00
C2     C     0.81746   0.29829   0.54314   0.00000  Uiso   1.00
C3     C     0.88116   0.39452   0.44839   0.00000  Uiso   1.00
C4     C     0.97674   0.42419   0.38808   0.00000  Uiso   1.00
C5     C     0.13912   0.50807   0.26171   0.00000  Uiso   1.00
C6     C     0.72052   0.10132   0.60119   0.00000  Uiso   1.00
C7     C     0.70270   0.03196   0.55526   0.00000  Uiso   1.00
C8     C     0.71665   0.89582   0.54383   0.00000  Uiso   1.00
C9     C     0.72845   0.67390   0.50766   0.00000  Uiso   1.00
C10    C     0.63040   0.27082   0.76144   0.00000  Uiso   1.00
C11    C     0.53680   0.34395   0.85026   0.00000  Uiso   1.00
C12    C     0.47487   0.35049   0.97377   0.00000  Uiso   1.00
C13    C     0.34676   0.39174   0.18641   0.00000  Uiso   1.00
C14    C     0.76634   0.13209   0.68263   0.00000  Uiso   1.00
C15    C     0.84812   0.23394   0.57649   0.00000  Uiso   1.00
C16    C     0.94362   0.26347   0.51631   0.00000  Uiso   1.00
C17    C     0.00746   0.35974   0.42149   0.00000  Uiso   1.00
C18    C     0.75118   0.03699   0.63453   0.00000  Uiso   1.00
C19    C     0.76515   0.90091   0.62318   0.00000  Uiso   1.00
C20    C     0.74737   0.83136   0.57723   0.00000  Uiso   1.00
C21    C     0.66106   0.20649   0.79479   0.00000  Uiso   1.00
C22    C     0.59926   0.21290   0.91818   0.00000  Uiso   1.00
C23    C     0.50559   0.28603   0.00717   0.00000  Uiso   1.00
H24    H     0.68602   0.30062   0.59527   0.00000  Uiso   1.00
H25    H     0.85741   0.44428   0.42260   0.00000  Uiso   1.00
H26    H     0.67896   0.08177   0.52947   0.00000  Uiso   1.00
H27    H     0.51310   0.39372   0.82442   0.00000  Uiso   1.00
H28    H     0.06097   0.57515   0.24584   0.00000  Uiso   1.00
H29    H     0.68466   0.81078   0.47121   0.00000  Uiso   1.00
H30    H     0.33490   0.46858   0.09319   0.00000  Uiso   1.00
H31    H     0.79022   0.08200   0.70859   0.00000  Uiso   1.00
H32    H     0.96733   0.21367   0.54214   0.00000  Uiso   1.00
H33    H     0.78887   0.85116   0.64900   0.00000  Uiso   1.00
H34    H     0.62301   0.16310   0.94395   0.00000  Uiso   1.00
H35    H     0.15018   0.38797   0.34285   0.00000  Uiso   1.00
H36    H     0.77387   0.62360   0.56823   0.00000  Uiso   1.00
H37    H     0.42411   0.28140   0.19020   0.00000  Uiso   1.00
O38    O     0.22022   0.57209   0.18278   0.00000  Uiso   1.00
O39    O     0.72650   0.56927   0.47848   0.00000  Uiso   1.00
O40    O     0.26763   0.43229   0.29449   0.00000  Uiso   1.00
N41    N     0.05765   0.51305   0.29153   0.00000  Uiso   1.00
N42    N     0.70584   0.79841   0.50222   0.00000  Uiso   1.00
N43    N     0.37883   0.41336   0.08373   0.00000  Uiso   1.00
N44    N     0.10565   0.41233   0.34374   0.00000  Uiso   1.00
N45    N     0.75384   0.69769   0.55443   0.00000  Uiso   1.00
N46    N     0.42683   0.31265   0.13593   0.00000  Uiso   1.00
C47    C     0.29010   0.75054   0.87876   0.00000  Uiso   1.00
C48    C     0.18254   0.79829   0.95686   0.00000  Uiso   1.00
C49    C     0.11884   0.89452   0.05161   0.00000  Uiso   1.00
C50    C     0.02326   0.92419   0.11192   0.00000  Uiso   1.00
C51    C     0.86088   0.00807   0.23829   0.00000  Uiso   1.00
C52    C     0.27948   0.60132   0.89881   0.00000  Uiso   1.00
C53    C     0.29730   0.53196   0.94474   0.00000  Uiso   1.00
C54    C     0.28335   0.39582   0.95617   0.00000  Uiso   1.00
C55    C     0.27155   0.17390   0.99234   0.00000  Uiso   1.00
C56    C     0.36960   0.77082   0.73856   0.00000  Uiso   1.00
C57    C     0.46320   0.84395   0.64974   0.00000  Uiso   1.00
C58    C     0.52513   0.85049   0.52623   0.00000  Uiso   1.00
C59    C     0.65324   0.89174   0.31359   0.00000  Uiso   1.00
C60    C     0.23366   0.63209   0.81737   0.00000  Uiso   1.00
C61    C     0.15188   0.73394   0.92351   0.00000  Uiso   1.00
C62    C     0.05638   0.76347   0.98369   0.00000  Uiso   1.00
C63    C     0.99254   0.85974   0.07851   0.00000  Uiso   1.00
C64    C     0.24882   0.53699   0.86547   0.00000  Uiso   1.00
C65    C     0.23485   0.40091   0.87682   0.00000  Uiso   1.00
C66    C     0.25263   0.33136   0.92277   0.00000  Uiso   1.00
C67    C     0.33894   0.70649   0.70521   0.00000  Uiso   1.00
C68    C     0.40074   0.71290   0.58182   0.00000  Uiso   1.00
C69    C     0.49441   0.78603   0.49283   0.00000  Uiso   1.00
H70    H     0.31398   0.80062   0.90473   0.00000  Uiso   1.00
H71    H     0.14259   0.94428   0.07740   0.00000  Uiso   1.00
H72    H     0.32104   0.58177   0.97053   0.00000  Uiso   1.00
H73    H     0.48690   0.89372   0.67558   0.00000  Uiso   1.00
H74    H     0.93903   0.07515   0.25416   0.00000  Uiso   1.00
H75    H     0.31534   0.31078   0.02879   0.00000  Uiso   1.00
H76    H     0.66510   0.96858   0.40681   0.00000  Uiso   1.00
H77    H     0.20978   0.58200   0.79141   0.00000  Uiso   1.00
H78    H     0.03267   0.71367   0.95786   0.00000  Uiso   1.00
H79    H     0.21113   0.35116   0.85100   0.00000  Uiso   1.00
H80    H     0.37699   0.66310   0.55605   0.00000  Uiso   1.00
H81    H     0.84982   0.88797   0.15715   0.00000  Uiso   1.00
H82    H     0.22613   0.12360   0.93177   0.00000  Uiso   1.00
H83    H     0.57589   0.78140   0.30980   0.00000  Uiso   1.00
O84    O     0.77978   0.07209   0.31722   0.00000  Uiso   1.00
O85    O     0.27350   0.06927   0.02152   0.00000  Uiso   1.00
O86    O     0.73237   0.93229   0.20551   0.00000  Uiso   1.00
N87    N     0.94235   0.01305   0.20847   0.00000  Uiso   1.00
N88    N     0.29416   0.29841   0.99778   0.00000  Uiso   1.00
N89    N     0.62117   0.91336   0.41627   0.00000  Uiso   1.00
N90    N     0.89435   0.91233   0.15626   0.00000  Uiso   1.00
N91    N     0.24616   0.19769   0.94557   0.00000  Uiso   1.00
N92    N     0.57317   0.81265   0.36407   0.00000  Uiso   1.00
C93    C     0.29010   0.74946   0.37876   0.00000  Uiso   1.00
C94    C     0.18254   0.70171   0.45686   0.00000  Uiso   1.00
C95    C     0.11884   0.60548   0.55161   0.00000  Uiso   1.00
C96    C     0.02326   0.57581   0.61192   0.00000  Uiso   1.00
C97    C     0.86088   0.49193   0.73829   0.00000  Uiso   1.00
C98    C     0.27948   0.89868   0.39881   0.00000  Uiso   1.00
C99    C     0.29730   0.96804   0.44474   0.00000  Uiso   1.00
C100   C     0.28335   0.10418   0.45617   0.00000  Uiso   1.00
C101   C     0.27155   0.32610   0.49234   0.00000  Uiso   1.00
C102   C     0.36960   0.72918   0.23856   0.00000  Uiso   1.00
C103   C     0.46320   0.65605   0.14974   0.00000  Uiso   1.00
C104   C     0.52513   0.64951   0.02623   0.00000  Uiso   1.00
C105   C     0.65324   0.60826   0.81359   0.00000  Uiso   1.00
C106   C     0.23366   0.86791   0.31737   0.00000  Uiso   1.00
C107   C     0.15188   0.76606   0.42351   0.00000  Uiso   1.00
C108   C     0.05638   0.73653   0.48369   0.00000  Uiso   1.00
C109   C     0.99254   0.64026   0.57851   0.00000  Uiso   1.00
C110   C     0.24882   0.96301   0.36547   0.00000  Uiso   1.00
C111   C     0.23485   0.09909   0.37682   0.00000  Uiso   1.00
C112   C     0.25263   0.16864   0.42277   0.00000  Uiso   1.00
C113   C     0.33894   0.79351   0.20521   0.00000  Uiso   1.00
C114   C     0.40074   0.78710   0.08182   0.00000  Uiso   1.00
C115   C     0.49441   0.71397   0.99283   0.00000  Uiso   1.00
H116   H     0.31398   0.69938   0.40473   0.00000  Uiso   1.00
H117   H     0.14259   0.55572   0.57740   0.00000  Uiso   1.00
H118   H     0.32104   0.91823   0.47053   0.00000  Uiso   1.00
H119   H     0.48690   0.60628   0.17558   0.00000  Uiso   1.00
H120   H     0.93903   0.42485   0.75416   0.00000  Uiso   1.00
H121   H     0.31534   0.18922   0.52879   0.00000  Uiso   1.00
H122   H     0.66510   0.53142   0.90681   0.00000  Uiso   1.00
H123   H     0.20978   0.91800   0.29141   0.00000  Uiso   1.00
H124   H     0.03267   0.78633   0.45786   0.00000  Uiso   1.00
H125   H     0.21113   0.14884   0.35100   0.00000  Uiso   1.00
H126   H     0.37699   0.83690   0.05605   0.00000  Uiso   1.00
H127   H     0.84982   0.61203   0.65715   0.00000  Uiso   1.00
H128   H     0.22613   0.37640   0.43177   0.00000  Uiso   1.00
H129   H     0.57589   0.71860   0.80980   0.00000  Uiso   1.00
O130   O     0.77978   0.42791   0.81722   0.00000  Uiso   1.00
O131   O     0.27350   0.43073   0.52152   0.00000  Uiso   1.00
O132   O     0.73237   0.56771   0.70551   0.00000  Uiso   1.00
N133   N     0.94235   0.48695   0.70847   0.00000  Uiso   1.00
N134   N     0.29416   0.20159   0.49778   0.00000  Uiso   1.00
N135   N     0.62117   0.58664   0.91627   0.00000  Uiso   1.00
N136   N     0.89435   0.58767   0.65626   0.00000  Uiso   1.00
N137   N     0.24616   0.30231   0.44557   0.00000  Uiso   1.00
N138   N     0.57317   0.68735   0.86407   0.00000  Uiso   1.00
C139   C     0.70990   0.24946   0.12124   0.00000  Uiso   1.00
C140   C     0.81746   0.20171   0.04314   0.00000  Uiso   1.00
C141   C     0.88116   0.10548   0.94839   0.00000  Uiso   1.00
C142   C     0.97674   0.07581   0.88808   0.00000  Uiso   1.00
C143   C     0.13912   0.99193   0.76171   0.00000  Uiso   1.00
C144   C     0.72052   0.39868   0.10119   0.00000  Uiso   1.00
C145   C     0.70270   0.46804   0.05526   0.00000  Uiso   1.00
C146   C     0.71665   0.60418   0.04383   0.00000  Uiso   1.00
C147   C     0.72845   0.82610   0.00766   0.00000  Uiso   1.00
C148   C     0.63040   0.22918   0.26144   0.00000  Uiso   1.00
C149   C     0.53680   0.15605   0.35026   0.00000  Uiso   1.00
C150   C     0.47487   0.14951   0.47377   0.00000  Uiso   1.00
C151   C     0.34676   0.10826   0.68641   0.00000  Uiso   1.00
C152   C     0.76634   0.36791   0.18263   0.00000  Uiso   1.00
C153   C     0.84812   0.26606   0.07649   0.00000  Uiso   1.00
C154   C     0.94362   0.23653   0.01631   0.00000  Uiso   1.00
C155   C     0.00746   0.14026   0.92149   0.00000  Uiso   1.00
C156   C     0.75118   0.46301   0.13453   0.00000  Uiso   1.00
C157   C     0.76515   0.59909   0.12318   0.00000  Uiso   1.00
C158   C     0.74737   0.66864   0.07723   0.00000  Uiso   1.00
C159   C     0.66106   0.29351   0.29479   0.00000  Uiso   1.00
C160   C     0.59926   0.28710   0.41818   0.00000  Uiso   1.00
C161   C     0.50559   0.21397   0.50717   0.00000  Uiso   1.00
H162   H     0.68602   0.19938   0.09527   0.00000  Uiso   1.00
H163   H     0.85741   0.05572   0.92260   0.00000  Uiso   1.00
H164   H     0.67896   0.41823   0.02947   0.00000  Uiso   1.00
H165   H     0.51310   0.10628   0.32442   0.00000  Uiso   1.00
H166   H     0.06097   0.92485   0.74584   0.00000  Uiso   1.00
H167   H     0.68466   0.68922   0.97121   0.00000  Uiso   1.00
H168   H     0.33490   0.03142   0.59319   0.00000  Uiso   1.00
H169   H     0.79022   0.41800   0.20859   0.00000  Uiso   1.00
H170   H     0.96733   0.28633   0.04214   0.00000  Uiso   1.00
H171   H     0.78887   0.64884   0.14900   0.00000  Uiso   1.00
H172   H     0.62301   0.33690   0.44395   0.00000  Uiso   1.00
H173   H     0.15018   0.11203   0.84285   0.00000  Uiso   1.00
H174   H     0.77387   0.87640   0.06823   0.00000  Uiso   1.00
H175   H     0.42411   0.21860   0.69020   0.00000  Uiso   1.00
O176   O     0.22022   0.92791   0.68278   0.00000  Uiso   1.00
O177   O     0.72650   0.93073   0.97848   0.00000  Uiso   1.00
O178   O     0.26763   0.06771   0.79449   0.00000  Uiso   1.00
N179   N     0.05765   0.98695   0.79153   0.00000  Uiso   1.00
N180   N     0.70584   0.70159   0.00222   0.00000  Uiso   1.00
N181   N     0.37883   0.08664   0.58373   0.00000  Uiso   1.00
N182   N     0.10565   0.08767   0.84374   0.00000  Uiso   1.00
N183   N     0.75384   0.80231   0.05443   0.00000  Uiso   1.00
N184   N     0.42683   0.18735   0.63593   0.00000  Uiso   1.00
