data_job_01162
_audit_creation_date              2018-12-19
_audit_creation_method            'Materials Studio'
_symmetry_space_group_name_H-M    'P1'
_symmetry_Int_Tables_number       1
_symmetry_cell_setting            triclinic
loop_
_symmetry_equiv_pos_as_xyz
  x,y,z
_cell_length_a                    20.1823
_cell_length_b                    9.6806
_cell_length_c                    18.2225
_cell_angle_alpha                 90.0000
_cell_angle_beta                  142.7869
_cell_angle_gamma                 90.0000
loop_
_atom_site_label
_atom_site_type_symbol
_atom_site_fract_x
_atom_site_fract_y
_atom_site_fract_z
_atom_site_U_iso_or_equiv
_atom_site_adp_type
_atom_site_occupancy
C1     C     0.84875   0.70516   0.74314   0.00000  Uiso   1.00
C2     C     0.78578   0.66294   0.75631   0.00000  Uiso   1.00
C3     C     0.82416   0.57620   0.84507   0.00000  Uiso   1.00
C4     C     0.75402   0.55025   0.84158   0.00000  Uiso   1.00
C5     C     0.67215   0.47572   0.87555   0.00000  Uiso   1.00
C6     C     0.77685   0.66400   0.61486   0.00000  Uiso   1.00
C7     C     0.80773   0.57816   0.58472   0.00000  Uiso   1.00
C8     C     0.73007   0.55312   0.46216   0.00000  Uiso   1.00
C9     C     0.63436   0.48031   0.27653   0.00000  Uiso   1.00
C10    C     0.85148   0.86264   0.74581   0.00000  Uiso   1.00
C11    C     0.94511   0.94382   0.82573   0.00000  Uiso   1.00
C12    C     0.93028   0.08602   0.81340   0.00000  Uiso   1.00
C13    C     0.95046   0.32161   0.83108   0.00000  Uiso   1.00
C14    C     0.65593   0.81333   0.57908   0.00000  Uiso   1.00
C15    C     0.68104   0.72170   0.66719   0.00000  Uiso   1.00
C16    C     0.61083   0.69588   0.66357   0.00000  Uiso   1.00
C17    C     0.64910   0.60911   0.75232   0.00000  Uiso   1.00
C18    C     0.67212   0.72275   0.52576   0.00000  Uiso   1.00
C19    C     0.59439   0.69784   0.40321   0.00000  Uiso   1.00
C20    C     0.62515   0.61198   0.37289   0.00000  Uiso   1.00
C21    C     0.74675   0.92139   0.65670   0.00000  Uiso   1.00
C22    C     0.73177   0.06349   0.64423   0.00000  Uiso   1.00
C23    C     0.82536   0.14488   0.72413   0.00000  Uiso   1.00
H24    H     0.93028   0.65941   0.81250   0.00000  Uiso   1.00
H25    H     0.90521   0.53074   0.91401   0.00000  Uiso   1.00
H26    H     0.88878   0.53272   0.65369   0.00000  Uiso   1.00
H27    H     0.02614   0.89832   0.89467   0.00000  Uiso   1.00
H28    H     0.83121   0.41396   0.98722   0.00000  Uiso   1.00
H29    H     0.79659   0.41817   0.43833   0.00000  Uiso   1.00
H30    H     0.08623   0.18910   0.94649   0.00000  Uiso   1.00
H31    H     0.57438   0.85907   0.50971   0.00000  Uiso   1.00
H32    H     0.52978   0.74136   0.59460   0.00000  Uiso   1.00
H33    H     0.51336   0.74333   0.33428   0.00000  Uiso   1.00
H34    H     0.65071   0.10893   0.57527   0.00000  Uiso   1.00
H35    H     0.52650   0.58490   0.72798   0.00000  Uiso   1.00
H36    H     0.49188   0.58911   0.17909   0.00000  Uiso   1.00
H37    H     0.78152   0.36004   0.68724   0.00000  Uiso   1.00
O38    O     0.65592   0.41836   0.91889   0.00000  Uiso   1.00
O39    O     0.61051   0.42390   0.19876   0.00000  Uiso   1.00
O40    O     0.99051   0.43533   0.86546   0.00000  Uiso   1.00
N41    N     0.76563   0.47037   0.91457   0.00000  Uiso   1.00
N42    N     0.73325   0.47428   0.40139   0.00000  Uiso   1.00
N43    N     0.00404   0.19504   0.87646   0.00000  Uiso   1.00
N44    N     0.60166   0.56235   0.77508   0.00000  Uiso   1.00
N45    N     0.56929   0.56627   0.26190   0.00000  Uiso   1.00
N46    N     0.84008   0.28702   0.73696   0.00000  Uiso   1.00
C47    C     0.15125   0.20516   0.75686   0.00000  Uiso   1.00
C48    C     0.21422   0.16294   0.74369   0.00000  Uiso   1.00
C49    C     0.17584   0.07620   0.65493   0.00000  Uiso   1.00
C50    C     0.24598   0.05025   0.65842   0.00000  Uiso   1.00
C51    C     0.32785   0.97572   0.62445   0.00000  Uiso   1.00
C52    C     0.22315   0.16400   0.88514   0.00000  Uiso   1.00
C53    C     0.19227   0.07816   0.91528   0.00000  Uiso   1.00
C54    C     0.26993   0.05312   0.03784   0.00000  Uiso   1.00
C55    C     0.36564   0.98031   0.22347   0.00000  Uiso   1.00
C56    C     0.14852   0.36264   0.75419   0.00000  Uiso   1.00
C57    C     0.05489   0.44382   0.67427   0.00000  Uiso   1.00
C58    C     0.06972   0.58602   0.68660   0.00000  Uiso   1.00
C59    C     0.04954   0.82161   0.66892   0.00000  Uiso   1.00
C60    C     0.34407   0.31333   0.92092   0.00000  Uiso   1.00
C61    C     0.31896   0.22170   0.83281   0.00000  Uiso   1.00
C62    C     0.38917   0.19588   0.83643   0.00000  Uiso   1.00
C63    C     0.35090   0.10911   0.74768   0.00000  Uiso   1.00
C64    C     0.32788   0.22275   0.97424   0.00000  Uiso   1.00
C65    C     0.40561   0.19784   0.09679   0.00000  Uiso   1.00
C66    C     0.37485   0.11198   0.12711   0.00000  Uiso   1.00
C67    C     0.25325   0.42139   0.84330   0.00000  Uiso   1.00
C68    C     0.26823   0.56349   0.85577   0.00000  Uiso   1.00
C69    C     0.17464   0.64488   0.77587   0.00000  Uiso   1.00
H70    H     0.06972   0.15941   0.68750   0.00000  Uiso   1.00
H71    H     0.09479   0.03074   0.58599   0.00000  Uiso   1.00
H72    H     0.11122   0.03272   0.84631   0.00000  Uiso   1.00
H73    H     0.97386   0.39832   0.60533   0.00000  Uiso   1.00
H74    H     0.16879   0.91396   0.51278   0.00000  Uiso   1.00
H75    H     0.20341   0.91817   0.06167   0.00000  Uiso   1.00
H76    H     0.91377   0.68910   0.55351   0.00000  Uiso   1.00
H77    H     0.42562   0.35907   0.99029   0.00000  Uiso   1.00
H78    H     0.47022   0.24136   0.90540   0.00000  Uiso   1.00
H79    H     0.48664   0.24333   0.16572   0.00000  Uiso   1.00
H80    H     0.34929   0.60893   0.92473   0.00000  Uiso   1.00
H81    H     0.47350   0.08490   0.77202   0.00000  Uiso   1.00
H82    H     0.50812   0.08911   0.32091   0.00000  Uiso   1.00
H83    H     0.21848   0.86004   0.81276   0.00000  Uiso   1.00
O84    O     0.34408   0.91836   0.58111   0.00000  Uiso   1.00
O85    O     0.38949   0.92390   0.30124   0.00000  Uiso   1.00
O86    O     0.00949   0.93533   0.63454   0.00000  Uiso   1.00
N87    N     0.23437   0.97037   0.58543   0.00000  Uiso   1.00
N88    N     0.26675   0.97428   0.09861   0.00000  Uiso   1.00
N89    N     0.99596   0.69504   0.62354   0.00000  Uiso   1.00
N90    N     0.39834   0.06235   0.72492   0.00000  Uiso   1.00
N91    N     0.43071   0.06627   0.23810   0.00000  Uiso   1.00
N92    N     0.15992   0.78702   0.76304   0.00000  Uiso   1.00
C93    C     0.15125   0.29484   0.25686   0.00000  Uiso   1.00
C94    C     0.21422   0.33706   0.24369   0.00000  Uiso   1.00
C95    C     0.17584   0.42380   0.15493   0.00000  Uiso   1.00
C96    C     0.24598   0.44975   0.15842   0.00000  Uiso   1.00
C97    C     0.32785   0.52428   0.12445   0.00000  Uiso   1.00
C98    C     0.22315   0.33600   0.38514   0.00000  Uiso   1.00
C99    C     0.19227   0.42184   0.41528   0.00000  Uiso   1.00
C100   C     0.26993   0.44688   0.53784   0.00000  Uiso   1.00
C101   C     0.36564   0.51969   0.72347   0.00000  Uiso   1.00
C102   C     0.14852   0.13736   0.25419   0.00000  Uiso   1.00
C103   C     0.05489   0.05618   0.17427   0.00000  Uiso   1.00
C104   C     0.06972   0.91398   0.18660   0.00000  Uiso   1.00
C105   C     0.04954   0.67839   0.16892   0.00000  Uiso   1.00
C106   C     0.34407   0.18667   0.42092   0.00000  Uiso   1.00
C107   C     0.31896   0.27830   0.33281   0.00000  Uiso   1.00
C108   C     0.38917   0.30412   0.33643   0.00000  Uiso   1.00
C109   C     0.35090   0.39089   0.24768   0.00000  Uiso   1.00
C110   C     0.32788   0.27725   0.47424   0.00000  Uiso   1.00
C111   C     0.40561   0.30216   0.59679   0.00000  Uiso   1.00
C112   C     0.37485   0.38802   0.62711   0.00000  Uiso   1.00
C113   C     0.25325   0.07861   0.34330   0.00000  Uiso   1.00
C114   C     0.26823   0.93651   0.35577   0.00000  Uiso   1.00
C115   C     0.17464   0.85512   0.27587   0.00000  Uiso   1.00
H116   H     0.06972   0.34059   0.18750   0.00000  Uiso   1.00
H117   H     0.09479   0.46926   0.08599   0.00000  Uiso   1.00
H118   H     0.11122   0.46728   0.34631   0.00000  Uiso   1.00
H119   H     0.97386   0.10168   0.10533   0.00000  Uiso   1.00
H120   H     0.16879   0.58604   0.01278   0.00000  Uiso   1.00
H121   H     0.20341   0.58183   0.56167   0.00000  Uiso   1.00
H122   H     0.91377   0.81090   0.05351   0.00000  Uiso   1.00
H123   H     0.42562   0.14093   0.49029   0.00000  Uiso   1.00
H124   H     0.47022   0.25864   0.40540   0.00000  Uiso   1.00
H125   H     0.48664   0.25667   0.66572   0.00000  Uiso   1.00
H126   H     0.34929   0.89107   0.42473   0.00000  Uiso   1.00
H127   H     0.47350   0.41510   0.27202   0.00000  Uiso   1.00
H128   H     0.50812   0.41089   0.82091   0.00000  Uiso   1.00
H129   H     0.21848   0.63996   0.31276   0.00000  Uiso   1.00
O130   O     0.34408   0.58164   0.08111   0.00000  Uiso   1.00
O131   O     0.38949   0.57610   0.80124   0.00000  Uiso   1.00
O132   O     0.00949   0.56467   0.13454   0.00000  Uiso   1.00
N133   N     0.23437   0.52963   0.08543   0.00000  Uiso   1.00
N134   N     0.26675   0.52572   0.59861   0.00000  Uiso   1.00
N135   N     0.99596   0.80496   0.12354   0.00000  Uiso   1.00
N136   N     0.39834   0.43765   0.22492   0.00000  Uiso   1.00
N137   N     0.43071   0.43373   0.73810   0.00000  Uiso   1.00
N138   N     0.15992   0.71298   0.26304   0.00000  Uiso   1.00
C139   C     0.84875   0.79484   0.24314   0.00000  Uiso   1.00
C140   C     0.78578   0.83706   0.25631   0.00000  Uiso   1.00
C141   C     0.82416   0.92380   0.34507   0.00000  Uiso   1.00
C142   C     0.75402   0.94975   0.34158   0.00000  Uiso   1.00
C143   C     0.67215   0.02428   0.37555   0.00000  Uiso   1.00
C144   C     0.77685   0.83600   0.11486   0.00000  Uiso   1.00
C145   C     0.80773   0.92184   0.08472   0.00000  Uiso   1.00
C146   C     0.73007   0.94688   0.96216   0.00000  Uiso   1.00
C147   C     0.63436   0.01969   0.77653   0.00000  Uiso   1.00
C148   C     0.85148   0.63736   0.24581   0.00000  Uiso   1.00
C149   C     0.94511   0.55618   0.32573   0.00000  Uiso   1.00
C150   C     0.93028   0.41398   0.31340   0.00000  Uiso   1.00
C151   C     0.95046   0.17839   0.33108   0.00000  Uiso   1.00
C152   C     0.65593   0.68667   0.07908   0.00000  Uiso   1.00
C153   C     0.68104   0.77830   0.16719   0.00000  Uiso   1.00
C154   C     0.61083   0.80412   0.16357   0.00000  Uiso   1.00
C155   C     0.64910   0.89089   0.25232   0.00000  Uiso   1.00
C156   C     0.67212   0.77725   0.02576   0.00000  Uiso   1.00
C157   C     0.59439   0.80216   0.90321   0.00000  Uiso   1.00
C158   C     0.62515   0.88802   0.87289   0.00000  Uiso   1.00
C159   C     0.74675   0.57861   0.15670   0.00000  Uiso   1.00
C160   C     0.73177   0.43651   0.14423   0.00000  Uiso   1.00
C161   C     0.82536   0.35512   0.22413   0.00000  Uiso   1.00
H162   H     0.93028   0.84059   0.31250   0.00000  Uiso   1.00
H163   H     0.90521   0.96926   0.41401   0.00000  Uiso   1.00
H164   H     0.88878   0.96728   0.15369   0.00000  Uiso   1.00
H165   H     0.02614   0.60168   0.39467   0.00000  Uiso   1.00
H166   H     0.83121   0.08604   0.48722   0.00000  Uiso   1.00
H167   H     0.79659   0.08183   0.93833   0.00000  Uiso   1.00
H168   H     0.08623   0.31090   0.44649   0.00000  Uiso   1.00
H169   H     0.57438   0.64093   0.00971   0.00000  Uiso   1.00
H170   H     0.52978   0.75864   0.09460   0.00000  Uiso   1.00
H171   H     0.51336   0.75667   0.83428   0.00000  Uiso   1.00
H172   H     0.65071   0.39107   0.07527   0.00000  Uiso   1.00
H173   H     0.52650   0.91510   0.22798   0.00000  Uiso   1.00
H174   H     0.49188   0.91089   0.67909   0.00000  Uiso   1.00
H175   H     0.78152   0.13996   0.18724   0.00000  Uiso   1.00
O176   O     0.65592   0.08164   0.41889   0.00000  Uiso   1.00
O177   O     0.61051   0.07610   0.69876   0.00000  Uiso   1.00
O178   O     0.99051   0.06467   0.36546   0.00000  Uiso   1.00
N179   N     0.76563   0.02963   0.41457   0.00000  Uiso   1.00
N180   N     0.73325   0.02572   0.90139   0.00000  Uiso   1.00
N181   N     0.00404   0.30496   0.37646   0.00000  Uiso   1.00
N182   N     0.60166   0.93765   0.27508   0.00000  Uiso   1.00
N183   N     0.56929   0.93373   0.76190   0.00000  Uiso   1.00
N184   N     0.84008   0.21298   0.23696   0.00000  Uiso   1.00
