data_job_03913
_audit_creation_date              2018-12-19
_audit_creation_method            'Materials Studio'
_symmetry_space_group_name_H-M    'P1'
_symmetry_Int_Tables_number       1
_symmetry_cell_setting            triclinic
loop_
_symmetry_equiv_pos_as_xyz
  x,y,z
_cell_length_a                    18.4325
_cell_length_b                    14.5547
_cell_length_c                    27.8265
_cell_angle_alpha                 90.0000
_cell_angle_beta                  90.0000
_cell_angle_gamma                 90.0000
loop_
_atom_site_label
_atom_site_type_symbol
_atom_site_fract_x
_atom_site_fract_y
_atom_site_fract_z
_atom_site_U_iso_or_equiv
_atom_site_adp_type
_atom_site_occupancy
C1     C     0.80986   0.14874   0.09476   0.00000  Uiso   1.00
C2     C     0.83286   0.24924   0.09198   0.00000  Uiso   1.00
C3     C     0.88180   0.28603   0.05933   0.00000  Uiso   1.00
C4     C     0.89561   0.37959   0.06267   0.00000  Uiso   1.00
C5     C     0.93646   0.52732   0.05305   0.00000  Uiso   1.00
C6     C     0.72741   0.14839   0.09024   0.00000  Uiso   1.00
C7     C     0.68768   0.10036   0.05612   0.00000  Uiso   1.00
C8     C     0.61272   0.10901   0.05799   0.00000  Uiso   1.00
C9     C     0.48986   0.10011   0.04568   0.00000  Uiso   1.00
C10    C     0.82647   0.11763   0.14592   0.00000  Uiso   1.00
C11    C     0.87002   0.04373   0.15862   0.00000  Uiso   1.00
C12    C     0.87845   0.02647   0.20737   0.00000  Uiso   1.00
C13    C     0.90939   0.96982   0.28152   0.00000  Uiso   1.00
C14    C     0.74737   0.24947   0.15876   0.00000  Uiso   1.00
C15    C     0.79892   0.30395   0.12674   0.00000  Uiso   1.00
C16    C     0.81266   0.39748   0.13014   0.00000  Uiso   1.00
C17    C     0.86161   0.43440   0.09749   0.00000  Uiso   1.00
C18    C     0.69347   0.20310   0.12500   0.00000  Uiso   1.00
C19    C     0.61855   0.21181   0.12692   0.00000  Uiso   1.00
C20    C     0.57872   0.16382   0.09282   0.00000  Uiso   1.00
C21    C     0.79253   0.17234   0.18068   0.00000  Uiso   1.00
C22    C     0.80088   0.15519   0.22943   0.00000  Uiso   1.00
C23    C     0.84444   0.08128   0.24220   0.00000  Uiso   1.00
H24    H     0.83628   0.10615   0.06770   0.00000  Uiso   1.00
H25    H     0.90805   0.24367   0.03243   0.00000  Uiso   1.00
H26    H     0.71396   0.05802   0.02922   0.00000  Uiso   1.00
H27    H     0.89628   0.00141   0.13171   0.00000  Uiso   1.00
H28    H     0.97263   0.42027   0.00865   0.00000  Uiso   1.00
H29    H     0.56339   0.02880   0.00190   0.00000  Uiso   1.00
H30    H     0.94783   0.90942   0.21801   0.00000  Uiso   1.00
H31    H     0.72094   0.29207   0.18582   0.00000  Uiso   1.00
H32    H     0.78638   0.43980   0.15704   0.00000  Uiso   1.00
H33    H     0.59230   0.25415   0.15383   0.00000  Uiso   1.00
H34    H     0.77461   0.19754   0.25632   0.00000  Uiso   1.00
H35    H     0.87388   0.57946   0.10978   0.00000  Uiso   1.00
H36    H     0.46464   0.18799   0.10303   0.00000  Uiso   1.00
H37    H     0.84908   0.06861   0.31914   0.00000  Uiso   1.00
O38    O     0.96836   0.59370   0.03814   0.00000  Uiso   1.00
O39    O     0.43147   0.08009   0.02929   0.00000  Uiso   1.00
O40    O     0.93584   0.92347   0.31282   0.00000  Uiso   1.00
N41    N     0.94042   0.43746   0.03641   0.00000  Uiso   1.00
N42    N     0.55781   0.07147   0.03009   0.00000  Uiso   1.00
N43    N     0.91721   0.95984   0.23214   0.00000  Uiso   1.00
N44    N     0.88728   0.52312   0.09083   0.00000  Uiso   1.00
N45    N     0.50467   0.15713   0.08451   0.00000  Uiso   1.00
N46    N     0.86407   0.04550   0.28656   0.00000  Uiso   1.00
C47    C     0.69014   0.85126   0.09476   0.00000  Uiso   1.00
C48    C     0.66714   0.75076   0.09198   0.00000  Uiso   1.00
C49    C     0.61820   0.71397   0.05933   0.00000  Uiso   1.00
C50    C     0.60439   0.62041   0.06267   0.00000  Uiso   1.00
C51    C     0.56354   0.47268   0.05305   0.00000  Uiso   1.00
C52    C     0.77259   0.85161   0.09024   0.00000  Uiso   1.00
C53    C     0.81232   0.89964   0.05612   0.00000  Uiso   1.00
C54    C     0.88728   0.89099   0.05799   0.00000  Uiso   1.00
C55    C     0.01014   0.89989   0.04568   0.00000  Uiso   1.00
C56    C     0.67353   0.88237   0.14592   0.00000  Uiso   1.00
C57    C     0.62998   0.95627   0.15862   0.00000  Uiso   1.00
C58    C     0.62155   0.97353   0.20737   0.00000  Uiso   1.00
C59    C     0.59061   0.03018   0.28152   0.00000  Uiso   1.00
C60    C     0.75263   0.75053   0.15876   0.00000  Uiso   1.00
C61    C     0.70108   0.69605   0.12674   0.00000  Uiso   1.00
C62    C     0.68734   0.60252   0.13014   0.00000  Uiso   1.00
C63    C     0.63839   0.56560   0.09749   0.00000  Uiso   1.00
C64    C     0.80653   0.79690   0.12500   0.00000  Uiso   1.00
C65    C     0.88145   0.78819   0.12692   0.00000  Uiso   1.00
C66    C     0.92128   0.83618   0.09282   0.00000  Uiso   1.00
C67    C     0.70747   0.82766   0.18068   0.00000  Uiso   1.00
C68    C     0.69912   0.84481   0.22943   0.00000  Uiso   1.00
C69    C     0.65556   0.91872   0.24220   0.00000  Uiso   1.00
H70    H     0.66372   0.89385   0.06770   0.00000  Uiso   1.00
H71    H     0.59195   0.75633   0.03243   0.00000  Uiso   1.00
H72    H     0.78604   0.94198   0.02922   0.00000  Uiso   1.00
H73    H     0.60372   0.99859   0.13171   0.00000  Uiso   1.00
H74    H     0.52737   0.57973   0.00865   0.00000  Uiso   1.00
H75    H     0.93661   0.97120   0.00190   0.00000  Uiso   1.00
H76    H     0.55217   0.09058   0.21801   0.00000  Uiso   1.00
H77    H     0.77906   0.70793   0.18582   0.00000  Uiso   1.00
H78    H     0.71362   0.56020   0.15704   0.00000  Uiso   1.00
H79    H     0.90770   0.74585   0.15383   0.00000  Uiso   1.00
H80    H     0.72539   0.80246   0.25632   0.00000  Uiso   1.00
H81    H     0.62612   0.42054   0.10978   0.00000  Uiso   1.00
H82    H     0.03536   0.81201   0.10303   0.00000  Uiso   1.00
H83    H     0.65092   0.93139   0.31914   0.00000  Uiso   1.00
O84    O     0.53164   0.40630   0.03814   0.00000  Uiso   1.00
O85    O     0.06853   0.91991   0.02929   0.00000  Uiso   1.00
O86    O     0.56416   0.07653   0.31282   0.00000  Uiso   1.00
N87    N     0.55958   0.56254   0.03641   0.00000  Uiso   1.00
N88    N     0.94219   0.92853   0.03009   0.00000  Uiso   1.00
N89    N     0.58279   0.04016   0.23214   0.00000  Uiso   1.00
N90    N     0.61272   0.47688   0.09083   0.00000  Uiso   1.00
N91    N     0.99533   0.84287   0.08451   0.00000  Uiso   1.00
N92    N     0.63593   0.95450   0.28656   0.00000  Uiso   1.00
C93    C     0.19014   0.14874   0.40524   0.00000  Uiso   1.00
C94    C     0.16714   0.24924   0.40802   0.00000  Uiso   1.00
C95    C     0.11820   0.28603   0.44067   0.00000  Uiso   1.00
C96    C     0.10439   0.37959   0.43733   0.00000  Uiso   1.00
C97    C     0.06354   0.52732   0.44695   0.00000  Uiso   1.00
C98    C     0.27259   0.14839   0.40976   0.00000  Uiso   1.00
C99    C     0.31232   0.10036   0.44388   0.00000  Uiso   1.00
C100   C     0.38728   0.10901   0.44201   0.00000  Uiso   1.00
C101   C     0.51014   0.10011   0.45432   0.00000  Uiso   1.00
C102   C     0.17353   0.11763   0.35408   0.00000  Uiso   1.00
C103   C     0.12998   0.04373   0.34138   0.00000  Uiso   1.00
C104   C     0.12155   0.02647   0.29263   0.00000  Uiso   1.00
C105   C     0.09061   0.96982   0.21848   0.00000  Uiso   1.00
C106   C     0.25263   0.24947   0.34124   0.00000  Uiso   1.00
C107   C     0.20108   0.30395   0.37326   0.00000  Uiso   1.00
C108   C     0.18734   0.39748   0.36986   0.00000  Uiso   1.00
C109   C     0.13839   0.43440   0.40251   0.00000  Uiso   1.00
C110   C     0.30653   0.20310   0.37500   0.00000  Uiso   1.00
C111   C     0.38145   0.21181   0.37308   0.00000  Uiso   1.00
C112   C     0.42128   0.16382   0.40718   0.00000  Uiso   1.00
C113   C     0.20747   0.17234   0.31932   0.00000  Uiso   1.00
C114   C     0.19912   0.15519   0.27057   0.00000  Uiso   1.00
C115   C     0.15556   0.08128   0.25780   0.00000  Uiso   1.00
H116   H     0.16372   0.10615   0.43230   0.00000  Uiso   1.00
H117   H     0.09195   0.24367   0.46757   0.00000  Uiso   1.00
H118   H     0.28604   0.05802   0.47078   0.00000  Uiso   1.00
H119   H     0.10372   0.00141   0.36829   0.00000  Uiso   1.00
H120   H     0.02737   0.42027   0.49135   0.00000  Uiso   1.00
H121   H     0.43661   0.02880   0.49810   0.00000  Uiso   1.00
H122   H     0.05217   0.90942   0.28199   0.00000  Uiso   1.00
H123   H     0.27906   0.29207   0.31418   0.00000  Uiso   1.00
H124   H     0.21362   0.43980   0.34296   0.00000  Uiso   1.00
H125   H     0.40770   0.25415   0.34617   0.00000  Uiso   1.00
H126   H     0.22539   0.19754   0.24368   0.00000  Uiso   1.00
H127   H     0.12612   0.57946   0.39022   0.00000  Uiso   1.00
H128   H     0.53536   0.18799   0.39697   0.00000  Uiso   1.00
H129   H     0.15092   0.06861   0.18086   0.00000  Uiso   1.00
O130   O     0.03164   0.59370   0.46186   0.00000  Uiso   1.00
O131   O     0.56853   0.08009   0.47071   0.00000  Uiso   1.00
O132   O     0.06416   0.92347   0.18718   0.00000  Uiso   1.00
N133   N     0.05958   0.43746   0.46359   0.00000  Uiso   1.00
N134   N     0.44219   0.07147   0.46991   0.00000  Uiso   1.00
N135   N     0.08279   0.95984   0.26786   0.00000  Uiso   1.00
N136   N     0.11272   0.52312   0.40917   0.00000  Uiso   1.00
N137   N     0.49533   0.15713   0.41549   0.00000  Uiso   1.00
N138   N     0.13593   0.04550   0.21344   0.00000  Uiso   1.00
C139   C     0.30986   0.85126   0.40524   0.00000  Uiso   1.00
C140   C     0.33286   0.75076   0.40802   0.00000  Uiso   1.00
C141   C     0.38180   0.71397   0.44067   0.00000  Uiso   1.00
C142   C     0.39561   0.62041   0.43733   0.00000  Uiso   1.00
C143   C     0.43646   0.47268   0.44695   0.00000  Uiso   1.00
C144   C     0.22741   0.85161   0.40976   0.00000  Uiso   1.00
C145   C     0.18768   0.89964   0.44388   0.00000  Uiso   1.00
C146   C     0.11272   0.89099   0.44201   0.00000  Uiso   1.00
C147   C     0.98986   0.89989   0.45432   0.00000  Uiso   1.00
C148   C     0.32647   0.88237   0.35408   0.00000  Uiso   1.00
C149   C     0.37002   0.95627   0.34138   0.00000  Uiso   1.00
C150   C     0.37845   0.97353   0.29263   0.00000  Uiso   1.00
C151   C     0.40939   0.03018   0.21848   0.00000  Uiso   1.00
C152   C     0.24737   0.75053   0.34124   0.00000  Uiso   1.00
C153   C     0.29892   0.69605   0.37326   0.00000  Uiso   1.00
C154   C     0.31266   0.60252   0.36986   0.00000  Uiso   1.00
C155   C     0.36161   0.56560   0.40251   0.00000  Uiso   1.00
C156   C     0.19347   0.79690   0.37500   0.00000  Uiso   1.00
C157   C     0.11855   0.78819   0.37308   0.00000  Uiso   1.00
C158   C     0.07872   0.83618   0.40718   0.00000  Uiso   1.00
C159   C     0.29253   0.82766   0.31932   0.00000  Uiso   1.00
C160   C     0.30088   0.84481   0.27057   0.00000  Uiso   1.00
C161   C     0.34444   0.91872   0.25780   0.00000  Uiso   1.00
H162   H     0.33628   0.89385   0.43230   0.00000  Uiso   1.00
H163   H     0.40805   0.75633   0.46757   0.00000  Uiso   1.00
H164   H     0.21396   0.94198   0.47078   0.00000  Uiso   1.00
H165   H     0.39628   0.99859   0.36829   0.00000  Uiso   1.00
H166   H     0.47263   0.57973   0.49135   0.00000  Uiso   1.00
H167   H     0.06339   0.97120   0.49810   0.00000  Uiso   1.00
H168   H     0.44783   0.09058   0.28199   0.00000  Uiso   1.00
H169   H     0.22094   0.70793   0.31418   0.00000  Uiso   1.00
H170   H     0.28638   0.56020   0.34296   0.00000  Uiso   1.00
H171   H     0.09230   0.74585   0.34617   0.00000  Uiso   1.00
H172   H     0.27461   0.80246   0.24368   0.00000  Uiso   1.00
H173   H     0.37388   0.42054   0.39022   0.00000  Uiso   1.00
H174   H     0.96464   0.81201   0.39697   0.00000  Uiso   1.00
H175   H     0.34908   0.93139   0.18086   0.00000  Uiso   1.00
O176   O     0.46836   0.40630   0.46186   0.00000  Uiso   1.00
O177   O     0.93147   0.91991   0.47071   0.00000  Uiso   1.00
O178   O     0.43584   0.07653   0.18718   0.00000  Uiso   1.00
N179   N     0.44042   0.56254   0.46359   0.00000  Uiso   1.00
N180   N     0.05781   0.92853   0.46991   0.00000  Uiso   1.00
N181   N     0.41721   0.04016   0.26786   0.00000  Uiso   1.00
N182   N     0.38728   0.47688   0.40917   0.00000  Uiso   1.00
N183   N     0.00467   0.84287   0.41549   0.00000  Uiso   1.00
N184   N     0.36407   0.95450   0.21344   0.00000  Uiso   1.00
C185   C     0.19014   0.85126   0.90524   0.00000  Uiso   1.00
C186   C     0.16714   0.75076   0.90802   0.00000  Uiso   1.00
C187   C     0.11820   0.71397   0.94067   0.00000  Uiso   1.00
C188   C     0.10439   0.62041   0.93733   0.00000  Uiso   1.00
C189   C     0.06354   0.47268   0.94695   0.00000  Uiso   1.00
C190   C     0.27259   0.85161   0.90976   0.00000  Uiso   1.00
C191   C     0.31232   0.89964   0.94388   0.00000  Uiso   1.00
C192   C     0.38728   0.89099   0.94201   0.00000  Uiso   1.00
C193   C     0.51014   0.89989   0.95432   0.00000  Uiso   1.00
C194   C     0.17353   0.88237   0.85408   0.00000  Uiso   1.00
C195   C     0.12998   0.95627   0.84138   0.00000  Uiso   1.00
C196   C     0.12155   0.97353   0.79263   0.00000  Uiso   1.00
C197   C     0.09061   0.03018   0.71848   0.00000  Uiso   1.00
C198   C     0.25263   0.75053   0.84124   0.00000  Uiso   1.00
C199   C     0.20108   0.69605   0.87326   0.00000  Uiso   1.00
C200   C     0.18734   0.60252   0.86986   0.00000  Uiso   1.00
C201   C     0.13839   0.56560   0.90251   0.00000  Uiso   1.00
C202   C     0.30653   0.79690   0.87500   0.00000  Uiso   1.00
C203   C     0.38145   0.78819   0.87308   0.00000  Uiso   1.00
C204   C     0.42128   0.83618   0.90718   0.00000  Uiso   1.00
C205   C     0.20747   0.82766   0.81932   0.00000  Uiso   1.00
C206   C     0.19912   0.84481   0.77057   0.00000  Uiso   1.00
C207   C     0.15556   0.91872   0.75780   0.00000  Uiso   1.00
H208   H     0.16372   0.89385   0.93230   0.00000  Uiso   1.00
H209   H     0.09195   0.75633   0.96757   0.00000  Uiso   1.00
H210   H     0.28604   0.94198   0.97078   0.00000  Uiso   1.00
H211   H     0.10372   0.99859   0.86829   0.00000  Uiso   1.00
H212   H     0.02737   0.57973   0.99135   0.00000  Uiso   1.00
H213   H     0.43661   0.97120   0.99810   0.00000  Uiso   1.00
H214   H     0.05217   0.09058   0.78199   0.00000  Uiso   1.00
H215   H     0.27906   0.70793   0.81418   0.00000  Uiso   1.00
H216   H     0.21362   0.56020   0.84296   0.00000  Uiso   1.00
H217   H     0.40770   0.74585   0.84617   0.00000  Uiso   1.00
H218   H     0.22539   0.80246   0.74368   0.00000  Uiso   1.00
H219   H     0.12612   0.42054   0.89022   0.00000  Uiso   1.00
H220   H     0.53536   0.81201   0.89697   0.00000  Uiso   1.00
H221   H     0.15092   0.93139   0.68086   0.00000  Uiso   1.00
O222   O     0.03164   0.40630   0.96186   0.00000  Uiso   1.00
O223   O     0.56853   0.91991   0.97071   0.00000  Uiso   1.00
O224   O     0.06416   0.07653   0.68718   0.00000  Uiso   1.00
N225   N     0.05958   0.56254   0.96359   0.00000  Uiso   1.00
N226   N     0.44219   0.92853   0.96991   0.00000  Uiso   1.00
N227   N     0.08279   0.04016   0.76786   0.00000  Uiso   1.00
N228   N     0.11272   0.47688   0.90917   0.00000  Uiso   1.00
N229   N     0.49533   0.84287   0.91549   0.00000  Uiso   1.00
N230   N     0.13593   0.95450   0.71344   0.00000  Uiso   1.00
C231   C     0.30986   0.14874   0.90524   0.00000  Uiso   1.00
C232   C     0.33286   0.24924   0.90802   0.00000  Uiso   1.00
C233   C     0.38180   0.28603   0.94067   0.00000  Uiso   1.00
C234   C     0.39561   0.37959   0.93733   0.00000  Uiso   1.00
C235   C     0.43646   0.52732   0.94695   0.00000  Uiso   1.00
C236   C     0.22741   0.14839   0.90976   0.00000  Uiso   1.00
C237   C     0.18768   0.10036   0.94388   0.00000  Uiso   1.00
C238   C     0.11272   0.10901   0.94201   0.00000  Uiso   1.00
C239   C     0.98986   0.10011   0.95432   0.00000  Uiso   1.00
C240   C     0.32647   0.11763   0.85408   0.00000  Uiso   1.00
C241   C     0.37002   0.04373   0.84138   0.00000  Uiso   1.00
C242   C     0.37845   0.02647   0.79263   0.00000  Uiso   1.00
C243   C     0.40939   0.96982   0.71848   0.00000  Uiso   1.00
C244   C     0.24737   0.24947   0.84124   0.00000  Uiso   1.00
C245   C     0.29892   0.30395   0.87326   0.00000  Uiso   1.00
C246   C     0.31266   0.39748   0.86986   0.00000  Uiso   1.00
C247   C     0.36161   0.43440   0.90251   0.00000  Uiso   1.00
C248   C     0.19347   0.20310   0.87500   0.00000  Uiso   1.00
C249   C     0.11855   0.21181   0.87308   0.00000  Uiso   1.00
C250   C     0.07872   0.16382   0.90718   0.00000  Uiso   1.00
C251   C     0.29253   0.17234   0.81932   0.00000  Uiso   1.00
C252   C     0.30088   0.15519   0.77057   0.00000  Uiso   1.00
C253   C     0.34444   0.08128   0.75780   0.00000  Uiso   1.00
H254   H     0.33628   0.10615   0.93230   0.00000  Uiso   1.00
H255   H     0.40805   0.24367   0.96757   0.00000  Uiso   1.00
H256   H     0.21396   0.05802   0.97078   0.00000  Uiso   1.00
H257   H     0.39628   0.00141   0.86829   0.00000  Uiso   1.00
H258   H     0.47263   0.42027   0.99135   0.00000  Uiso   1.00
H259   H     0.06339   0.02880   0.99810   0.00000  Uiso   1.00
H260   H     0.44783   0.90942   0.78199   0.00000  Uiso   1.00
H261   H     0.22094   0.29207   0.81418   0.00000  Uiso   1.00
H262   H     0.28638   0.43980   0.84296   0.00000  Uiso   1.00
H263   H     0.09230   0.25415   0.84617   0.00000  Uiso   1.00
H264   H     0.27461   0.19754   0.74368   0.00000  Uiso   1.00
H265   H     0.37388   0.57946   0.89022   0.00000  Uiso   1.00
H266   H     0.96464   0.18799   0.89697   0.00000  Uiso   1.00
H267   H     0.34908   0.06861   0.68086   0.00000  Uiso   1.00
O268   O     0.46836   0.59370   0.96186   0.00000  Uiso   1.00
O269   O     0.93147   0.08009   0.97071   0.00000  Uiso   1.00
O270   O     0.43584   0.92347   0.68718   0.00000  Uiso   1.00
N271   N     0.44042   0.43746   0.96359   0.00000  Uiso   1.00
N272   N     0.05781   0.07147   0.96991   0.00000  Uiso   1.00
N273   N     0.41721   0.95984   0.76786   0.00000  Uiso   1.00
N274   N     0.38728   0.52312   0.90917   0.00000  Uiso   1.00
N275   N     0.00467   0.15713   0.91549   0.00000  Uiso   1.00
N276   N     0.36407   0.04550   0.71344   0.00000  Uiso   1.00
C277   C     0.80986   0.85126   0.59476   0.00000  Uiso   1.00
C278   C     0.83286   0.75076   0.59198   0.00000  Uiso   1.00
C279   C     0.88180   0.71397   0.55933   0.00000  Uiso   1.00
C280   C     0.89561   0.62041   0.56267   0.00000  Uiso   1.00
C281   C     0.93646   0.47268   0.55305   0.00000  Uiso   1.00
C282   C     0.72741   0.85161   0.59024   0.00000  Uiso   1.00
C283   C     0.68768   0.89964   0.55612   0.00000  Uiso   1.00
C284   C     0.61272   0.89099   0.55799   0.00000  Uiso   1.00
C285   C     0.48986   0.89989   0.54568   0.00000  Uiso   1.00
C286   C     0.82647   0.88237   0.64592   0.00000  Uiso   1.00
C287   C     0.87002   0.95627   0.65862   0.00000  Uiso   1.00
C288   C     0.87845   0.97353   0.70737   0.00000  Uiso   1.00
C289   C     0.90939   0.03018   0.78152   0.00000  Uiso   1.00
C290   C     0.74737   0.75053   0.65876   0.00000  Uiso   1.00
C291   C     0.79892   0.69605   0.62674   0.00000  Uiso   1.00
C292   C     0.81266   0.60252   0.63014   0.00000  Uiso   1.00
C293   C     0.86161   0.56560   0.59749   0.00000  Uiso   1.00
C294   C     0.69347   0.79690   0.62500   0.00000  Uiso   1.00
C295   C     0.61855   0.78819   0.62692   0.00000  Uiso   1.00
C296   C     0.57872   0.83618   0.59282   0.00000  Uiso   1.00
C297   C     0.79253   0.82766   0.68068   0.00000  Uiso   1.00
C298   C     0.80088   0.84481   0.72943   0.00000  Uiso   1.00
C299   C     0.84444   0.91872   0.74220   0.00000  Uiso   1.00
H300   H     0.83628   0.89385   0.56770   0.00000  Uiso   1.00
H301   H     0.90805   0.75633   0.53243   0.00000  Uiso   1.00
H302   H     0.71396   0.94198   0.52922   0.00000  Uiso   1.00
H303   H     0.89628   0.99859   0.63171   0.00000  Uiso   1.00
H304   H     0.97263   0.57973   0.50865   0.00000  Uiso   1.00
H305   H     0.56339   0.97120   0.50190   0.00000  Uiso   1.00
H306   H     0.94783   0.09058   0.71801   0.00000  Uiso   1.00
H307   H     0.72094   0.70793   0.68582   0.00000  Uiso   1.00
H308   H     0.78638   0.56020   0.65704   0.00000  Uiso   1.00
H309   H     0.59230   0.74585   0.65383   0.00000  Uiso   1.00
H310   H     0.77461   0.80246   0.75632   0.00000  Uiso   1.00
H311   H     0.87388   0.42054   0.60978   0.00000  Uiso   1.00
H312   H     0.46464   0.81201   0.60303   0.00000  Uiso   1.00
H313   H     0.84908   0.93139   0.81914   0.00000  Uiso   1.00
O314   O     0.96836   0.40630   0.53814   0.00000  Uiso   1.00
O315   O     0.43147   0.91991   0.52929   0.00000  Uiso   1.00
O316   O     0.93584   0.07653   0.81282   0.00000  Uiso   1.00
N317   N     0.94042   0.56254   0.53641   0.00000  Uiso   1.00
N318   N     0.55781   0.92853   0.53009   0.00000  Uiso   1.00
N319   N     0.91721   0.04016   0.73214   0.00000  Uiso   1.00
N320   N     0.88728   0.47688   0.59083   0.00000  Uiso   1.00
N321   N     0.50467   0.84287   0.58451   0.00000  Uiso   1.00
N322   N     0.86407   0.95450   0.78656   0.00000  Uiso   1.00
C323   C     0.69014   0.14874   0.59476   0.00000  Uiso   1.00
C324   C     0.66714   0.24924   0.59198   0.00000  Uiso   1.00
C325   C     0.61820   0.28603   0.55933   0.00000  Uiso   1.00
C326   C     0.60439   0.37959   0.56267   0.00000  Uiso   1.00
C327   C     0.56354   0.52732   0.55305   0.00000  Uiso   1.00
C328   C     0.77259   0.14839   0.59024   0.00000  Uiso   1.00
C329   C     0.81232   0.10036   0.55612   0.00000  Uiso   1.00
C330   C     0.88728   0.10901   0.55799   0.00000  Uiso   1.00
C331   C     0.01014   0.10011   0.54568   0.00000  Uiso   1.00
C332   C     0.67353   0.11763   0.64592   0.00000  Uiso   1.00
C333   C     0.62998   0.04373   0.65862   0.00000  Uiso   1.00
C334   C     0.62155   0.02647   0.70737   0.00000  Uiso   1.00
C335   C     0.59061   0.96982   0.78152   0.00000  Uiso   1.00
C336   C     0.75263   0.24947   0.65876   0.00000  Uiso   1.00
C337   C     0.70108   0.30395   0.62674   0.00000  Uiso   1.00
C338   C     0.68734   0.39748   0.63014   0.00000  Uiso   1.00
C339   C     0.63839   0.43440   0.59749   0.00000  Uiso   1.00
C340   C     0.80653   0.20310   0.62500   0.00000  Uiso   1.00
C341   C     0.88145   0.21181   0.62692   0.00000  Uiso   1.00
C342   C     0.92128   0.16382   0.59282   0.00000  Uiso   1.00
C343   C     0.70747   0.17234   0.68068   0.00000  Uiso   1.00
C344   C     0.69912   0.15519   0.72943   0.00000  Uiso   1.00
C345   C     0.65556   0.08128   0.74220   0.00000  Uiso   1.00
H346   H     0.66372   0.10615   0.56770   0.00000  Uiso   1.00
H347   H     0.59195   0.24367   0.53243   0.00000  Uiso   1.00
H348   H     0.78604   0.05802   0.52922   0.00000  Uiso   1.00
H349   H     0.60372   0.00141   0.63171   0.00000  Uiso   1.00
H350   H     0.52737   0.42027   0.50865   0.00000  Uiso   1.00
H351   H     0.93661   0.02880   0.50190   0.00000  Uiso   1.00
H352   H     0.55217   0.90942   0.71801   0.00000  Uiso   1.00
H353   H     0.77906   0.29207   0.68582   0.00000  Uiso   1.00
H354   H     0.71362   0.43980   0.65704   0.00000  Uiso   1.00
H355   H     0.90770   0.25415   0.65383   0.00000  Uiso   1.00
H356   H     0.72539   0.19754   0.75632   0.00000  Uiso   1.00
H357   H     0.62612   0.57946   0.60978   0.00000  Uiso   1.00
H358   H     0.03536   0.18799   0.60303   0.00000  Uiso   1.00
H359   H     0.65092   0.06861   0.81914   0.00000  Uiso   1.00
O360   O     0.53164   0.59370   0.53814   0.00000  Uiso   1.00
O361   O     0.06853   0.08009   0.52929   0.00000  Uiso   1.00
O362   O     0.56416   0.92347   0.81282   0.00000  Uiso   1.00
N363   N     0.55958   0.43746   0.53641   0.00000  Uiso   1.00
N364   N     0.94219   0.07147   0.53009   0.00000  Uiso   1.00
N365   N     0.58279   0.95984   0.73214   0.00000  Uiso   1.00
N366   N     0.61272   0.52312   0.59083   0.00000  Uiso   1.00
N367   N     0.99533   0.15713   0.58451   0.00000  Uiso   1.00
N368   N     0.63593   0.04550   0.78656   0.00000  Uiso   1.00
