data_job_02051
_audit_creation_date              2018-12-19
_audit_creation_method            'Materials Studio'
_symmetry_space_group_name_H-M    'P1'
_symmetry_Int_Tables_number       1
_symmetry_cell_setting            triclinic
loop_
_symmetry_equiv_pos_as_xyz
  x,y,z
_cell_length_a                    17.3668
_cell_length_b                    17.3668
_cell_length_c                    17.7149
_cell_angle_alpha                 90.0000
_cell_angle_beta                  90.0000
_cell_angle_gamma                 90.0000
loop_
_atom_site_label
_atom_site_type_symbol
_atom_site_fract_x
_atom_site_fract_y
_atom_site_fract_z
_atom_site_U_iso_or_equiv
_atom_site_adp_type
_atom_site_occupancy
C1     C     0.79810   0.08582   0.07703   0.00000  Uiso   1.00
C2     C     0.79860   0.02179   0.13593   0.00000  Uiso   1.00
C3     C     0.86370   0.98939   0.16841   0.00000  Uiso   1.00
C4     C     0.85200   0.93146   0.22118   0.00000  Uiso   1.00
C5     C     0.86406   0.83575   0.30965   0.00000  Uiso   1.00
C6     C     0.75321   0.05436   0.00978   0.00000  Uiso   1.00
C7     C     0.78015   0.04934   0.93619   0.00000  Uiso   1.00
C8     C     0.73023   0.01883   0.88277   0.00000  Uiso   1.00
C9     C     0.67181   0.97373   0.77537   0.00000  Uiso   1.00
C10    C     0.74891   0.15030   0.11002   0.00000  Uiso   1.00
C11    C     0.77222   0.22596   0.12069   0.00000  Uiso   1.00
C12    C     0.71868   0.27623   0.15166   0.00000  Uiso   1.00
C13    C     0.65358   0.38009   0.19990   0.00000  Uiso   1.00
C14    C     0.66155   0.04057   0.11301   0.00000  Uiso   1.00
C15    C     0.72443   0.99722   0.15548   0.00000  Uiso   1.00
C16    C     0.71263   0.93932   0.20822   0.00000  Uiso   1.00
C17    C     0.77770   0.90684   0.24077   0.00000  Uiso   1.00
C18    C     0.67905   0.02978   0.02932   0.00000  Uiso   1.00
C19    C     0.62907   0.99928   0.97600   0.00000  Uiso   1.00
C20    C     0.65593   0.99421   0.90235   0.00000  Uiso   1.00
C21    C     0.67474   0.12572   0.12957   0.00000  Uiso   1.00
C22    C     0.62115   0.17589   0.16051   0.00000  Uiso   1.00
C23    C     0.64438   0.25161   0.17124   0.00000  Uiso   1.00
H24    H     0.85584   0.10495   0.06180   0.00000  Uiso   1.00
H25    H     0.92109   0.00842   0.15326   0.00000  Uiso   1.00
H26    H     0.83755   0.06837   0.92107   0.00000  Uiso   1.00
H27    H     0.82962   0.24495   0.10556   0.00000  Uiso   1.00
H28    H     0.96072   0.89053   0.26325   0.00000  Uiso   1.00
H29    H     0.78456   0.01697   0.77368   0.00000  Uiso   1.00
H30    H     0.76785   0.38933   0.16269   0.00000  Uiso   1.00
H31    H     0.60381   0.02144   0.12823   0.00000  Uiso   1.00
H32    H     0.65522   0.92032   0.22334   0.00000  Uiso   1.00
H33    H     0.57168   0.98027   0.99115   0.00000  Uiso   1.00
H34    H     0.56376   0.15685   0.17563   0.00000  Uiso   1.00
H35    H     0.74494   0.81902   0.32013   0.00000  Uiso   1.00
H36    H     0.56877   0.94546   0.83055   0.00000  Uiso   1.00
H37    H     0.55206   0.31782   0.21957   0.00000  Uiso   1.00
O38    O     0.89120   0.78975   0.35304   0.00000  Uiso   1.00
O39    O     0.66008   0.95564   0.71073   0.00000  Uiso   1.00
O40    O     0.63816   0.44417   0.22112   0.00000  Uiso   1.00
N41    N     0.90288   0.88759   0.26360   0.00000  Uiso   1.00
N42    N     0.73818   0.00579   0.80587   0.00000  Uiso   1.00
N43    N     0.72255   0.35392   0.16956   0.00000  Uiso   1.00
N44    N     0.78677   0.84911   0.29420   0.00000  Uiso   1.00
N45    N     0.62207   0.96731   0.83648   0.00000  Uiso   1.00
N46    N     0.60644   0.31545   0.20016   0.00000  Uiso   1.00
C47    C     0.20190   0.91418   0.07703   0.00000  Uiso   1.00
C48    C     0.20140   0.97821   0.13593   0.00000  Uiso   1.00
C49    C     0.13630   0.01061   0.16841   0.00000  Uiso   1.00
C50    C     0.14800   0.06854   0.22118   0.00000  Uiso   1.00
C51    C     0.13594   0.16425   0.30965   0.00000  Uiso   1.00
C52    C     0.24679   0.94564   0.00978   0.00000  Uiso   1.00
C53    C     0.21985   0.95066   0.93619   0.00000  Uiso   1.00
C54    C     0.26977   0.98117   0.88277   0.00000  Uiso   1.00
C55    C     0.32819   0.02627   0.77537   0.00000  Uiso   1.00
C56    C     0.25109   0.84970   0.11002   0.00000  Uiso   1.00
C57    C     0.22778   0.77404   0.12069   0.00000  Uiso   1.00
C58    C     0.28132   0.72377   0.15166   0.00000  Uiso   1.00
C59    C     0.34642   0.61991   0.19990   0.00000  Uiso   1.00
C60    C     0.33845   0.95943   0.11301   0.00000  Uiso   1.00
C61    C     0.27557   0.00278   0.15548   0.00000  Uiso   1.00
C62    C     0.28737   0.06068   0.20822   0.00000  Uiso   1.00
C63    C     0.22230   0.09316   0.24077   0.00000  Uiso   1.00
C64    C     0.32095   0.97022   0.02932   0.00000  Uiso   1.00
C65    C     0.37093   0.00072   0.97600   0.00000  Uiso   1.00
C66    C     0.34407   0.00579   0.90235   0.00000  Uiso   1.00
C67    C     0.32526   0.87428   0.12957   0.00000  Uiso   1.00
C68    C     0.37885   0.82411   0.16051   0.00000  Uiso   1.00
C69    C     0.35562   0.74839   0.17124   0.00000  Uiso   1.00
H70    H     0.14416   0.89505   0.06180   0.00000  Uiso   1.00
H71    H     0.07891   0.99158   0.15326   0.00000  Uiso   1.00
H72    H     0.16245   0.93163   0.92107   0.00000  Uiso   1.00
H73    H     0.17038   0.75505   0.10556   0.00000  Uiso   1.00
H74    H     0.03928   0.10947   0.26325   0.00000  Uiso   1.00
H75    H     0.21544   0.98303   0.77368   0.00000  Uiso   1.00
H76    H     0.23215   0.61067   0.16269   0.00000  Uiso   1.00
H77    H     0.39619   0.97856   0.12823   0.00000  Uiso   1.00
H78    H     0.34478   0.07968   0.22334   0.00000  Uiso   1.00
H79    H     0.42832   0.01973   0.99115   0.00000  Uiso   1.00
H80    H     0.43624   0.84315   0.17563   0.00000  Uiso   1.00
H81    H     0.25506   0.18098   0.32013   0.00000  Uiso   1.00
H82    H     0.43123   0.05454   0.83055   0.00000  Uiso   1.00
H83    H     0.44794   0.68218   0.21957   0.00000  Uiso   1.00
O84    O     0.10880   0.21025   0.35304   0.00000  Uiso   1.00
O85    O     0.33992   0.04436   0.71073   0.00000  Uiso   1.00
O86    O     0.36184   0.55583   0.22112   0.00000  Uiso   1.00
N87    N     0.09712   0.11241   0.26360   0.00000  Uiso   1.00
N88    N     0.26182   0.99421   0.80587   0.00000  Uiso   1.00
N89    N     0.27745   0.64608   0.16956   0.00000  Uiso   1.00
N90    N     0.21323   0.15089   0.29420   0.00000  Uiso   1.00
N91    N     0.37793   0.03269   0.83648   0.00000  Uiso   1.00
N92    N     0.39356   0.68455   0.20016   0.00000  Uiso   1.00
C93    C     0.08582   0.20190   0.92297   0.00000  Uiso   1.00
C94    C     0.02179   0.20140   0.86407   0.00000  Uiso   1.00
C95    C     0.98939   0.13630   0.83159   0.00000  Uiso   1.00
C96    C     0.93146   0.14800   0.77882   0.00000  Uiso   1.00
C97    C     0.83575   0.13594   0.69035   0.00000  Uiso   1.00
C98    C     0.05436   0.24679   0.99022   0.00000  Uiso   1.00
C99    C     0.04934   0.21985   0.06381   0.00000  Uiso   1.00
C100   C     0.01883   0.26977   0.11723   0.00000  Uiso   1.00
C101   C     0.97373   0.32819   0.22463   0.00000  Uiso   1.00
C102   C     0.15030   0.25109   0.88998   0.00000  Uiso   1.00
C103   C     0.22596   0.22778   0.87931   0.00000  Uiso   1.00
C104   C     0.27623   0.28132   0.84834   0.00000  Uiso   1.00
C105   C     0.38009   0.34642   0.80010   0.00000  Uiso   1.00
C106   C     0.04057   0.33845   0.88699   0.00000  Uiso   1.00
C107   C     0.99722   0.27557   0.84452   0.00000  Uiso   1.00
C108   C     0.93932   0.28737   0.79178   0.00000  Uiso   1.00
C109   C     0.90684   0.22230   0.75923   0.00000  Uiso   1.00
C110   C     0.02978   0.32095   0.97068   0.00000  Uiso   1.00
C111   C     0.99928   0.37093   0.02400   0.00000  Uiso   1.00
C112   C     0.99421   0.34407   0.09765   0.00000  Uiso   1.00
C113   C     0.12572   0.32526   0.87043   0.00000  Uiso   1.00
C114   C     0.17589   0.37885   0.83949   0.00000  Uiso   1.00
C115   C     0.25161   0.35562   0.82876   0.00000  Uiso   1.00
H116   H     0.10495   0.14416   0.93820   0.00000  Uiso   1.00
H117   H     0.00842   0.07891   0.84674   0.00000  Uiso   1.00
H118   H     0.06837   0.16245   0.07893   0.00000  Uiso   1.00
H119   H     0.24495   0.17038   0.89444   0.00000  Uiso   1.00
H120   H     0.89053   0.03928   0.73675   0.00000  Uiso   1.00
H121   H     0.01697   0.21544   0.22632   0.00000  Uiso   1.00
H122   H     0.38933   0.23215   0.83731   0.00000  Uiso   1.00
H123   H     0.02144   0.39619   0.87177   0.00000  Uiso   1.00
H124   H     0.92032   0.34478   0.77666   0.00000  Uiso   1.00
H125   H     0.98027   0.42832   0.00885   0.00000  Uiso   1.00
H126   H     0.15685   0.43624   0.82437   0.00000  Uiso   1.00
H127   H     0.81902   0.25506   0.67987   0.00000  Uiso   1.00
H128   H     0.94546   0.43123   0.16945   0.00000  Uiso   1.00
H129   H     0.31782   0.44794   0.78043   0.00000  Uiso   1.00
O130   O     0.78975   0.10880   0.64696   0.00000  Uiso   1.00
O131   O     0.95564   0.33992   0.28927   0.00000  Uiso   1.00
O132   O     0.44417   0.36184   0.77888   0.00000  Uiso   1.00
N133   N     0.88759   0.09712   0.73640   0.00000  Uiso   1.00
N134   N     0.00579   0.26182   0.19413   0.00000  Uiso   1.00
N135   N     0.35392   0.27745   0.83044   0.00000  Uiso   1.00
N136   N     0.84911   0.21323   0.70580   0.00000  Uiso   1.00
N137   N     0.96731   0.37793   0.16352   0.00000  Uiso   1.00
N138   N     0.31545   0.39356   0.79984   0.00000  Uiso   1.00
C139   C     0.91418   0.79810   0.92297   0.00000  Uiso   1.00
C140   C     0.97821   0.79860   0.86407   0.00000  Uiso   1.00
C141   C     0.01061   0.86370   0.83159   0.00000  Uiso   1.00
C142   C     0.06854   0.85200   0.77882   0.00000  Uiso   1.00
C143   C     0.16425   0.86406   0.69035   0.00000  Uiso   1.00
C144   C     0.94564   0.75321   0.99022   0.00000  Uiso   1.00
C145   C     0.95066   0.78015   0.06381   0.00000  Uiso   1.00
C146   C     0.98117   0.73023   0.11723   0.00000  Uiso   1.00
C147   C     0.02627   0.67181   0.22463   0.00000  Uiso   1.00
C148   C     0.84970   0.74891   0.88998   0.00000  Uiso   1.00
C149   C     0.77404   0.77222   0.87931   0.00000  Uiso   1.00
C150   C     0.72377   0.71868   0.84834   0.00000  Uiso   1.00
C151   C     0.61991   0.65358   0.80010   0.00000  Uiso   1.00
C152   C     0.95943   0.66155   0.88699   0.00000  Uiso   1.00
C153   C     0.00278   0.72443   0.84452   0.00000  Uiso   1.00
C154   C     0.06068   0.71263   0.79178   0.00000  Uiso   1.00
C155   C     0.09316   0.77770   0.75923   0.00000  Uiso   1.00
C156   C     0.97022   0.67905   0.97068   0.00000  Uiso   1.00
C157   C     0.00072   0.62907   0.02400   0.00000  Uiso   1.00
C158   C     0.00579   0.65593   0.09765   0.00000  Uiso   1.00
C159   C     0.87428   0.67474   0.87043   0.00000  Uiso   1.00
C160   C     0.82411   0.62115   0.83949   0.00000  Uiso   1.00
C161   C     0.74839   0.64438   0.82876   0.00000  Uiso   1.00
H162   H     0.89505   0.85584   0.93820   0.00000  Uiso   1.00
H163   H     0.99158   0.92109   0.84674   0.00000  Uiso   1.00
H164   H     0.93163   0.83755   0.07893   0.00000  Uiso   1.00
H165   H     0.75505   0.82962   0.89444   0.00000  Uiso   1.00
H166   H     0.10947   0.96072   0.73675   0.00000  Uiso   1.00
H167   H     0.98303   0.78456   0.22632   0.00000  Uiso   1.00
H168   H     0.61067   0.76785   0.83731   0.00000  Uiso   1.00
H169   H     0.97856   0.60381   0.87177   0.00000  Uiso   1.00
H170   H     0.07968   0.65522   0.77666   0.00000  Uiso   1.00
H171   H     0.01973   0.57168   0.00885   0.00000  Uiso   1.00
H172   H     0.84315   0.56376   0.82437   0.00000  Uiso   1.00
H173   H     0.18098   0.74494   0.67987   0.00000  Uiso   1.00
H174   H     0.05454   0.56877   0.16945   0.00000  Uiso   1.00
H175   H     0.68218   0.55206   0.78043   0.00000  Uiso   1.00
O176   O     0.21025   0.89120   0.64696   0.00000  Uiso   1.00
O177   O     0.04436   0.66008   0.28927   0.00000  Uiso   1.00
O178   O     0.55583   0.63816   0.77888   0.00000  Uiso   1.00
N179   N     0.11241   0.90288   0.73640   0.00000  Uiso   1.00
N180   N     0.99421   0.73818   0.19413   0.00000  Uiso   1.00
N181   N     0.64608   0.72255   0.83044   0.00000  Uiso   1.00
N182   N     0.15089   0.78677   0.70580   0.00000  Uiso   1.00
N183   N     0.03269   0.62207   0.16352   0.00000  Uiso   1.00
N184   N     0.68455   0.60644   0.79984   0.00000  Uiso   1.00
C185   C     0.29810   0.41418   0.57703   0.00000  Uiso   1.00
C186   C     0.29860   0.47821   0.63593   0.00000  Uiso   1.00
C187   C     0.36370   0.51061   0.66841   0.00000  Uiso   1.00
C188   C     0.35200   0.56854   0.72118   0.00000  Uiso   1.00
C189   C     0.36406   0.66425   0.80965   0.00000  Uiso   1.00
C190   C     0.25321   0.44564   0.50978   0.00000  Uiso   1.00
C191   C     0.28015   0.45066   0.43619   0.00000  Uiso   1.00
C192   C     0.23023   0.48117   0.38277   0.00000  Uiso   1.00
C193   C     0.17181   0.52627   0.27537   0.00000  Uiso   1.00
C194   C     0.24891   0.34970   0.61002   0.00000  Uiso   1.00
C195   C     0.27222   0.27404   0.62069   0.00000  Uiso   1.00
C196   C     0.21868   0.22377   0.65166   0.00000  Uiso   1.00
C197   C     0.15358   0.11991   0.69990   0.00000  Uiso   1.00
C198   C     0.16155   0.45943   0.61301   0.00000  Uiso   1.00
C199   C     0.22443   0.50278   0.65548   0.00000  Uiso   1.00
C200   C     0.21263   0.56068   0.70822   0.00000  Uiso   1.00
C201   C     0.27770   0.59316   0.74077   0.00000  Uiso   1.00
C202   C     0.17905   0.47022   0.52932   0.00000  Uiso   1.00
C203   C     0.12907   0.50072   0.47600   0.00000  Uiso   1.00
C204   C     0.15593   0.50579   0.40235   0.00000  Uiso   1.00
C205   C     0.17474   0.37428   0.62957   0.00000  Uiso   1.00
C206   C     0.12115   0.32411   0.66051   0.00000  Uiso   1.00
C207   C     0.14438   0.24839   0.67124   0.00000  Uiso   1.00
H208   H     0.35584   0.39505   0.56180   0.00000  Uiso   1.00
H209   H     0.42109   0.49158   0.65326   0.00000  Uiso   1.00
H210   H     0.33755   0.43163   0.42107   0.00000  Uiso   1.00
H211   H     0.32962   0.25505   0.60556   0.00000  Uiso   1.00
H212   H     0.46072   0.60947   0.76325   0.00000  Uiso   1.00
H213   H     0.28456   0.48303   0.27368   0.00000  Uiso   1.00
H214   H     0.26785   0.11067   0.66269   0.00000  Uiso   1.00
H215   H     0.10381   0.47856   0.62823   0.00000  Uiso   1.00
H216   H     0.15522   0.57968   0.72334   0.00000  Uiso   1.00
H217   H     0.07168   0.51973   0.49115   0.00000  Uiso   1.00
H218   H     0.06376   0.34315   0.67563   0.00000  Uiso   1.00
H219   H     0.24494   0.68098   0.82013   0.00000  Uiso   1.00
H220   H     0.06877   0.55454   0.33055   0.00000  Uiso   1.00
H221   H     0.05206   0.18218   0.71957   0.00000  Uiso   1.00
O222   O     0.39120   0.71025   0.85304   0.00000  Uiso   1.00
O223   O     0.16008   0.54436   0.21073   0.00000  Uiso   1.00
O224   O     0.13816   0.05583   0.72112   0.00000  Uiso   1.00
N225   N     0.40288   0.61241   0.76360   0.00000  Uiso   1.00
N226   N     0.23818   0.49421   0.30587   0.00000  Uiso   1.00
N227   N     0.22255   0.14608   0.66956   0.00000  Uiso   1.00
N228   N     0.28677   0.65089   0.79420   0.00000  Uiso   1.00
N229   N     0.12207   0.53269   0.33648   0.00000  Uiso   1.00
N230   N     0.10644   0.18455   0.70016   0.00000  Uiso   1.00
C231   C     0.70190   0.58582   0.57703   0.00000  Uiso   1.00
C232   C     0.70140   0.52179   0.63593   0.00000  Uiso   1.00
C233   C     0.63630   0.48939   0.66841   0.00000  Uiso   1.00
C234   C     0.64800   0.43146   0.72118   0.00000  Uiso   1.00
C235   C     0.63594   0.33575   0.80965   0.00000  Uiso   1.00
C236   C     0.74679   0.55436   0.50978   0.00000  Uiso   1.00
C237   C     0.71985   0.54934   0.43619   0.00000  Uiso   1.00
C238   C     0.76977   0.51883   0.38277   0.00000  Uiso   1.00
C239   C     0.82819   0.47373   0.27537   0.00000  Uiso   1.00
C240   C     0.75109   0.65030   0.61002   0.00000  Uiso   1.00
C241   C     0.72778   0.72596   0.62069   0.00000  Uiso   1.00
C242   C     0.78132   0.77623   0.65166   0.00000  Uiso   1.00
C243   C     0.84642   0.88009   0.69990   0.00000  Uiso   1.00
C244   C     0.83845   0.54057   0.61301   0.00000  Uiso   1.00
C245   C     0.77557   0.49722   0.65548   0.00000  Uiso   1.00
C246   C     0.78737   0.43932   0.70822   0.00000  Uiso   1.00
C247   C     0.72230   0.40684   0.74077   0.00000  Uiso   1.00
C248   C     0.82095   0.52978   0.52932   0.00000  Uiso   1.00
C249   C     0.87093   0.49928   0.47600   0.00000  Uiso   1.00
C250   C     0.84407   0.49421   0.40235   0.00000  Uiso   1.00
C251   C     0.82526   0.62572   0.62957   0.00000  Uiso   1.00
C252   C     0.87885   0.67589   0.66051   0.00000  Uiso   1.00
C253   C     0.85562   0.75161   0.67124   0.00000  Uiso   1.00
H254   H     0.64416   0.60495   0.56180   0.00000  Uiso   1.00
H255   H     0.57891   0.50842   0.65326   0.00000  Uiso   1.00
H256   H     0.66245   0.56837   0.42107   0.00000  Uiso   1.00
H257   H     0.67038   0.74495   0.60556   0.00000  Uiso   1.00
H258   H     0.53928   0.39053   0.76325   0.00000  Uiso   1.00
H259   H     0.71544   0.51697   0.27368   0.00000  Uiso   1.00
H260   H     0.73215   0.88933   0.66269   0.00000  Uiso   1.00
H261   H     0.89619   0.52144   0.62823   0.00000  Uiso   1.00
H262   H     0.84478   0.42032   0.72334   0.00000  Uiso   1.00
H263   H     0.92832   0.48027   0.49115   0.00000  Uiso   1.00
H264   H     0.93624   0.65685   0.67563   0.00000  Uiso   1.00
H265   H     0.75506   0.31902   0.82013   0.00000  Uiso   1.00
H266   H     0.93123   0.44546   0.33055   0.00000  Uiso   1.00
H267   H     0.94794   0.81782   0.71957   0.00000  Uiso   1.00
O268   O     0.60880   0.28975   0.85304   0.00000  Uiso   1.00
O269   O     0.83992   0.45564   0.21073   0.00000  Uiso   1.00
O270   O     0.86184   0.94417   0.72112   0.00000  Uiso   1.00
N271   N     0.59712   0.38759   0.76360   0.00000  Uiso   1.00
N272   N     0.76182   0.50579   0.30587   0.00000  Uiso   1.00
N273   N     0.77745   0.85392   0.66956   0.00000  Uiso   1.00
N274   N     0.71323   0.34911   0.79420   0.00000  Uiso   1.00
N275   N     0.87793   0.46731   0.33648   0.00000  Uiso   1.00
N276   N     0.89356   0.81545   0.70016   0.00000  Uiso   1.00
C277   C     0.58582   0.29810   0.42297   0.00000  Uiso   1.00
C278   C     0.52179   0.29860   0.36407   0.00000  Uiso   1.00
C279   C     0.48939   0.36370   0.33159   0.00000  Uiso   1.00
C280   C     0.43146   0.35200   0.27882   0.00000  Uiso   1.00
C281   C     0.33575   0.36406   0.19035   0.00000  Uiso   1.00
C282   C     0.55436   0.25321   0.49022   0.00000  Uiso   1.00
C283   C     0.54934   0.28015   0.56381   0.00000  Uiso   1.00
C284   C     0.51883   0.23023   0.61723   0.00000  Uiso   1.00
C285   C     0.47373   0.17181   0.72463   0.00000  Uiso   1.00
C286   C     0.65030   0.24891   0.38998   0.00000  Uiso   1.00
C287   C     0.72596   0.27222   0.37931   0.00000  Uiso   1.00
C288   C     0.77623   0.21868   0.34834   0.00000  Uiso   1.00
C289   C     0.88009   0.15358   0.30010   0.00000  Uiso   1.00
C290   C     0.54057   0.16155   0.38699   0.00000  Uiso   1.00
C291   C     0.49722   0.22443   0.34452   0.00000  Uiso   1.00
C292   C     0.43932   0.21263   0.29178   0.00000  Uiso   1.00
C293   C     0.40684   0.27770   0.25923   0.00000  Uiso   1.00
C294   C     0.52978   0.17905   0.47068   0.00000  Uiso   1.00
C295   C     0.49928   0.12907   0.52400   0.00000  Uiso   1.00
C296   C     0.49421   0.15593   0.59765   0.00000  Uiso   1.00
C297   C     0.62572   0.17474   0.37043   0.00000  Uiso   1.00
C298   C     0.67589   0.12115   0.33949   0.00000  Uiso   1.00
C299   C     0.75161   0.14438   0.32876   0.00000  Uiso   1.00
H300   H     0.60495   0.35584   0.43820   0.00000  Uiso   1.00
H301   H     0.50842   0.42109   0.34674   0.00000  Uiso   1.00
H302   H     0.56837   0.33755   0.57893   0.00000  Uiso   1.00
H303   H     0.74495   0.32962   0.39444   0.00000  Uiso   1.00
H304   H     0.39053   0.46072   0.23675   0.00000  Uiso   1.00
H305   H     0.51697   0.28456   0.72632   0.00000  Uiso   1.00
H306   H     0.88933   0.26785   0.33731   0.00000  Uiso   1.00
H307   H     0.52144   0.10381   0.37177   0.00000  Uiso   1.00
H308   H     0.42032   0.15522   0.27666   0.00000  Uiso   1.00
H309   H     0.48027   0.07168   0.50885   0.00000  Uiso   1.00
H310   H     0.65685   0.06376   0.32437   0.00000  Uiso   1.00
H311   H     0.31902   0.24494   0.17987   0.00000  Uiso   1.00
H312   H     0.44546   0.06877   0.66945   0.00000  Uiso   1.00
H313   H     0.81782   0.05206   0.28043   0.00000  Uiso   1.00
O314   O     0.28975   0.39120   0.14696   0.00000  Uiso   1.00
O315   O     0.45564   0.16008   0.78927   0.00000  Uiso   1.00
O316   O     0.94417   0.13816   0.27888   0.00000  Uiso   1.00
N317   N     0.38759   0.40288   0.23640   0.00000  Uiso   1.00
N318   N     0.50579   0.23818   0.69413   0.00000  Uiso   1.00
N319   N     0.85392   0.22255   0.33044   0.00000  Uiso   1.00
N320   N     0.34911   0.28677   0.20580   0.00000  Uiso   1.00
N321   N     0.46731   0.12207   0.66352   0.00000  Uiso   1.00
N322   N     0.81545   0.10644   0.29984   0.00000  Uiso   1.00
C323   C     0.41418   0.70190   0.42297   0.00000  Uiso   1.00
C324   C     0.47821   0.70140   0.36407   0.00000  Uiso   1.00
C325   C     0.51061   0.63630   0.33159   0.00000  Uiso   1.00
C326   C     0.56854   0.64800   0.27882   0.00000  Uiso   1.00
C327   C     0.66425   0.63594   0.19035   0.00000  Uiso   1.00
C328   C     0.44564   0.74679   0.49022   0.00000  Uiso   1.00
C329   C     0.45066   0.71985   0.56381   0.00000  Uiso   1.00
C330   C     0.48117   0.76977   0.61723   0.00000  Uiso   1.00
C331   C     0.52627   0.82819   0.72463   0.00000  Uiso   1.00
C332   C     0.34970   0.75109   0.38998   0.00000  Uiso   1.00
C333   C     0.27404   0.72778   0.37931   0.00000  Uiso   1.00
C334   C     0.22377   0.78132   0.34834   0.00000  Uiso   1.00
C335   C     0.11991   0.84642   0.30010   0.00000  Uiso   1.00
C336   C     0.45943   0.83845   0.38699   0.00000  Uiso   1.00
C337   C     0.50278   0.77557   0.34452   0.00000  Uiso   1.00
C338   C     0.56068   0.78737   0.29178   0.00000  Uiso   1.00
C339   C     0.59316   0.72230   0.25923   0.00000  Uiso   1.00
C340   C     0.47022   0.82095   0.47068   0.00000  Uiso   1.00
C341   C     0.50072   0.87093   0.52400   0.00000  Uiso   1.00
C342   C     0.50579   0.84407   0.59765   0.00000  Uiso   1.00
C343   C     0.37428   0.82526   0.37043   0.00000  Uiso   1.00
C344   C     0.32411   0.87885   0.33949   0.00000  Uiso   1.00
C345   C     0.24839   0.85562   0.32876   0.00000  Uiso   1.00
H346   H     0.39505   0.64416   0.43820   0.00000  Uiso   1.00
H347   H     0.49158   0.57891   0.34674   0.00000  Uiso   1.00
H348   H     0.43163   0.66245   0.57893   0.00000  Uiso   1.00
H349   H     0.25505   0.67038   0.39444   0.00000  Uiso   1.00
H350   H     0.60947   0.53928   0.23675   0.00000  Uiso   1.00
H351   H     0.48303   0.71544   0.72632   0.00000  Uiso   1.00
H352   H     0.11067   0.73215   0.33731   0.00000  Uiso   1.00
H353   H     0.47856   0.89619   0.37177   0.00000  Uiso   1.00
H354   H     0.57968   0.84478   0.27666   0.00000  Uiso   1.00
H355   H     0.51973   0.92832   0.50885   0.00000  Uiso   1.00
H356   H     0.34315   0.93624   0.32437   0.00000  Uiso   1.00
H357   H     0.68098   0.75506   0.17987   0.00000  Uiso   1.00
H358   H     0.55454   0.93123   0.66945   0.00000  Uiso   1.00
H359   H     0.18218   0.94794   0.28043   0.00000  Uiso   1.00
O360   O     0.71025   0.60880   0.14696   0.00000  Uiso   1.00
O361   O     0.54436   0.83992   0.78927   0.00000  Uiso   1.00
O362   O     0.05583   0.86184   0.27888   0.00000  Uiso   1.00
N363   N     0.61241   0.59712   0.23640   0.00000  Uiso   1.00
N364   N     0.49421   0.76182   0.69413   0.00000  Uiso   1.00
N365   N     0.14608   0.77745   0.33044   0.00000  Uiso   1.00
N366   N     0.65089   0.71323   0.20580   0.00000  Uiso   1.00
N367   N     0.53269   0.87793   0.66352   0.00000  Uiso   1.00
N368   N     0.18455   0.89356   0.29984   0.00000  Uiso   1.00
