data_job_01752
_audit_creation_date              2018-12-19
_audit_creation_method            'Materials Studio'
_symmetry_space_group_name_H-M    'P1'
_symmetry_Int_Tables_number       1
_symmetry_cell_setting            triclinic
loop_
_symmetry_equiv_pos_as_xyz
  x,y,z
_cell_length_a                    12.4184
_cell_length_b                    14.0558
_cell_length_c                    14.6330
_cell_angle_alpha                 90.0000
_cell_angle_beta                  90.0000
_cell_angle_gamma                 90.0000
loop_
_atom_site_label
_atom_site_type_symbol
_atom_site_fract_x
_atom_site_fract_y
_atom_site_fract_z
_atom_site_U_iso_or_equiv
_atom_site_adp_type
_atom_site_occupancy
C1     C     0.49196   0.51432   0.98859   0.00000  Uiso   1.00
C2     C     0.38707   0.46611   0.01673   0.00000  Uiso   1.00
C3     C     0.32627   0.40538   0.96261   0.00000  Uiso   1.00
C4     C     0.23282   0.36859   0.00088   0.00000  Uiso   1.00
C5     C     0.07471   0.29023   0.03099   0.00000  Uiso   1.00
C6     C     0.47386   0.62076   0.00168   0.00000  Uiso   1.00
C7     C     0.48605   0.69006   0.93492   0.00000  Uiso   1.00
C8     C     0.46568   0.78346   0.96053   0.00000  Uiso   1.00
C9     C     0.44239   0.94521   0.96730   0.00000  Uiso   1.00
C10    C     0.57531   0.48534   0.05987   0.00000  Uiso   1.00
C11    C     0.67281   0.44079   0.04202   0.00000  Uiso   1.00
C12    C     0.73786   0.42019   0.11662   0.00000  Uiso   1.00
C13    C     0.87207   0.37168   0.21373   0.00000  Uiso   1.00
C14    C     0.43414   0.55697   0.15278   0.00000  Uiso   1.00
C15    C     0.35567   0.48928   0.10591   0.00000  Uiso   1.00
C16    C     0.26229   0.45256   0.14427   0.00000  Uiso   1.00
C17    C     0.20136   0.39179   0.09022   0.00000  Uiso   1.00
C18    C     0.44246   0.64393   0.09086   0.00000  Uiso   1.00
C19    C     0.42207   0.73724   0.11658   0.00000  Uiso   1.00
C20    C     0.43421   0.80667   0.04987   0.00000  Uiso   1.00
C21    C     0.54390   0.50850   0.14905   0.00000  Uiso   1.00
C22    C     0.60882   0.48797   0.22368   0.00000  Uiso   1.00
C23    C     0.70639   0.44340   0.20596   0.00000  Uiso   1.00
H24    H     0.51641   0.49629   0.91916   0.00000  Uiso   1.00
H25    H     0.35060   0.38747   0.89359   0.00000  Uiso   1.00
H26    H     0.51037   0.67211   0.86591   0.00000  Uiso   1.00
H27    H     0.69708   0.42288   0.97300   0.00000  Uiso   1.00
H28    H     0.15289   0.27707   0.90457   0.00000  Uiso   1.00
H29    H     0.48980   0.87725   0.84621   0.00000  Uiso   1.00
H30    H     0.88354   0.35169   0.07203   0.00000  Uiso   1.00
H31    H     0.40968   0.57501   0.22221   0.00000  Uiso   1.00
H32    H     0.23800   0.47050   0.21329   0.00000  Uiso   1.00
H33    H     0.39777   0.75514   0.18560   0.00000  Uiso   1.00
H34    H     0.58449   0.50591   0.29269   0.00000  Uiso   1.00
H35    H     0.06150   0.34446   0.16405   0.00000  Uiso   1.00
H36    H     0.39842   0.94464   0.10568   0.00000  Uiso   1.00
H37    H     0.79215   0.41909   0.33150   0.00000  Uiso   1.00
O38    O     0.99617   0.24063   0.02296   0.00000  Uiso   1.00
O39    O     0.43821   0.02803   0.94639   0.00000  Uiso   1.00
O40    O     0.95477   0.33852   0.24266   0.00000  Uiso   1.00
N41    N     0.15495   0.30726   0.96687   0.00000  Uiso   1.00
N42    N     0.46993   0.86839   0.91230   0.00000  Uiso   1.00
N43    N     0.83805   0.37706   0.12342   0.00000  Uiso   1.00
N44    N     0.10578   0.34352   0.10649   0.00000  Uiso   1.00
N45    N     0.42075   0.90465   0.05192   0.00000  Uiso   1.00
N46    N     0.78888   0.41332   0.26304   0.00000  Uiso   1.00
C47    C     0.50804   0.48568   0.48859   0.00000  Uiso   1.00
C48    C     0.61293   0.53389   0.51673   0.00000  Uiso   1.00
C49    C     0.67373   0.59462   0.46261   0.00000  Uiso   1.00
C50    C     0.76718   0.63141   0.50088   0.00000  Uiso   1.00
C51    C     0.92529   0.70977   0.53099   0.00000  Uiso   1.00
C52    C     0.52614   0.37924   0.50168   0.00000  Uiso   1.00
C53    C     0.51395   0.30994   0.43492   0.00000  Uiso   1.00
C54    C     0.53432   0.21654   0.46053   0.00000  Uiso   1.00
C55    C     0.55761   0.05479   0.46730   0.00000  Uiso   1.00
C56    C     0.42469   0.51466   0.55987   0.00000  Uiso   1.00
C57    C     0.32719   0.55921   0.54202   0.00000  Uiso   1.00
C58    C     0.26214   0.57981   0.61662   0.00000  Uiso   1.00
C59    C     0.12793   0.62832   0.71373   0.00000  Uiso   1.00
C60    C     0.56586   0.44303   0.65278   0.00000  Uiso   1.00
C61    C     0.64433   0.51072   0.60591   0.00000  Uiso   1.00
C62    C     0.73771   0.54744   0.64427   0.00000  Uiso   1.00
C63    C     0.79864   0.60821   0.59022   0.00000  Uiso   1.00
C64    C     0.55754   0.35607   0.59086   0.00000  Uiso   1.00
C65    C     0.57793   0.26276   0.61658   0.00000  Uiso   1.00
C66    C     0.56579   0.19333   0.54987   0.00000  Uiso   1.00
C67    C     0.45610   0.49150   0.64905   0.00000  Uiso   1.00
C68    C     0.39118   0.51203   0.72368   0.00000  Uiso   1.00
C69    C     0.29361   0.55660   0.70596   0.00000  Uiso   1.00
H70    H     0.48359   0.50371   0.41916   0.00000  Uiso   1.00
H71    H     0.64940   0.61253   0.39359   0.00000  Uiso   1.00
H72    H     0.48963   0.32789   0.36591   0.00000  Uiso   1.00
H73    H     0.30292   0.57712   0.47300   0.00000  Uiso   1.00
H74    H     0.84711   0.72293   0.40457   0.00000  Uiso   1.00
H75    H     0.51020   0.12275   0.34621   0.00000  Uiso   1.00
H76    H     0.11646   0.64831   0.57203   0.00000  Uiso   1.00
H77    H     0.59032   0.42499   0.72221   0.00000  Uiso   1.00
H78    H     0.76200   0.52950   0.71329   0.00000  Uiso   1.00
H79    H     0.60223   0.24486   0.68560   0.00000  Uiso   1.00
H80    H     0.41551   0.49409   0.79269   0.00000  Uiso   1.00
H81    H     0.93850   0.65554   0.66405   0.00000  Uiso   1.00
H82    H     0.60158   0.05536   0.60568   0.00000  Uiso   1.00
H83    H     0.20785   0.58091   0.83150   0.00000  Uiso   1.00
O84    O     0.00383   0.75937   0.52296   0.00000  Uiso   1.00
O85    O     0.56179   0.97197   0.44639   0.00000  Uiso   1.00
O86    O     0.04523   0.66148   0.74266   0.00000  Uiso   1.00
N87    N     0.84505   0.69274   0.46687   0.00000  Uiso   1.00
N88    N     0.53007   0.13161   0.41230   0.00000  Uiso   1.00
N89    N     0.16195   0.62294   0.62342   0.00000  Uiso   1.00
N90    N     0.89422   0.65648   0.60649   0.00000  Uiso   1.00
N91    N     0.57925   0.09535   0.55192   0.00000  Uiso   1.00
N92    N     0.21112   0.58668   0.76304   0.00000  Uiso   1.00
C93    C     0.99196   0.98568   0.98859   0.00000  Uiso   1.00
C94    C     0.88707   0.03389   0.01673   0.00000  Uiso   1.00
C95    C     0.82627   0.09462   0.96261   0.00000  Uiso   1.00
C96    C     0.73282   0.13141   0.00088   0.00000  Uiso   1.00
C97    C     0.57471   0.20977   0.03099   0.00000  Uiso   1.00
C98    C     0.97386   0.87924   0.00168   0.00000  Uiso   1.00
C99    C     0.98605   0.80994   0.93492   0.00000  Uiso   1.00
C100   C     0.96568   0.71654   0.96053   0.00000  Uiso   1.00
C101   C     0.94239   0.55479   0.96730   0.00000  Uiso   1.00
C102   C     0.07531   0.01466   0.05987   0.00000  Uiso   1.00
C103   C     0.17281   0.05921   0.04202   0.00000  Uiso   1.00
C104   C     0.23786   0.07981   0.11662   0.00000  Uiso   1.00
C105   C     0.37207   0.12832   0.21373   0.00000  Uiso   1.00
C106   C     0.93414   0.94303   0.15278   0.00000  Uiso   1.00
C107   C     0.85567   0.01072   0.10591   0.00000  Uiso   1.00
C108   C     0.76229   0.04744   0.14427   0.00000  Uiso   1.00
C109   C     0.70136   0.10821   0.09022   0.00000  Uiso   1.00
C110   C     0.94246   0.85607   0.09086   0.00000  Uiso   1.00
C111   C     0.92207   0.76276   0.11658   0.00000  Uiso   1.00
C112   C     0.93421   0.69333   0.04987   0.00000  Uiso   1.00
C113   C     0.04390   0.99150   0.14905   0.00000  Uiso   1.00
C114   C     0.10882   0.01203   0.22368   0.00000  Uiso   1.00
C115   C     0.20639   0.05660   0.20596   0.00000  Uiso   1.00
H116   H     0.01641   0.00371   0.91916   0.00000  Uiso   1.00
H117   H     0.85060   0.11253   0.89359   0.00000  Uiso   1.00
H118   H     0.01037   0.82789   0.86591   0.00000  Uiso   1.00
H119   H     0.19708   0.07712   0.97300   0.00000  Uiso   1.00
H120   H     0.65289   0.22293   0.90457   0.00000  Uiso   1.00
H121   H     0.98980   0.62275   0.84621   0.00000  Uiso   1.00
H122   H     0.38354   0.14831   0.07203   0.00000  Uiso   1.00
H123   H     0.90968   0.92499   0.22221   0.00000  Uiso   1.00
H124   H     0.73800   0.02950   0.21329   0.00000  Uiso   1.00
H125   H     0.89777   0.74486   0.18560   0.00000  Uiso   1.00
H126   H     0.08449   0.99409   0.29269   0.00000  Uiso   1.00
H127   H     0.56150   0.15554   0.16405   0.00000  Uiso   1.00
H128   H     0.89842   0.55536   0.10568   0.00000  Uiso   1.00
H129   H     0.29215   0.08091   0.33150   0.00000  Uiso   1.00
O130   O     0.49617   0.25937   0.02296   0.00000  Uiso   1.00
O131   O     0.93821   0.47197   0.94639   0.00000  Uiso   1.00
O132   O     0.45477   0.16148   0.24266   0.00000  Uiso   1.00
N133   N     0.65495   0.19274   0.96687   0.00000  Uiso   1.00
N134   N     0.96993   0.63161   0.91230   0.00000  Uiso   1.00
N135   N     0.33805   0.12294   0.12342   0.00000  Uiso   1.00
N136   N     0.60578   0.15648   0.10649   0.00000  Uiso   1.00
N137   N     0.92075   0.59535   0.05192   0.00000  Uiso   1.00
N138   N     0.28888   0.08668   0.26304   0.00000  Uiso   1.00
C139   C     0.00804   0.01432   0.48859   0.00000  Uiso   1.00
C140   C     0.11293   0.96611   0.51673   0.00000  Uiso   1.00
C141   C     0.17373   0.90538   0.46261   0.00000  Uiso   1.00
C142   C     0.26718   0.86859   0.50088   0.00000  Uiso   1.00
C143   C     0.42529   0.79023   0.53099   0.00000  Uiso   1.00
C144   C     0.02614   0.12076   0.50168   0.00000  Uiso   1.00
C145   C     0.01395   0.19006   0.43492   0.00000  Uiso   1.00
C146   C     0.03432   0.28346   0.46053   0.00000  Uiso   1.00
C147   C     0.05761   0.44521   0.46730   0.00000  Uiso   1.00
C148   C     0.92469   0.98534   0.55987   0.00000  Uiso   1.00
C149   C     0.82719   0.94079   0.54202   0.00000  Uiso   1.00
C150   C     0.76214   0.92019   0.61662   0.00000  Uiso   1.00
C151   C     0.62793   0.87168   0.71373   0.00000  Uiso   1.00
C152   C     0.06586   0.05697   0.65278   0.00000  Uiso   1.00
C153   C     0.14433   0.98928   0.60591   0.00000  Uiso   1.00
C154   C     0.23771   0.95256   0.64427   0.00000  Uiso   1.00
C155   C     0.29864   0.89179   0.59022   0.00000  Uiso   1.00
C156   C     0.05754   0.14393   0.59086   0.00000  Uiso   1.00
C157   C     0.07793   0.23724   0.61658   0.00000  Uiso   1.00
C158   C     0.06579   0.30667   0.54987   0.00000  Uiso   1.00
C159   C     0.95610   0.00850   0.64905   0.00000  Uiso   1.00
C160   C     0.89118   0.98797   0.72368   0.00000  Uiso   1.00
C161   C     0.79361   0.94340   0.70596   0.00000  Uiso   1.00
H162   H     0.98359   0.99629   0.41916   0.00000  Uiso   1.00
H163   H     0.14940   0.88747   0.39359   0.00000  Uiso   1.00
H164   H     0.98963   0.17211   0.36591   0.00000  Uiso   1.00
H165   H     0.80292   0.92288   0.47300   0.00000  Uiso   1.00
H166   H     0.34711   0.77707   0.40457   0.00000  Uiso   1.00
H167   H     0.01020   0.37725   0.34621   0.00000  Uiso   1.00
H168   H     0.61646   0.85169   0.57203   0.00000  Uiso   1.00
H169   H     0.09032   0.07501   0.72221   0.00000  Uiso   1.00
H170   H     0.26200   0.97050   0.71329   0.00000  Uiso   1.00
H171   H     0.10223   0.25514   0.68560   0.00000  Uiso   1.00
H172   H     0.91551   0.00591   0.79269   0.00000  Uiso   1.00
H173   H     0.43850   0.84446   0.66405   0.00000  Uiso   1.00
H174   H     0.10158   0.44464   0.60568   0.00000  Uiso   1.00
H175   H     0.70785   0.91909   0.83150   0.00000  Uiso   1.00
O176   O     0.50383   0.74063   0.52296   0.00000  Uiso   1.00
O177   O     0.06179   0.52803   0.44639   0.00000  Uiso   1.00
O178   O     0.54523   0.83852   0.74266   0.00000  Uiso   1.00
N179   N     0.34505   0.80726   0.46687   0.00000  Uiso   1.00
N180   N     0.03007   0.36839   0.41230   0.00000  Uiso   1.00
N181   N     0.66195   0.87706   0.62342   0.00000  Uiso   1.00
N182   N     0.39422   0.84352   0.60649   0.00000  Uiso   1.00
N183   N     0.07925   0.40465   0.55192   0.00000  Uiso   1.00
N184   N     0.71112   0.91332   0.76304   0.00000  Uiso   1.00
