data_job_00890
_audit_creation_date              2018-12-19
_audit_creation_method            'Materials Studio'
_symmetry_space_group_name_H-M    'P1'
_symmetry_Int_Tables_number       1
_symmetry_cell_setting            triclinic
loop_
_symmetry_equiv_pos_as_xyz
  x,y,z
_cell_length_a                    19.6668
_cell_length_b                    19.6668
_cell_length_c                    10.3585
_cell_angle_alpha                 90.0000
_cell_angle_beta                  90.0000
_cell_angle_gamma                 120.0000
loop_
_atom_site_label
_atom_site_type_symbol
_atom_site_fract_x
_atom_site_fract_y
_atom_site_fract_z
_atom_site_U_iso_or_equiv
_atom_site_adp_type
_atom_site_occupancy
C1     C     0.36998   0.11888   0.18130   0.00000  Uiso   1.00
C2     C     0.37194   0.06383   0.28301   0.00000  Uiso   1.00
C3     C     0.36669   0.07074   0.41547   0.00000  Uiso   1.00
C4     C     0.36965   0.01443   0.49230   0.00000  Uiso   1.00
C5     C     0.37153   0.93825   0.65842   0.00000  Uiso   1.00
C6     C     0.44518   0.14858   0.10283   0.00000  Uiso   1.00
C7     C     0.50150   0.22674   0.08378   0.00000  Uiso   1.00
C8     C     0.56611   0.24177   0.00892   0.00000  Uiso   1.00
C9     C     0.68167   0.29717   0.89523   0.00000  Uiso   1.00
C10    C     0.30283   0.06728   0.09014   0.00000  Uiso   1.00
C11    C     0.23947   0.07711   0.06039   0.00000  Uiso   1.00
C12    C     0.18423   0.02370   0.97482   0.00000  Uiso   1.00
C13    C     0.07877   0.95288   0.84143   0.00000  Uiso   1.00
C14    C     0.38458   0.00659   0.08219   0.00000  Uiso   1.00
C15    C     0.37988   0.00284   0.22917   0.00000  Uiso   1.00
C16    C     0.38284   0.94650   0.30582   0.00000  Uiso   1.00
C17    C     0.37759   0.95333   0.43837   0.00000  Uiso   1.00
C18    C     0.45312   0.08759   0.04899   0.00000  Uiso   1.00
C19    C     0.51766   0.10251   0.97413   0.00000  Uiso   1.00
C20    C     0.57406   0.18067   0.95499   0.00000  Uiso   1.00
C21    C     0.31076   0.00629   0.03630   0.00000  Uiso   1.00
C22    C     0.25562   0.95287   0.95075   0.00000  Uiso   1.00
C23    C     0.19218   0.96260   0.92088   0.00000  Uiso   1.00
H24    H     0.36381   0.16637   0.22320   0.00000  Uiso   1.00
H25    H     0.36056   0.11795   0.45709   0.00000  Uiso   1.00
H26    H     0.49534   0.27393   0.12544   0.00000  Uiso   1.00
H27    H     0.23335   0.12431   0.10207   0.00000  Uiso   1.00
H28    H     0.36048   0.03740   0.69267   0.00000  Uiso   1.00
H29    H     0.64466   0.36628   0.99333   0.00000  Uiso   1.00
H30    H     0.09220   0.05079   0.94403   0.00000  Uiso   1.00
H31    H     0.39076   0.95911   0.04027   0.00000  Uiso   1.00
H32    H     0.38898   0.89931   0.26413   0.00000  Uiso   1.00
H33    H     0.52377   0.05529   0.93248   0.00000  Uiso   1.00
H34    H     0.26178   0.90568   0.90911   0.00000  Uiso   1.00
H35    H     0.38356   0.85994   0.53606   0.00000  Uiso   1.00
H36    H     0.66774   0.18883   0.83671   0.00000  Uiso   1.00
H37    H     0.11528   0.87334   0.78742   0.00000  Uiso   1.00
O38    O     0.37039   0.91309   0.76493   0.00000  Uiso   1.00
O39    O     0.74322   0.34458   0.84741   0.00000  Uiso   1.00
O40    O     0.01840   0.93066   0.78273   0.00000  Uiso   1.00
N41    N     0.36614   0.00383   0.62509   0.00000  Uiso   1.00
N42    N     0.63184   0.31132   0.97127   0.00000  Uiso   1.00
N43    N     0.11534   0.01637   0.92515   0.00000  Uiso   1.00
N44    N     0.37855   0.90834   0.54081   0.00000  Uiso   1.00
N45    N     0.64426   0.21583   0.88699   0.00000  Uiso   1.00
N46    N     0.12776   0.92089   0.84088   0.00000  Uiso   1.00
C47    C     0.88112   0.25110   0.51463   0.00000  Uiso   1.00
C48    C     0.93617   0.30811   0.61634   0.00000  Uiso   1.00
C49    C     0.92926   0.29595   0.74880   0.00000  Uiso   1.00
C50    C     0.98557   0.35522   0.82563   0.00000  Uiso   1.00
C51    C     0.06175   0.43328   0.99176   0.00000  Uiso   1.00
C52    C     0.85142   0.29661   0.43616   0.00000  Uiso   1.00
C53    C     0.77326   0.27475   0.41712   0.00000  Uiso   1.00
C54    C     0.75823   0.32434   0.34225   0.00000  Uiso   1.00
C55    C     0.70283   0.38450   0.22856   0.00000  Uiso   1.00
C56    C     0.93272   0.23555   0.42347   0.00000  Uiso   1.00
C57    C     0.92289   0.16236   0.39372   0.00000  Uiso   1.00
C58    C     0.97630   0.16053   0.30815   0.00000  Uiso   1.00
C59    C     0.04712   0.12589   0.17476   0.00000  Uiso   1.00
C60    C     0.99341   0.37799   0.41552   0.00000  Uiso   1.00
C61    C     0.99716   0.37704   0.56250   0.00000  Uiso   1.00
C62    C     0.05350   0.43634   0.63915   0.00000  Uiso   1.00
C63    C     0.04667   0.42426   0.77171   0.00000  Uiso   1.00
C64    C     0.91241   0.36553   0.38233   0.00000  Uiso   1.00
C65    C     0.89749   0.41515   0.30746   0.00000  Uiso   1.00
C66    C     0.81933   0.39338   0.28832   0.00000  Uiso   1.00
C67    C     0.99371   0.30447   0.36964   0.00000  Uiso   1.00
C68    C     0.04713   0.30275   0.28408   0.00000  Uiso   1.00
C69    C     0.03740   0.22958   0.25422   0.00000  Uiso   1.00
H70    H     0.83363   0.19744   0.55653   0.00000  Uiso   1.00
H71    H     0.88205   0.24260   0.79043   0.00000  Uiso   1.00
H72    H     0.72607   0.22141   0.45878   0.00000  Uiso   1.00
H73    H     0.87569   0.10903   0.43540   0.00000  Uiso   1.00
H74    H     0.96260   0.32308   0.02600   0.00000  Uiso   1.00
H75    H     0.63372   0.27838   0.32667   0.00000  Uiso   1.00
H76    H     0.94921   0.04141   0.27736   0.00000  Uiso   1.00
H77    H     0.04089   0.43166   0.37360   0.00000  Uiso   1.00
H78    H     0.10069   0.48967   0.59747   0.00000  Uiso   1.00
H79    H     0.94471   0.46848   0.26582   0.00000  Uiso   1.00
H80    H     0.09432   0.35610   0.24244   0.00000  Uiso   1.00
H81    H     0.14006   0.52361   0.86939   0.00000  Uiso   1.00
H82    H     0.81117   0.47891   0.17005   0.00000  Uiso   1.00
H83    H     0.12666   0.24194   0.12075   0.00000  Uiso   1.00
O84    O     0.08691   0.45730   0.09826   0.00000  Uiso   1.00
O85    O     0.65542   0.39864   0.18074   0.00000  Uiso   1.00
O86    O     0.06934   0.08774   0.11607   0.00000  Uiso   1.00
N87    N     0.99617   0.36231   0.95842   0.00000  Uiso   1.00
N88    N     0.68868   0.32052   0.30460   0.00000  Uiso   1.00
N89    N     0.98363   0.09897   0.25848   0.00000  Uiso   1.00
N90    N     0.09166   0.47021   0.87415   0.00000  Uiso   1.00
N91    N     0.78417   0.42843   0.22033   0.00000  Uiso   1.00
N92    N     0.07911   0.20688   0.17421   0.00000  Uiso   1.00
C93    C     0.74890   0.63002   0.84796   0.00000  Uiso   1.00
C94    C     0.69189   0.62806   0.94967   0.00000  Uiso   1.00
C95    C     0.70405   0.63331   0.08214   0.00000  Uiso   1.00
C96    C     0.64478   0.63035   0.15897   0.00000  Uiso   1.00
C97    C     0.56672   0.62847   0.32509   0.00000  Uiso   1.00
C98    C     0.70339   0.55482   0.76949   0.00000  Uiso   1.00
C99    C     0.72525   0.49850   0.75045   0.00000  Uiso   1.00
C100   C     0.67566   0.43389   0.67558   0.00000  Uiso   1.00
C101   C     0.61550   0.31833   0.56190   0.00000  Uiso   1.00
C102   C     0.76445   0.69717   0.75680   0.00000  Uiso   1.00
C103   C     0.83764   0.76053   0.72706   0.00000  Uiso   1.00
C104   C     0.83947   0.81577   0.64148   0.00000  Uiso   1.00
C105   C     0.87411   0.92123   0.50809   0.00000  Uiso   1.00
C106   C     0.62201   0.61542   0.74885   0.00000  Uiso   1.00
C107   C     0.62296   0.62012   0.89584   0.00000  Uiso   1.00
C108   C     0.56366   0.61716   0.97248   0.00000  Uiso   1.00
C109   C     0.57574   0.62241   0.10504   0.00000  Uiso   1.00
C110   C     0.63447   0.54688   0.71566   0.00000  Uiso   1.00
C111   C     0.58485   0.48234   0.64080   0.00000  Uiso   1.00
C112   C     0.60662   0.42594   0.62165   0.00000  Uiso   1.00
C113   C     0.69553   0.68924   0.70297   0.00000  Uiso   1.00
C114   C     0.69725   0.74438   0.61741   0.00000  Uiso   1.00
C115   C     0.77042   0.80782   0.58755   0.00000  Uiso   1.00
H116   H     0.80256   0.63619   0.88987   0.00000  Uiso   1.00
H117   H     0.75740   0.63944   0.12376   0.00000  Uiso   1.00
H118   H     0.77859   0.50466   0.79211   0.00000  Uiso   1.00
H119   H     0.89097   0.76665   0.76873   0.00000  Uiso   1.00
H120   H     0.67692   0.63952   0.35933   0.00000  Uiso   1.00
H121   H     0.72162   0.35534   0.66000   0.00000  Uiso   1.00
H122   H     0.95859   0.90780   0.61070   0.00000  Uiso   1.00
H123   H     0.56834   0.60924   0.70694   0.00000  Uiso   1.00
H124   H     0.51033   0.61102   0.93080   0.00000  Uiso   1.00
H125   H     0.53152   0.47623   0.59915   0.00000  Uiso   1.00
H126   H     0.64390   0.73822   0.57577   0.00000  Uiso   1.00
H127   H     0.47639   0.61644   0.20272   0.00000  Uiso   1.00
H128   H     0.52109   0.33226   0.50338   0.00000  Uiso   1.00
H129   H     0.75806   0.88472   0.45409   0.00000  Uiso   1.00
O130   O     0.54270   0.62961   0.43159   0.00000  Uiso   1.00
O131   O     0.60136   0.25678   0.51407   0.00000  Uiso   1.00
O132   O     0.91226   0.98160   0.44940   0.00000  Uiso   1.00
N133   N     0.63769   0.63386   0.29175   0.00000  Uiso   1.00
N134   N     0.67948   0.36816   0.63793   0.00000  Uiso   1.00
N135   N     0.90103   0.88466   0.59181   0.00000  Uiso   1.00
N136   N     0.52979   0.62145   0.20748   0.00000  Uiso   1.00
N137   N     0.57157   0.35574   0.55366   0.00000  Uiso   1.00
N138   N     0.79312   0.87224   0.50754   0.00000  Uiso   1.00
C139   C     0.63002   0.88112   0.18130   0.00000  Uiso   1.00
C140   C     0.62806   0.93617   0.28301   0.00000  Uiso   1.00
C141   C     0.63331   0.92926   0.41547   0.00000  Uiso   1.00
C142   C     0.63035   0.98557   0.49230   0.00000  Uiso   1.00
C143   C     0.62847   0.06175   0.65842   0.00000  Uiso   1.00
C144   C     0.55482   0.85142   0.10283   0.00000  Uiso   1.00
C145   C     0.49850   0.77326   0.08378   0.00000  Uiso   1.00
C146   C     0.43389   0.75823   0.00892   0.00000  Uiso   1.00
C147   C     0.31833   0.70283   0.89523   0.00000  Uiso   1.00
C148   C     0.69717   0.93272   0.09014   0.00000  Uiso   1.00
C149   C     0.76053   0.92289   0.06039   0.00000  Uiso   1.00
C150   C     0.81577   0.97630   0.97482   0.00000  Uiso   1.00
C151   C     0.92123   0.04712   0.84143   0.00000  Uiso   1.00
C152   C     0.61542   0.99341   0.08219   0.00000  Uiso   1.00
C153   C     0.62012   0.99716   0.22917   0.00000  Uiso   1.00
C154   C     0.61716   0.05350   0.30582   0.00000  Uiso   1.00
C155   C     0.62241   0.04667   0.43837   0.00000  Uiso   1.00
C156   C     0.54688   0.91241   0.04899   0.00000  Uiso   1.00
C157   C     0.48234   0.89749   0.97413   0.00000  Uiso   1.00
C158   C     0.42594   0.81933   0.95499   0.00000  Uiso   1.00
C159   C     0.68924   0.99371   0.03630   0.00000  Uiso   1.00
C160   C     0.74438   0.04713   0.95075   0.00000  Uiso   1.00
C161   C     0.80782   0.03740   0.92088   0.00000  Uiso   1.00
H162   H     0.63619   0.83363   0.22320   0.00000  Uiso   1.00
H163   H     0.63944   0.88205   0.45709   0.00000  Uiso   1.00
H164   H     0.50466   0.72607   0.12544   0.00000  Uiso   1.00
H165   H     0.76665   0.87569   0.10207   0.00000  Uiso   1.00
H166   H     0.63952   0.96260   0.69267   0.00000  Uiso   1.00
H167   H     0.35534   0.63372   0.99333   0.00000  Uiso   1.00
H168   H     0.90780   0.94921   0.94403   0.00000  Uiso   1.00
H169   H     0.60924   0.04089   0.04027   0.00000  Uiso   1.00
H170   H     0.61102   0.10069   0.26413   0.00000  Uiso   1.00
H171   H     0.47623   0.94471   0.93248   0.00000  Uiso   1.00
H172   H     0.73822   0.09432   0.90911   0.00000  Uiso   1.00
H173   H     0.61644   0.14006   0.53606   0.00000  Uiso   1.00
H174   H     0.33226   0.81117   0.83671   0.00000  Uiso   1.00
H175   H     0.88472   0.12666   0.78742   0.00000  Uiso   1.00
O176   O     0.62961   0.08691   0.76493   0.00000  Uiso   1.00
O177   O     0.25678   0.65542   0.84741   0.00000  Uiso   1.00
O178   O     0.98160   0.06934   0.78273   0.00000  Uiso   1.00
N179   N     0.63386   0.99617   0.62509   0.00000  Uiso   1.00
N180   N     0.36816   0.68868   0.97127   0.00000  Uiso   1.00
N181   N     0.88466   0.98363   0.92515   0.00000  Uiso   1.00
N182   N     0.62145   0.09166   0.54081   0.00000  Uiso   1.00
N183   N     0.35574   0.78417   0.88699   0.00000  Uiso   1.00
N184   N     0.87224   0.07911   0.84088   0.00000  Uiso   1.00
C185   C     0.11888   0.74890   0.51463   0.00000  Uiso   1.00
C186   C     0.06383   0.69189   0.61634   0.00000  Uiso   1.00
C187   C     0.07074   0.70405   0.74880   0.00000  Uiso   1.00
C188   C     0.01443   0.64478   0.82563   0.00000  Uiso   1.00
C189   C     0.93825   0.56672   0.99176   0.00000  Uiso   1.00
C190   C     0.14858   0.70339   0.43616   0.00000  Uiso   1.00
C191   C     0.22674   0.72525   0.41712   0.00000  Uiso   1.00
C192   C     0.24177   0.67566   0.34225   0.00000  Uiso   1.00
C193   C     0.29717   0.61550   0.22856   0.00000  Uiso   1.00
C194   C     0.06728   0.76445   0.42347   0.00000  Uiso   1.00
C195   C     0.07711   0.83764   0.39372   0.00000  Uiso   1.00
C196   C     0.02370   0.83947   0.30815   0.00000  Uiso   1.00
C197   C     0.95288   0.87411   0.17476   0.00000  Uiso   1.00
C198   C     0.00659   0.62201   0.41552   0.00000  Uiso   1.00
C199   C     0.00284   0.62296   0.56250   0.00000  Uiso   1.00
C200   C     0.94650   0.56366   0.63915   0.00000  Uiso   1.00
C201   C     0.95333   0.57574   0.77171   0.00000  Uiso   1.00
C202   C     0.08759   0.63447   0.38233   0.00000  Uiso   1.00
C203   C     0.10251   0.58485   0.30746   0.00000  Uiso   1.00
C204   C     0.18067   0.60662   0.28832   0.00000  Uiso   1.00
C205   C     0.00629   0.69553   0.36964   0.00000  Uiso   1.00
C206   C     0.95287   0.69725   0.28408   0.00000  Uiso   1.00
C207   C     0.96260   0.77042   0.25422   0.00000  Uiso   1.00
H208   H     0.16637   0.80256   0.55653   0.00000  Uiso   1.00
H209   H     0.11795   0.75740   0.79043   0.00000  Uiso   1.00
H210   H     0.27393   0.77859   0.45878   0.00000  Uiso   1.00
H211   H     0.12431   0.89097   0.43540   0.00000  Uiso   1.00
H212   H     0.03740   0.67692   0.02600   0.00000  Uiso   1.00
H213   H     0.36628   0.72162   0.32667   0.00000  Uiso   1.00
H214   H     0.05079   0.95859   0.27736   0.00000  Uiso   1.00
H215   H     0.95911   0.56834   0.37360   0.00000  Uiso   1.00
H216   H     0.89931   0.51033   0.59747   0.00000  Uiso   1.00
H217   H     0.05529   0.53152   0.26582   0.00000  Uiso   1.00
H218   H     0.90568   0.64390   0.24244   0.00000  Uiso   1.00
H219   H     0.85994   0.47639   0.86939   0.00000  Uiso   1.00
H220   H     0.18883   0.52109   0.17005   0.00000  Uiso   1.00
H221   H     0.87334   0.75806   0.12075   0.00000  Uiso   1.00
O222   O     0.91309   0.54270   0.09826   0.00000  Uiso   1.00
O223   O     0.34458   0.60136   0.18074   0.00000  Uiso   1.00
O224   O     0.93066   0.91226   0.11607   0.00000  Uiso   1.00
N225   N     0.00383   0.63769   0.95842   0.00000  Uiso   1.00
N226   N     0.31132   0.67948   0.30460   0.00000  Uiso   1.00
N227   N     0.01637   0.90103   0.25848   0.00000  Uiso   1.00
N228   N     0.90834   0.52979   0.87415   0.00000  Uiso   1.00
N229   N     0.21583   0.57157   0.22033   0.00000  Uiso   1.00
N230   N     0.92089   0.79312   0.17421   0.00000  Uiso   1.00
C231   C     0.25110   0.36998   0.84796   0.00000  Uiso   1.00
C232   C     0.30811   0.37194   0.94967   0.00000  Uiso   1.00
C233   C     0.29595   0.36669   0.08214   0.00000  Uiso   1.00
C234   C     0.35522   0.36965   0.15897   0.00000  Uiso   1.00
C235   C     0.43328   0.37153   0.32509   0.00000  Uiso   1.00
C236   C     0.29661   0.44518   0.76949   0.00000  Uiso   1.00
C237   C     0.27475   0.50150   0.75045   0.00000  Uiso   1.00
C238   C     0.32434   0.56611   0.67558   0.00000  Uiso   1.00
C239   C     0.38450   0.68167   0.56190   0.00000  Uiso   1.00
C240   C     0.23555   0.30283   0.75680   0.00000  Uiso   1.00
C241   C     0.16236   0.23947   0.72706   0.00000  Uiso   1.00
C242   C     0.16053   0.18423   0.64148   0.00000  Uiso   1.00
C243   C     0.12589   0.07877   0.50809   0.00000  Uiso   1.00
C244   C     0.37799   0.38458   0.74885   0.00000  Uiso   1.00
C245   C     0.37704   0.37988   0.89584   0.00000  Uiso   1.00
C246   C     0.43634   0.38284   0.97248   0.00000  Uiso   1.00
C247   C     0.42426   0.37759   0.10504   0.00000  Uiso   1.00
C248   C     0.36553   0.45312   0.71566   0.00000  Uiso   1.00
C249   C     0.41515   0.51766   0.64080   0.00000  Uiso   1.00
C250   C     0.39338   0.57406   0.62165   0.00000  Uiso   1.00
C251   C     0.30447   0.31076   0.70297   0.00000  Uiso   1.00
C252   C     0.30275   0.25562   0.61741   0.00000  Uiso   1.00
C253   C     0.22958   0.19218   0.58755   0.00000  Uiso   1.00
H254   H     0.19744   0.36381   0.88987   0.00000  Uiso   1.00
H255   H     0.24260   0.36056   0.12376   0.00000  Uiso   1.00
H256   H     0.22141   0.49534   0.79211   0.00000  Uiso   1.00
H257   H     0.10903   0.23335   0.76873   0.00000  Uiso   1.00
H258   H     0.32308   0.36048   0.35933   0.00000  Uiso   1.00
H259   H     0.27838   0.64466   0.66000   0.00000  Uiso   1.00
H260   H     0.04141   0.09220   0.61070   0.00000  Uiso   1.00
H261   H     0.43166   0.39076   0.70694   0.00000  Uiso   1.00
H262   H     0.48967   0.38898   0.93080   0.00000  Uiso   1.00
H263   H     0.46848   0.52377   0.59915   0.00000  Uiso   1.00
H264   H     0.35610   0.26178   0.57577   0.00000  Uiso   1.00
H265   H     0.52361   0.38356   0.20272   0.00000  Uiso   1.00
H266   H     0.47891   0.66774   0.50338   0.00000  Uiso   1.00
H267   H     0.24194   0.11528   0.45409   0.00000  Uiso   1.00
O268   O     0.45730   0.37039   0.43159   0.00000  Uiso   1.00
O269   O     0.39864   0.74322   0.51407   0.00000  Uiso   1.00
O270   O     0.08774   0.01840   0.44940   0.00000  Uiso   1.00
N271   N     0.36231   0.36614   0.29175   0.00000  Uiso   1.00
N272   N     0.32052   0.63184   0.63793   0.00000  Uiso   1.00
N273   N     0.09897   0.11534   0.59181   0.00000  Uiso   1.00
N274   N     0.47021   0.37855   0.20748   0.00000  Uiso   1.00
N275   N     0.42843   0.64426   0.55366   0.00000  Uiso   1.00
N276   N     0.20688   0.12776   0.50754   0.00000  Uiso   1.00
