data_job_04884
_audit_creation_date              2018-12-19
_audit_creation_method            'Materials Studio'
_symmetry_space_group_name_H-M    'P1'
_symmetry_Int_Tables_number       1
_symmetry_cell_setting            triclinic
loop_
_symmetry_equiv_pos_as_xyz
  x,y,z
_cell_length_a                    37.7861
_cell_length_b                    15.1975
_cell_length_c                    10.2708
_cell_angle_alpha                 90.0000
_cell_angle_beta                  90.0000
_cell_angle_gamma                 90.0000
loop_
_atom_site_label
_atom_site_type_symbol
_atom_site_fract_x
_atom_site_fract_y
_atom_site_fract_z
_atom_site_U_iso_or_equiv
_atom_site_adp_type
_atom_site_occupancy
C1     C     0.10387   0.93286   0.08756   0.00000  Uiso   1.00
C2     C     0.06940   0.98211   0.11306   0.00000  Uiso   1.00
C3     C     0.05917   0.06036   0.05445   0.00000  Uiso   1.00
C4     C     0.02663   0.09492   0.09094   0.00000  Uiso   1.00
C5     C     0.97638   0.17783   0.11661   0.00000  Uiso   1.00
C6     C     0.12184   0.92292   0.21969   0.00000  Uiso   1.00
C7     C     0.15570   0.95138   0.25073   0.00000  Uiso   1.00
C8     C     0.16731   0.93610   0.37698   0.00000  Uiso   1.00
C9     C     0.19849   0.92706   0.56817   0.00000  Uiso   1.00
C10    C     0.09325   0.84028   0.04577   0.00000  Uiso   1.00
C11    C     0.10308   0.79925   0.93060   0.00000  Uiso   1.00
C12    C     0.09062   0.71439   0.91044   0.00000  Uiso   1.00
C13    C     0.07741   0.57704   0.83159   0.00000  Uiso   1.00
C14    C     0.06428   0.85509   0.25657   0.00000  Uiso   1.00
C15    C     0.04790   0.93987   0.20486   0.00000  Uiso   1.00
C16    C     0.01537   0.97431   0.24144   0.00000  Uiso   1.00
C17    C     0.00509   0.05260   0.18290   0.00000  Uiso   1.00
C18    C     0.10034   0.88067   0.31149   0.00000  Uiso   1.00
C19    C     0.11190   0.86534   0.43771   0.00000  Uiso   1.00
C20    C     0.14577   0.89378   0.46894   0.00000  Uiso   1.00
C21    C     0.07174   0.79803   0.13757   0.00000  Uiso   1.00
C22    C     0.05928   0.71321   0.11758   0.00000  Uiso   1.00
C23    C     0.06908   0.67207   0.00240   0.00000  Uiso   1.00
H24    H     0.12061   0.96575   0.01610   0.00000  Uiso   1.00
H25    H     0.07582   0.09303   0.98343   0.00000  Uiso   1.00
H26    H     0.17234   0.98406   0.17967   0.00000  Uiso   1.00
H27    H     0.11972   0.83196   0.85959   0.00000  Uiso   1.00
H28    H     0.01667   0.21553   0.98772   0.00000  Uiso   1.00
H29    H     0.22020   0.98575   0.40149   0.00000  Uiso   1.00
H30    H     0.10924   0.66500   0.72653   0.00000  Uiso   1.00
H31    H     0.04754   0.82220   0.32804   0.00000  Uiso   1.00
H32    H     0.99873   0.94161   0.31248   0.00000  Uiso   1.00
H33    H     0.09526   0.83264   0.50872   0.00000  Uiso   1.00
H34    H     0.04264   0.68054   0.18864   0.00000  Uiso   1.00
H35    H     0.95411   0.09264   0.25479   0.00000  Uiso   1.00
H36    H     0.15764   0.86284   0.66857   0.00000  Uiso   1.00
H37    H     0.04668   0.54211   0.99361   0.00000  Uiso   1.00
O38    O     0.95461   0.23524   0.10542   0.00000  Uiso   1.00
O39    O     0.22163   0.93375   0.64826   0.00000  Uiso   1.00
O40    O     0.07605   0.51295   0.76274   0.00000  Uiso   1.00
N41    N     0.00864   0.17021   0.05269   0.00000  Uiso   1.00
N42    N     0.19893   0.95539   0.43955   0.00000  Uiso   1.00
N43    N     0.09520   0.65551   0.80854   0.00000  Uiso   1.00
N44    N     0.97498   0.10408   0.19640   0.00000  Uiso   1.00
N45    N     0.16526   0.88926   0.58326   0.00000  Uiso   1.00
N46    N     0.06154   0.58938   0.95225   0.00000  Uiso   1.00
C47    C     0.38309   0.89455   0.91585   0.00000  Uiso   1.00
C48    C     0.41762   0.94423   0.89338   0.00000  Uiso   1.00
C49    C     0.42722   0.02286   0.95231   0.00000  Uiso   1.00
C50    C     0.45993   0.05778   0.91878   0.00000  Uiso   1.00
C51    C     0.51014   0.14137   0.89742   0.00000  Uiso   1.00
C52    C     0.36613   0.88383   0.78207   0.00000  Uiso   1.00
C53    C     0.33243   0.91165   0.74742   0.00000  Uiso   1.00
C54    C     0.32179   0.89571   0.62020   0.00000  Uiso   1.00
C55    C     0.29206   0.88546   0.42606   0.00000  Uiso   1.00
C56    C     0.39363   0.80229   0.95947   0.00000  Uiso   1.00
C57    C     0.38305   0.76155   0.07397   0.00000  Uiso   1.00
C58    C     0.39556   0.67696   0.09609   0.00000  Uiso   1.00
C59    C     0.40852   0.54011   0.17739   0.00000  Uiso   1.00
C60    C     0.42410   0.81676   0.75151   0.00000  Uiso   1.00
C61    C     0.43989   0.90197   0.80411   0.00000  Uiso   1.00
C62    C     0.47259   0.93678   0.77049   0.00000  Uiso   1.00
C63    C     0.48224   0.01545   0.82937   0.00000  Uiso   1.00
C64    C     0.38840   0.84157   0.69281   0.00000  Uiso   1.00
C65    C     0.37780   0.82558   0.56561   0.00000  Uiso   1.00
C66    C     0.34411   0.85338   0.53078   0.00000  Uiso   1.00
C67    C     0.41590   0.76003   0.87021   0.00000  Uiso   1.00
C68    C     0.42842   0.67548   0.89215   0.00000  Uiso   1.00
C69    C     0.41787   0.63462   0.00667   0.00000  Uiso   1.00
H70    H     0.36575   0.92745   0.98533   0.00000  Uiso   1.00
H71    H     0.40998   0.05554   0.02137   0.00000  Uiso   1.00
H72    H     0.31520   0.94434   0.81652   0.00000  Uiso   1.00
H73    H     0.36582   0.79427   0.14302   0.00000  Uiso   1.00
H74    H     0.46883   0.17894   0.02193   0.00000  Uiso   1.00
H75    H     0.26899   0.94444   0.59001   0.00000  Uiso   1.00
H76    H     0.37571   0.62798   0.27849   0.00000  Uiso   1.00
H77    H     0.44144   0.78386   0.68202   0.00000  Uiso   1.00
H78    H     0.48982   0.90407   0.70141   0.00000  Uiso   1.00
H79    H     0.39505   0.79287   0.49656   0.00000  Uiso   1.00
H80    H     0.44566   0.64280   0.82306   0.00000  Uiso   1.00
H81    H     0.53363   0.05600   0.76223   0.00000  Uiso   1.00
H82    H     0.33379   0.82150   0.33031   0.00000  Uiso   1.00
H83    H     0.44052   0.50505   0.01879   0.00000  Uiso   1.00
O84    O     0.53169   0.19916   0.91028   0.00000  Uiso   1.00
O85    O     0.26950   0.89149   0.34363   0.00000  Uiso   1.00
O86    O     0.40953   0.47631   0.24690   0.00000  Uiso   1.00
N87    N     0.47744   0.13350   0.95817   0.00000  Uiso   1.00
N88    N     0.29061   0.91427   0.55434   0.00000  Uiso   1.00
N89    N     0.39038   0.61840   0.19800   0.00000  Uiso   1.00
N90    N     0.51231   0.06735   0.81843   0.00000  Uiso   1.00
N91    N     0.32548   0.84812   0.41460   0.00000  Uiso   1.00
N92    N     0.42525   0.55225   0.05826   0.00000  Uiso   1.00
C93    C     0.89613   0.06714   0.58756   0.00000  Uiso   1.00
C94    C     0.93060   0.01789   0.61306   0.00000  Uiso   1.00
C95    C     0.94083   0.93964   0.55445   0.00000  Uiso   1.00
C96    C     0.97337   0.90508   0.59094   0.00000  Uiso   1.00
C97    C     0.02362   0.82217   0.61661   0.00000  Uiso   1.00
C98    C     0.87816   0.07708   0.71969   0.00000  Uiso   1.00
C99    C     0.84430   0.04862   0.75073   0.00000  Uiso   1.00
C100   C     0.83269   0.06390   0.87698   0.00000  Uiso   1.00
C101   C     0.80151   0.07294   0.06817   0.00000  Uiso   1.00
C102   C     0.90675   0.15972   0.54577   0.00000  Uiso   1.00
C103   C     0.89692   0.20075   0.43060   0.00000  Uiso   1.00
C104   C     0.90938   0.28561   0.41044   0.00000  Uiso   1.00
C105   C     0.92259   0.42296   0.33159   0.00000  Uiso   1.00
C106   C     0.93572   0.14491   0.75657   0.00000  Uiso   1.00
C107   C     0.95210   0.06013   0.70486   0.00000  Uiso   1.00
C108   C     0.98463   0.02569   0.74144   0.00000  Uiso   1.00
C109   C     0.99491   0.94740   0.68290   0.00000  Uiso   1.00
C110   C     0.89966   0.11933   0.81149   0.00000  Uiso   1.00
C111   C     0.88810   0.13466   0.93771   0.00000  Uiso   1.00
C112   C     0.85423   0.10622   0.96894   0.00000  Uiso   1.00
C113   C     0.92826   0.20197   0.63757   0.00000  Uiso   1.00
C114   C     0.94072   0.28679   0.61758   0.00000  Uiso   1.00
C115   C     0.93092   0.32793   0.50240   0.00000  Uiso   1.00
H116   H     0.87939   0.03425   0.51610   0.00000  Uiso   1.00
H117   H     0.92418   0.90697   0.48343   0.00000  Uiso   1.00
H118   H     0.82766   0.01594   0.67967   0.00000  Uiso   1.00
H119   H     0.88028   0.16804   0.35959   0.00000  Uiso   1.00
H120   H     0.98333   0.78447   0.48772   0.00000  Uiso   1.00
H121   H     0.77980   0.01425   0.90149   0.00000  Uiso   1.00
H122   H     0.89076   0.33500   0.22653   0.00000  Uiso   1.00
H123   H     0.95246   0.17780   0.82804   0.00000  Uiso   1.00
H124   H     0.00127   0.05839   0.81248   0.00000  Uiso   1.00
H125   H     0.90474   0.16736   0.00872   0.00000  Uiso   1.00
H126   H     0.95736   0.31946   0.68864   0.00000  Uiso   1.00
H127   H     0.04589   0.90736   0.75479   0.00000  Uiso   1.00
H128   H     0.84236   0.13716   0.16857   0.00000  Uiso   1.00
H129   H     0.95332   0.45789   0.49361   0.00000  Uiso   1.00
O130   O     0.04539   0.76476   0.60542   0.00000  Uiso   1.00
O131   O     0.77837   0.06625   0.14826   0.00000  Uiso   1.00
O132   O     0.92395   0.48705   0.26274   0.00000  Uiso   1.00
N133   N     0.99136   0.82979   0.55269   0.00000  Uiso   1.00
N134   N     0.80107   0.04461   0.93955   0.00000  Uiso   1.00
N135   N     0.90480   0.34449   0.30854   0.00000  Uiso   1.00
N136   N     0.02502   0.89592   0.69640   0.00000  Uiso   1.00
N137   N     0.83474   0.11074   0.08326   0.00000  Uiso   1.00
N138   N     0.93846   0.41062   0.45225   0.00000  Uiso   1.00
C139   C     0.61691   0.10545   0.41585   0.00000  Uiso   1.00
C140   C     0.58238   0.05577   0.39338   0.00000  Uiso   1.00
C141   C     0.57278   0.97714   0.45231   0.00000  Uiso   1.00
C142   C     0.54007   0.94222   0.41878   0.00000  Uiso   1.00
C143   C     0.48986   0.85863   0.39742   0.00000  Uiso   1.00
C144   C     0.63387   0.11617   0.28207   0.00000  Uiso   1.00
C145   C     0.66757   0.08835   0.24742   0.00000  Uiso   1.00
C146   C     0.67821   0.10429   0.12020   0.00000  Uiso   1.00
C147   C     0.70794   0.11454   0.92606   0.00000  Uiso   1.00
C148   C     0.60637   0.19771   0.45947   0.00000  Uiso   1.00
C149   C     0.61695   0.23845   0.57397   0.00000  Uiso   1.00
C150   C     0.60444   0.32304   0.59609   0.00000  Uiso   1.00
C151   C     0.59148   0.45989   0.67739   0.00000  Uiso   1.00
C152   C     0.57590   0.18324   0.25151   0.00000  Uiso   1.00
C153   C     0.56011   0.09803   0.30411   0.00000  Uiso   1.00
C154   C     0.52741   0.06322   0.27049   0.00000  Uiso   1.00
C155   C     0.51776   0.98455   0.32937   0.00000  Uiso   1.00
C156   C     0.61160   0.15843   0.19281   0.00000  Uiso   1.00
C157   C     0.62220   0.17442   0.06561   0.00000  Uiso   1.00
C158   C     0.65589   0.14662   0.03078   0.00000  Uiso   1.00
C159   C     0.58410   0.23997   0.37021   0.00000  Uiso   1.00
C160   C     0.57158   0.32452   0.39215   0.00000  Uiso   1.00
C161   C     0.58213   0.36538   0.50667   0.00000  Uiso   1.00
H162   H     0.63425   0.07255   0.48533   0.00000  Uiso   1.00
H163   H     0.59002   0.94446   0.52137   0.00000  Uiso   1.00
H164   H     0.68480   0.05566   0.31652   0.00000  Uiso   1.00
H165   H     0.63418   0.20573   0.64302   0.00000  Uiso   1.00
H166   H     0.53117   0.82106   0.52193   0.00000  Uiso   1.00
H167   H     0.73101   0.05556   0.09001   0.00000  Uiso   1.00
H168   H     0.62429   0.37202   0.77849   0.00000  Uiso   1.00
H169   H     0.55856   0.21614   0.18202   0.00000  Uiso   1.00
H170   H     0.51018   0.09593   0.20141   0.00000  Uiso   1.00
H171   H     0.60495   0.20713   0.99656   0.00000  Uiso   1.00
H172   H     0.55434   0.35720   0.32306   0.00000  Uiso   1.00
H173   H     0.46637   0.94400   0.26223   0.00000  Uiso   1.00
H174   H     0.66621   0.17850   0.83031   0.00000  Uiso   1.00
H175   H     0.55948   0.49495   0.51879   0.00000  Uiso   1.00
O176   O     0.46831   0.80084   0.41028   0.00000  Uiso   1.00
O177   O     0.73050   0.10851   0.84363   0.00000  Uiso   1.00
O178   O     0.59047   0.52369   0.74690   0.00000  Uiso   1.00
N179   N     0.52256   0.86650   0.45817   0.00000  Uiso   1.00
N180   N     0.70939   0.08573   0.05434   0.00000  Uiso   1.00
N181   N     0.60962   0.38160   0.69800   0.00000  Uiso   1.00
N182   N     0.48769   0.93265   0.31843   0.00000  Uiso   1.00
N183   N     0.67452   0.15188   0.91460   0.00000  Uiso   1.00
N184   N     0.57475   0.44775   0.55826   0.00000  Uiso   1.00
C185   C     0.60387   0.56714   0.08756   0.00000  Uiso   1.00
C186   C     0.56940   0.51789   0.11306   0.00000  Uiso   1.00
C187   C     0.55917   0.43964   0.05445   0.00000  Uiso   1.00
C188   C     0.52663   0.40508   0.09094   0.00000  Uiso   1.00
C189   C     0.47638   0.32217   0.11661   0.00000  Uiso   1.00
C190   C     0.62184   0.57708   0.21969   0.00000  Uiso   1.00
C191   C     0.65570   0.54862   0.25073   0.00000  Uiso   1.00
C192   C     0.66731   0.56390   0.37698   0.00000  Uiso   1.00
C193   C     0.69849   0.57294   0.56817   0.00000  Uiso   1.00
C194   C     0.59325   0.65972   0.04577   0.00000  Uiso   1.00
C195   C     0.60308   0.70075   0.93060   0.00000  Uiso   1.00
C196   C     0.59062   0.78561   0.91044   0.00000  Uiso   1.00
C197   C     0.57741   0.92296   0.83159   0.00000  Uiso   1.00
C198   C     0.56428   0.64491   0.25657   0.00000  Uiso   1.00
C199   C     0.54790   0.56013   0.20486   0.00000  Uiso   1.00
C200   C     0.51537   0.52569   0.24144   0.00000  Uiso   1.00
C201   C     0.50509   0.44740   0.18290   0.00000  Uiso   1.00
C202   C     0.60034   0.61933   0.31149   0.00000  Uiso   1.00
C203   C     0.61190   0.63466   0.43771   0.00000  Uiso   1.00
C204   C     0.64577   0.60622   0.46894   0.00000  Uiso   1.00
C205   C     0.57174   0.70197   0.13757   0.00000  Uiso   1.00
C206   C     0.55928   0.78679   0.11758   0.00000  Uiso   1.00
C207   C     0.56908   0.82793   0.00240   0.00000  Uiso   1.00
H208   H     0.62061   0.53425   0.01610   0.00000  Uiso   1.00
H209   H     0.57582   0.40697   0.98343   0.00000  Uiso   1.00
H210   H     0.67234   0.51594   0.17967   0.00000  Uiso   1.00
H211   H     0.61972   0.66804   0.85959   0.00000  Uiso   1.00
H212   H     0.51667   0.28447   0.98772   0.00000  Uiso   1.00
H213   H     0.72020   0.51425   0.40149   0.00000  Uiso   1.00
H214   H     0.60924   0.83500   0.72653   0.00000  Uiso   1.00
H215   H     0.54754   0.67780   0.32804   0.00000  Uiso   1.00
H216   H     0.49873   0.55839   0.31248   0.00000  Uiso   1.00
H217   H     0.59526   0.66736   0.50872   0.00000  Uiso   1.00
H218   H     0.54264   0.81946   0.18864   0.00000  Uiso   1.00
H219   H     0.45411   0.40736   0.25479   0.00000  Uiso   1.00
H220   H     0.65764   0.63716   0.66857   0.00000  Uiso   1.00
H221   H     0.54668   0.95789   0.99361   0.00000  Uiso   1.00
O222   O     0.45461   0.26476   0.10542   0.00000  Uiso   1.00
O223   O     0.72163   0.56625   0.64826   0.00000  Uiso   1.00
O224   O     0.57605   0.98705   0.76274   0.00000  Uiso   1.00
N225   N     0.50864   0.32979   0.05269   0.00000  Uiso   1.00
N226   N     0.69893   0.54461   0.43955   0.00000  Uiso   1.00
N227   N     0.59520   0.84449   0.80854   0.00000  Uiso   1.00
N228   N     0.47498   0.39592   0.19640   0.00000  Uiso   1.00
N229   N     0.66526   0.61074   0.58326   0.00000  Uiso   1.00
N230   N     0.56154   0.91062   0.95225   0.00000  Uiso   1.00
C231   C     0.88309   0.60545   0.91585   0.00000  Uiso   1.00
C232   C     0.91762   0.55577   0.89338   0.00000  Uiso   1.00
C233   C     0.92722   0.47714   0.95231   0.00000  Uiso   1.00
C234   C     0.95993   0.44222   0.91878   0.00000  Uiso   1.00
C235   C     0.01014   0.35863   0.89742   0.00000  Uiso   1.00
C236   C     0.86613   0.61617   0.78207   0.00000  Uiso   1.00
C237   C     0.83243   0.58835   0.74742   0.00000  Uiso   1.00
C238   C     0.82179   0.60429   0.62020   0.00000  Uiso   1.00
C239   C     0.79206   0.61454   0.42606   0.00000  Uiso   1.00
C240   C     0.89363   0.69771   0.95947   0.00000  Uiso   1.00
C241   C     0.88305   0.73845   0.07397   0.00000  Uiso   1.00
C242   C     0.89556   0.82304   0.09609   0.00000  Uiso   1.00
C243   C     0.90852   0.95989   0.17739   0.00000  Uiso   1.00
C244   C     0.92410   0.68324   0.75151   0.00000  Uiso   1.00
C245   C     0.93989   0.59803   0.80411   0.00000  Uiso   1.00
C246   C     0.97259   0.56322   0.77049   0.00000  Uiso   1.00
C247   C     0.98224   0.48455   0.82937   0.00000  Uiso   1.00
C248   C     0.88840   0.65843   0.69281   0.00000  Uiso   1.00
C249   C     0.87780   0.67442   0.56561   0.00000  Uiso   1.00
C250   C     0.84411   0.64662   0.53078   0.00000  Uiso   1.00
C251   C     0.91590   0.73997   0.87021   0.00000  Uiso   1.00
C252   C     0.92842   0.82452   0.89215   0.00000  Uiso   1.00
C253   C     0.91787   0.86538   0.00667   0.00000  Uiso   1.00
H254   H     0.86575   0.57255   0.98533   0.00000  Uiso   1.00
H255   H     0.90998   0.44446   0.02137   0.00000  Uiso   1.00
H256   H     0.81520   0.55566   0.81652   0.00000  Uiso   1.00
H257   H     0.86582   0.70573   0.14302   0.00000  Uiso   1.00
H258   H     0.96883   0.32106   0.02193   0.00000  Uiso   1.00
H259   H     0.76899   0.55556   0.59001   0.00000  Uiso   1.00
H260   H     0.87571   0.87202   0.27849   0.00000  Uiso   1.00
H261   H     0.94144   0.71614   0.68202   0.00000  Uiso   1.00
H262   H     0.98982   0.59593   0.70141   0.00000  Uiso   1.00
H263   H     0.89505   0.70713   0.49656   0.00000  Uiso   1.00
H264   H     0.94566   0.85720   0.82306   0.00000  Uiso   1.00
H265   H     0.03363   0.44400   0.76223   0.00000  Uiso   1.00
H266   H     0.83379   0.67850   0.33031   0.00000  Uiso   1.00
H267   H     0.94052   0.99495   0.01879   0.00000  Uiso   1.00
O268   O     0.03169   0.30084   0.91028   0.00000  Uiso   1.00
O269   O     0.76950   0.60851   0.34363   0.00000  Uiso   1.00
O270   O     0.90953   0.02369   0.24690   0.00000  Uiso   1.00
N271   N     0.97744   0.36650   0.95817   0.00000  Uiso   1.00
N272   N     0.79061   0.58573   0.55434   0.00000  Uiso   1.00
N273   N     0.89038   0.88160   0.19800   0.00000  Uiso   1.00
N274   N     0.01231   0.43265   0.81843   0.00000  Uiso   1.00
N275   N     0.82548   0.65188   0.41460   0.00000  Uiso   1.00
N276   N     0.92525   0.94775   0.05826   0.00000  Uiso   1.00
C277   C     0.39613   0.43286   0.58756   0.00000  Uiso   1.00
C278   C     0.43060   0.48211   0.61306   0.00000  Uiso   1.00
C279   C     0.44083   0.56036   0.55445   0.00000  Uiso   1.00
C280   C     0.47337   0.59492   0.59094   0.00000  Uiso   1.00
C281   C     0.52362   0.67783   0.61661   0.00000  Uiso   1.00
C282   C     0.37816   0.42292   0.71969   0.00000  Uiso   1.00
C283   C     0.34430   0.45138   0.75073   0.00000  Uiso   1.00
C284   C     0.33269   0.43610   0.87698   0.00000  Uiso   1.00
C285   C     0.30151   0.42706   0.06817   0.00000  Uiso   1.00
C286   C     0.40675   0.34028   0.54577   0.00000  Uiso   1.00
C287   C     0.39692   0.29925   0.43060   0.00000  Uiso   1.00
C288   C     0.40938   0.21439   0.41044   0.00000  Uiso   1.00
C289   C     0.42259   0.07704   0.33159   0.00000  Uiso   1.00
C290   C     0.43572   0.35509   0.75657   0.00000  Uiso   1.00
C291   C     0.45210   0.43987   0.70486   0.00000  Uiso   1.00
C292   C     0.48463   0.47431   0.74144   0.00000  Uiso   1.00
C293   C     0.49491   0.55260   0.68290   0.00000  Uiso   1.00
C294   C     0.39966   0.38067   0.81149   0.00000  Uiso   1.00
C295   C     0.38810   0.36534   0.93771   0.00000  Uiso   1.00
C296   C     0.35423   0.39378   0.96894   0.00000  Uiso   1.00
C297   C     0.42826   0.29803   0.63757   0.00000  Uiso   1.00
C298   C     0.44072   0.21321   0.61758   0.00000  Uiso   1.00
C299   C     0.43092   0.17207   0.50240   0.00000  Uiso   1.00
H300   H     0.37939   0.46575   0.51610   0.00000  Uiso   1.00
H301   H     0.42418   0.59303   0.48343   0.00000  Uiso   1.00
H302   H     0.32766   0.48406   0.67967   0.00000  Uiso   1.00
H303   H     0.38028   0.33196   0.35959   0.00000  Uiso   1.00
H304   H     0.48333   0.71553   0.48772   0.00000  Uiso   1.00
H305   H     0.27980   0.48575   0.90149   0.00000  Uiso   1.00
H306   H     0.39076   0.16500   0.22653   0.00000  Uiso   1.00
H307   H     0.45246   0.32220   0.82804   0.00000  Uiso   1.00
H308   H     0.50127   0.44161   0.81248   0.00000  Uiso   1.00
H309   H     0.40474   0.33264   0.00872   0.00000  Uiso   1.00
H310   H     0.45736   0.18054   0.68864   0.00000  Uiso   1.00
H311   H     0.54589   0.59264   0.75479   0.00000  Uiso   1.00
H312   H     0.34236   0.36284   0.16857   0.00000  Uiso   1.00
H313   H     0.45332   0.04211   0.49361   0.00000  Uiso   1.00
O314   O     0.54539   0.73524   0.60542   0.00000  Uiso   1.00
O315   O     0.27837   0.43375   0.14826   0.00000  Uiso   1.00
O316   O     0.42395   0.01295   0.26274   0.00000  Uiso   1.00
N317   N     0.49136   0.67021   0.55269   0.00000  Uiso   1.00
N318   N     0.30107   0.45539   0.93955   0.00000  Uiso   1.00
N319   N     0.40480   0.15551   0.30854   0.00000  Uiso   1.00
N320   N     0.52502   0.60408   0.69640   0.00000  Uiso   1.00
N321   N     0.33474   0.38926   0.08326   0.00000  Uiso   1.00
N322   N     0.43846   0.08938   0.45225   0.00000  Uiso   1.00
C323   C     0.11691   0.39455   0.41585   0.00000  Uiso   1.00
C324   C     0.08238   0.44423   0.39338   0.00000  Uiso   1.00
C325   C     0.07278   0.52286   0.45231   0.00000  Uiso   1.00
C326   C     0.04007   0.55778   0.41878   0.00000  Uiso   1.00
C327   C     0.98986   0.64137   0.39742   0.00000  Uiso   1.00
C328   C     0.13387   0.38383   0.28207   0.00000  Uiso   1.00
C329   C     0.16757   0.41165   0.24742   0.00000  Uiso   1.00
C330   C     0.17821   0.39571   0.12020   0.00000  Uiso   1.00
C331   C     0.20794   0.38546   0.92606   0.00000  Uiso   1.00
C332   C     0.10637   0.30229   0.45947   0.00000  Uiso   1.00
C333   C     0.11695   0.26155   0.57397   0.00000  Uiso   1.00
C334   C     0.10444   0.17696   0.59609   0.00000  Uiso   1.00
C335   C     0.09148   0.04011   0.67739   0.00000  Uiso   1.00
C336   C     0.07590   0.31676   0.25151   0.00000  Uiso   1.00
C337   C     0.06011   0.40197   0.30411   0.00000  Uiso   1.00
C338   C     0.02741   0.43678   0.27049   0.00000  Uiso   1.00
C339   C     0.01776   0.51545   0.32937   0.00000  Uiso   1.00
C340   C     0.11160   0.34157   0.19281   0.00000  Uiso   1.00
C341   C     0.12220   0.32558   0.06561   0.00000  Uiso   1.00
C342   C     0.15589   0.35338   0.03078   0.00000  Uiso   1.00
C343   C     0.08410   0.26003   0.37021   0.00000  Uiso   1.00
C344   C     0.07158   0.17548   0.39215   0.00000  Uiso   1.00
C345   C     0.08213   0.13462   0.50667   0.00000  Uiso   1.00
H346   H     0.13425   0.42745   0.48533   0.00000  Uiso   1.00
H347   H     0.09002   0.55554   0.52137   0.00000  Uiso   1.00
H348   H     0.18480   0.44434   0.31652   0.00000  Uiso   1.00
H349   H     0.13418   0.29427   0.64302   0.00000  Uiso   1.00
H350   H     0.03117   0.67894   0.52193   0.00000  Uiso   1.00
H351   H     0.23101   0.44444   0.09001   0.00000  Uiso   1.00
H352   H     0.12429   0.12798   0.77849   0.00000  Uiso   1.00
H353   H     0.05856   0.28386   0.18202   0.00000  Uiso   1.00
H354   H     0.01018   0.40407   0.20141   0.00000  Uiso   1.00
H355   H     0.10495   0.29287   0.99656   0.00000  Uiso   1.00
H356   H     0.05434   0.14280   0.32306   0.00000  Uiso   1.00
H357   H     0.96637   0.55600   0.26223   0.00000  Uiso   1.00
H358   H     0.16621   0.32150   0.83031   0.00000  Uiso   1.00
H359   H     0.05948   0.00505   0.51879   0.00000  Uiso   1.00
O360   O     0.96831   0.69916   0.41028   0.00000  Uiso   1.00
O361   O     0.23050   0.39149   0.84363   0.00000  Uiso   1.00
O362   O     0.09047   0.97631   0.74690   0.00000  Uiso   1.00
N363   N     0.02256   0.63350   0.45817   0.00000  Uiso   1.00
N364   N     0.20939   0.41427   0.05434   0.00000  Uiso   1.00
N365   N     0.10962   0.11840   0.69800   0.00000  Uiso   1.00
N366   N     0.98769   0.56735   0.31843   0.00000  Uiso   1.00
N367   N     0.17452   0.34812   0.91460   0.00000  Uiso   1.00
N368   N     0.07475   0.05225   0.55826   0.00000  Uiso   1.00
