data_job_01646
_audit_creation_date              2018-12-19
_audit_creation_method            'Materials Studio'
_symmetry_space_group_name_H-M    'P1'
_symmetry_Int_Tables_number       1
_symmetry_cell_setting            triclinic
loop_
_symmetry_equiv_pos_as_xyz
  x,y,z
_cell_length_a                    12.2353
_cell_length_b                    12.3783
_cell_length_c                    12.6024
_cell_angle_alpha                 112.5247
_cell_angle_beta                  73.4595
_cell_angle_gamma                 100.2652
loop_
_atom_site_label
_atom_site_type_symbol
_atom_site_fract_x
_atom_site_fract_y
_atom_site_fract_z
_atom_site_U_iso_or_equiv
_atom_site_adp_type
_atom_site_occupancy
C1     C     0.89444   0.88601   0.31646   0.00000  Uiso   1.00
C2     C     0.90031   0.75348   0.25791   0.00000  Uiso   1.00
C3     C     0.99640   0.69327   0.22824   0.00000  Uiso   1.00
C4     C     0.98426   0.57209   0.17526   0.00000  Uiso   1.00
C5     C     0.00929   0.37524   0.08771   0.00000  Uiso   1.00
C6     C     0.85248   0.92461   0.23452   0.00000  Uiso   1.00
C7     C     0.90836   0.00832   0.18520   0.00000  Uiso   1.00
C8     C     0.85594   0.03121   0.11254   0.00000  Uiso   1.00
C9     C     0.80668   0.10011   0.98875   0.00000  Uiso   1.00
C10    C     0.79865   0.90583   0.42862   0.00000  Uiso   1.00
C11    C     0.80925   0.97376   0.54250   0.00000  Uiso   1.00
C12    C     0.71150   0.98086   0.63326   0.00000  Uiso   1.00
C13    C     0.57866   0.02059   0.81083   0.00000  Uiso   1.00
C14    C     0.70200   0.77785   0.27514   0.00000  Uiso   1.00
C15    C     0.79578   0.69473   0.23547   0.00000  Uiso   1.00
C16    C     0.78349   0.57360   0.18253   0.00000  Uiso   1.00
C17    C     0.87955   0.51323   0.15279   0.00000  Uiso   1.00
C18    C     0.74796   0.86587   0.21208   0.00000  Uiso   1.00
C19    C     0.69545   0.88865   0.13949   0.00000  Uiso   1.00
C20    C     0.75123   0.97235   0.09006   0.00000  Uiso   1.00
C21    C     0.69412   0.84708   0.40618   0.00000  Uiso   1.00
C22    C     0.59634   0.85408   0.49678   0.00000  Uiso   1.00
C23    C     0.60679   0.92201   0.61078   0.00000  Uiso   1.00
H24    H     0.97581   0.93176   0.33392   0.00000  Uiso   1.00
H25    H     0.07728   0.73877   0.24561   0.00000  Uiso   1.00
H26    H     0.98924   0.05377   0.20259   0.00000  Uiso   1.00
H27    H     0.89015   0.01921   0.55983   0.00000  Uiso   1.00
H28    H     0.14369   0.49891   0.13776   0.00000  Uiso   1.00
H29    H     0.95803   0.16313   0.04708   0.00000  Uiso   1.00
H30    H     0.74908   0.09026   0.80039   0.00000  Uiso   1.00
H31    H     0.62062   0.73211   0.25767   0.00000  Uiso   1.00
H32    H     0.70259   0.52817   0.16517   0.00000  Uiso   1.00
H33    H     0.61455   0.84317   0.12215   0.00000  Uiso   1.00
H34    H     0.51546   0.80861   0.47939   0.00000  Uiso   1.00
H35    H     0.83958   0.32797   0.07247   0.00000  Uiso   1.00
H36    H     0.65392   0.99221   0.98179   0.00000  Uiso   1.00
H37    H     0.44497   0.91933   0.73510   0.00000  Uiso   1.00
O38    O     0.05198   0.28289   0.04561   0.00000  Uiso   1.00
O39    O     0.80840   0.15434   0.92666   0.00000  Uiso   1.00
O40    O     0.53426   0.05873   0.91498   0.00000  Uiso   1.00
N41    N     0.06086   0.48667   0.13511   0.00000  Uiso   1.00
N42    N     0.88729   0.10766   0.05031   0.00000  Uiso   1.00
N43    N     0.69193   0.03956   0.75459   0.00000  Uiso   1.00
N44    N     0.89722   0.39469   0.09998   0.00000  Uiso   1.00
N45    N     0.72365   0.01569   0.01518   0.00000  Uiso   1.00
N46    N     0.52830   0.94758   0.71946   0.00000  Uiso   1.00
C47    C     0.10556   0.11399   0.68354   0.00000  Uiso   1.00
C48    C     0.09969   0.24652   0.74209   0.00000  Uiso   1.00
C49    C     0.00360   0.30673   0.77176   0.00000  Uiso   1.00
C50    C     0.01574   0.42791   0.82474   0.00000  Uiso   1.00
C51    C     0.99071   0.62476   0.91229   0.00000  Uiso   1.00
C52    C     0.14752   0.07539   0.76548   0.00000  Uiso   1.00
C53    C     0.09164   0.99168   0.81480   0.00000  Uiso   1.00
C54    C     0.14406   0.96879   0.88746   0.00000  Uiso   1.00
C55    C     0.19332   0.89989   0.01125   0.00000  Uiso   1.00
C56    C     0.20135   0.09417   0.57138   0.00000  Uiso   1.00
C57    C     0.19075   0.02624   0.45750   0.00000  Uiso   1.00
C58    C     0.28850   0.01914   0.36674   0.00000  Uiso   1.00
C59    C     0.42134   0.97941   0.18917   0.00000  Uiso   1.00
C60    C     0.29800   0.22215   0.72486   0.00000  Uiso   1.00
C61    C     0.20422   0.30527   0.76453   0.00000  Uiso   1.00
C62    C     0.21651   0.42640   0.81747   0.00000  Uiso   1.00
C63    C     0.12045   0.48677   0.84721   0.00000  Uiso   1.00
C64    C     0.25204   0.13413   0.78792   0.00000  Uiso   1.00
C65    C     0.30455   0.11135   0.86051   0.00000  Uiso   1.00
C66    C     0.24877   0.02765   0.90994   0.00000  Uiso   1.00
C67    C     0.30588   0.15292   0.59382   0.00000  Uiso   1.00
C68    C     0.40366   0.14592   0.50322   0.00000  Uiso   1.00
C69    C     0.39321   0.07799   0.38922   0.00000  Uiso   1.00
H70    H     0.02419   0.06824   0.66608   0.00000  Uiso   1.00
H71    H     0.92272   0.26123   0.75439   0.00000  Uiso   1.00
H72    H     0.01076   0.94623   0.79741   0.00000  Uiso   1.00
H73    H     0.10985   0.98079   0.44017   0.00000  Uiso   1.00
H74    H     0.85631   0.50109   0.86224   0.00000  Uiso   1.00
H75    H     0.04197   0.83687   0.95292   0.00000  Uiso   1.00
H76    H     0.25092   0.90974   0.19961   0.00000  Uiso   1.00
H77    H     0.37938   0.26789   0.74233   0.00000  Uiso   1.00
H78    H     0.29741   0.47183   0.83483   0.00000  Uiso   1.00
H79    H     0.38545   0.15683   0.87785   0.00000  Uiso   1.00
H80    H     0.48454   0.19139   0.52061   0.00000  Uiso   1.00
H81    H     0.16042   0.67203   0.92753   0.00000  Uiso   1.00
H82    H     0.34608   0.00779   0.01821   0.00000  Uiso   1.00
H83    H     0.55503   0.08067   0.26490   0.00000  Uiso   1.00
O84    O     0.94802   0.71711   0.95439   0.00000  Uiso   1.00
O85    O     0.19160   0.84566   0.07334   0.00000  Uiso   1.00
O86    O     0.46574   0.94127   0.08502   0.00000  Uiso   1.00
N87    N     0.93914   0.51333   0.86489   0.00000  Uiso   1.00
N88    N     0.11271   0.89234   0.94969   0.00000  Uiso   1.00
N89    N     0.30807   0.96044   0.24541   0.00000  Uiso   1.00
N90    N     0.10278   0.60531   0.90002   0.00000  Uiso   1.00
N91    N     0.27635   0.98431   0.98482   0.00000  Uiso   1.00
N92    N     0.47170   0.05242   0.28054   0.00000  Uiso   1.00
