data_job_03955
_audit_creation_date              2018-12-19
_audit_creation_method            'Materials Studio'
_symmetry_space_group_name_H-M    'P1'
_symmetry_Int_Tables_number       1
_symmetry_cell_setting            triclinic
loop_
_symmetry_equiv_pos_as_xyz
  x,y,z
_cell_length_a                    17.8726
_cell_length_b                    17.8726
_cell_length_c                    16.6205
_cell_angle_alpha                 90.0000
_cell_angle_beta                  90.0000
_cell_angle_gamma                 90.0000
loop_
_atom_site_label
_atom_site_type_symbol
_atom_site_fract_x
_atom_site_fract_y
_atom_site_fract_z
_atom_site_U_iso_or_equiv
_atom_site_adp_type
_atom_site_occupancy
C1     C     0.84454   0.71729   0.04042   0.00000  Uiso   1.00
C2     C     0.76095   0.70027   0.03821   0.00000  Uiso   1.00
C3     C     0.72466   0.64607   0.08350   0.00000  Uiso   1.00
C4     C     0.64792   0.63921   0.07279   0.00000  Uiso   1.00
C5     C     0.52407   0.60582   0.07755   0.00000  Uiso   1.00
C6     C     0.87224   0.70909   0.95409   0.00000  Uiso   1.00
C7     C     0.92952   0.66230   0.92865   0.00000  Uiso   1.00
C8     C     0.94646   0.66288   0.84713   0.00000  Uiso   1.00
C9     C     0.99542   0.64320   0.72130   0.00000  Uiso   1.00
C10    C     0.85126   0.80021   0.06074   0.00000  Uiso   1.00
C11    C     0.89092   0.83005   0.12496   0.00000  Uiso   1.00
C12    C     0.89023   0.90735   0.13322   0.00000  Uiso   1.00
C13    C     0.90661   0.02916   0.17299   0.00000  Uiso   1.00
C14    C     0.77280   0.80152   0.94088   0.00000  Uiso   1.00
C15    C     0.72199   0.74603   0.98414   0.00000  Uiso   1.00
C16    C     0.64529   0.73926   0.97336   0.00000  Uiso   1.00
C17    C     0.60889   0.68505   0.01863   0.00000  Uiso   1.00
C18    C     0.83327   0.75484   0.90002   0.00000  Uiso   1.00
C19    C     0.85014   0.75549   0.81852   0.00000  Uiso   1.00
C20    C     0.90743   0.70871   0.79296   0.00000  Uiso   1.00
C21    C     0.81230   0.84597   0.00668   0.00000  Uiso   1.00
C22    C     0.81155   0.92324   0.01483   0.00000  Uiso   1.00
C23    C     0.85119   0.95319   0.07906   0.00000  Uiso   1.00
H24    H     0.87488   0.68166   0.08251   0.00000  Uiso   1.00
H25    H     0.75484   0.61066   0.12533   0.00000  Uiso   1.00
H26    H     0.95966   0.62690   0.97051   0.00000  Uiso   1.00
H27    H     0.92107   0.79462   0.16679   0.00000  Uiso   1.00
H28    H     0.60457   0.55211   0.14893   0.00000  Uiso   1.00
H29    H     0.03648   0.58636   0.82249   0.00000  Uiso   1.00
H30    H     0.95510   0.94004   0.23639   0.00000  Uiso   1.00
H31    H     0.74246   0.83714   0.89878   0.00000  Uiso   1.00
H32    H     0.61515   0.77467   0.93152   0.00000  Uiso   1.00
H33    H     0.81998   0.79091   0.77670   0.00000  Uiso   1.00
H34    H     0.78139   0.95863   0.97298   0.00000  Uiso   1.00
H35    H     0.49119   0.68522   0.99162   0.00000  Uiso   1.00
H36    H     0.92311   0.71948   0.66518   0.00000  Uiso   1.00
H37    H     0.84172   0.07315   0.07909   0.00000  Uiso   1.00
O38    O     0.46652   0.57475   0.09510   0.00000  Uiso   1.00
O39    O     0.03318   0.61970   0.66683   0.00000  Uiso   1.00
O40    O     0.92641   0.08371   0.20987   0.00000  Uiso   1.00
N41    N     0.59535   0.59202   0.10743   0.00000  Uiso   1.00
N42    N     0.99916   0.62404   0.80222   0.00000  Uiso   1.00
N43    N     0.92309   0.95469   0.18918   0.00000  Uiso   1.00
N44    N     0.53435   0.66365   0.02278   0.00000  Uiso   1.00
N45    N     0.93815   0.69566   0.71758   0.00000  Uiso   1.00
N46    N     0.86208   0.02632   0.10453   0.00000  Uiso   1.00
C47    C     0.15546   0.28271   0.04042   0.00000  Uiso   1.00
C48    C     0.23905   0.29973   0.03821   0.00000  Uiso   1.00
C49    C     0.27534   0.35393   0.08350   0.00000  Uiso   1.00
C50    C     0.35208   0.36079   0.07279   0.00000  Uiso   1.00
C51    C     0.47593   0.39418   0.07755   0.00000  Uiso   1.00
C52    C     0.12776   0.29091   0.95409   0.00000  Uiso   1.00
C53    C     0.07048   0.33770   0.92865   0.00000  Uiso   1.00
C54    C     0.05354   0.33712   0.84713   0.00000  Uiso   1.00
C55    C     0.00458   0.35680   0.72130   0.00000  Uiso   1.00
C56    C     0.14874   0.19979   0.06074   0.00000  Uiso   1.00
C57    C     0.10908   0.16995   0.12496   0.00000  Uiso   1.00
C58    C     0.10977   0.09265   0.13322   0.00000  Uiso   1.00
C59    C     0.09339   0.97084   0.17299   0.00000  Uiso   1.00
C60    C     0.22720   0.19848   0.94088   0.00000  Uiso   1.00
C61    C     0.27801   0.25397   0.98414   0.00000  Uiso   1.00
C62    C     0.35471   0.26074   0.97336   0.00000  Uiso   1.00
C63    C     0.39111   0.31495   0.01863   0.00000  Uiso   1.00
C64    C     0.16673   0.24516   0.90002   0.00000  Uiso   1.00
C65    C     0.14986   0.24451   0.81852   0.00000  Uiso   1.00
C66    C     0.09257   0.29129   0.79296   0.00000  Uiso   1.00
C67    C     0.18770   0.15403   0.00668   0.00000  Uiso   1.00
C68    C     0.18845   0.07676   0.01483   0.00000  Uiso   1.00
C69    C     0.14881   0.04681   0.07906   0.00000  Uiso   1.00
H70    H     0.12512   0.31834   0.08251   0.00000  Uiso   1.00
H71    H     0.24516   0.38934   0.12533   0.00000  Uiso   1.00
H72    H     0.04034   0.37310   0.97051   0.00000  Uiso   1.00
H73    H     0.07893   0.20538   0.16679   0.00000  Uiso   1.00
H74    H     0.39543   0.44789   0.14893   0.00000  Uiso   1.00
H75    H     0.96352   0.41364   0.82249   0.00000  Uiso   1.00
H76    H     0.04490   0.05996   0.23639   0.00000  Uiso   1.00
H77    H     0.25754   0.16286   0.89878   0.00000  Uiso   1.00
H78    H     0.38485   0.22533   0.93152   0.00000  Uiso   1.00
H79    H     0.18002   0.20909   0.77670   0.00000  Uiso   1.00
H80    H     0.21861   0.04137   0.97298   0.00000  Uiso   1.00
H81    H     0.50881   0.31478   0.99162   0.00000  Uiso   1.00
H82    H     0.07689   0.28052   0.66518   0.00000  Uiso   1.00
H83    H     0.15828   0.92685   0.07909   0.00000  Uiso   1.00
O84    O     0.53348   0.42525   0.09510   0.00000  Uiso   1.00
O85    O     0.96682   0.38030   0.66683   0.00000  Uiso   1.00
O86    O     0.07359   0.91629   0.20987   0.00000  Uiso   1.00
N87    N     0.40465   0.40798   0.10743   0.00000  Uiso   1.00
N88    N     0.00084   0.37596   0.80222   0.00000  Uiso   1.00
N89    N     0.07691   0.04531   0.18918   0.00000  Uiso   1.00
N90    N     0.46565   0.33635   0.02278   0.00000  Uiso   1.00
N91    N     0.06185   0.30434   0.71758   0.00000  Uiso   1.00
N92    N     0.13792   0.97368   0.10453   0.00000  Uiso   1.00
C93    C     0.71729   0.15546   0.95958   0.00000  Uiso   1.00
C94    C     0.70027   0.23905   0.96179   0.00000  Uiso   1.00
C95    C     0.64607   0.27534   0.91650   0.00000  Uiso   1.00
C96    C     0.63921   0.35208   0.92721   0.00000  Uiso   1.00
C97    C     0.60582   0.47593   0.92245   0.00000  Uiso   1.00
C98    C     0.70909   0.12776   0.04591   0.00000  Uiso   1.00
C99    C     0.66230   0.07048   0.07135   0.00000  Uiso   1.00
C100   C     0.66288   0.05354   0.15287   0.00000  Uiso   1.00
C101   C     0.64320   0.00458   0.27870   0.00000  Uiso   1.00
C102   C     0.80021   0.14874   0.93926   0.00000  Uiso   1.00
C103   C     0.83005   0.10908   0.87504   0.00000  Uiso   1.00
C104   C     0.90735   0.10977   0.86678   0.00000  Uiso   1.00
C105   C     0.02916   0.09339   0.82701   0.00000  Uiso   1.00
C106   C     0.80152   0.22720   0.05912   0.00000  Uiso   1.00
C107   C     0.74603   0.27801   0.01586   0.00000  Uiso   1.00
C108   C     0.73926   0.35471   0.02664   0.00000  Uiso   1.00
C109   C     0.68505   0.39111   0.98137   0.00000  Uiso   1.00
C110   C     0.75484   0.16673   0.09998   0.00000  Uiso   1.00
C111   C     0.75549   0.14986   0.18148   0.00000  Uiso   1.00
C112   C     0.70871   0.09257   0.20704   0.00000  Uiso   1.00
C113   C     0.84597   0.18770   0.99332   0.00000  Uiso   1.00
C114   C     0.92324   0.18845   0.98517   0.00000  Uiso   1.00
C115   C     0.95319   0.14881   0.92094   0.00000  Uiso   1.00
H116   H     0.68166   0.12512   0.91749   0.00000  Uiso   1.00
H117   H     0.61066   0.24516   0.87467   0.00000  Uiso   1.00
H118   H     0.62690   0.04034   0.02949   0.00000  Uiso   1.00
H119   H     0.79462   0.07893   0.83321   0.00000  Uiso   1.00
H120   H     0.55211   0.39543   0.85107   0.00000  Uiso   1.00
H121   H     0.58636   0.96352   0.17751   0.00000  Uiso   1.00
H122   H     0.94004   0.04490   0.76361   0.00000  Uiso   1.00
H123   H     0.83714   0.25754   0.10122   0.00000  Uiso   1.00
H124   H     0.77467   0.38485   0.06848   0.00000  Uiso   1.00
H125   H     0.79091   0.18002   0.22330   0.00000  Uiso   1.00
H126   H     0.95863   0.21861   0.02702   0.00000  Uiso   1.00
H127   H     0.68522   0.50881   0.00838   0.00000  Uiso   1.00
H128   H     0.71948   0.07689   0.33482   0.00000  Uiso   1.00
H129   H     0.07315   0.15828   0.92091   0.00000  Uiso   1.00
O130   O     0.57475   0.53348   0.90490   0.00000  Uiso   1.00
O131   O     0.61970   0.96682   0.33317   0.00000  Uiso   1.00
O132   O     0.08371   0.07359   0.79013   0.00000  Uiso   1.00
N133   N     0.59202   0.40465   0.89257   0.00000  Uiso   1.00
N134   N     0.62404   0.00084   0.19778   0.00000  Uiso   1.00
N135   N     0.95469   0.07691   0.81082   0.00000  Uiso   1.00
N136   N     0.66365   0.46565   0.97722   0.00000  Uiso   1.00
N137   N     0.69566   0.06185   0.28242   0.00000  Uiso   1.00
N138   N     0.02632   0.13792   0.89547   0.00000  Uiso   1.00
C139   C     0.28271   0.84454   0.95958   0.00000  Uiso   1.00
C140   C     0.29973   0.76095   0.96179   0.00000  Uiso   1.00
C141   C     0.35393   0.72466   0.91650   0.00000  Uiso   1.00
C142   C     0.36079   0.64792   0.92721   0.00000  Uiso   1.00
C143   C     0.39418   0.52407   0.92245   0.00000  Uiso   1.00
C144   C     0.29091   0.87224   0.04591   0.00000  Uiso   1.00
C145   C     0.33770   0.92952   0.07135   0.00000  Uiso   1.00
C146   C     0.33712   0.94646   0.15287   0.00000  Uiso   1.00
C147   C     0.35680   0.99542   0.27870   0.00000  Uiso   1.00
C148   C     0.19979   0.85126   0.93926   0.00000  Uiso   1.00
C149   C     0.16995   0.89092   0.87504   0.00000  Uiso   1.00
C150   C     0.09265   0.89023   0.86678   0.00000  Uiso   1.00
C151   C     0.97084   0.90661   0.82701   0.00000  Uiso   1.00
C152   C     0.19848   0.77280   0.05912   0.00000  Uiso   1.00
C153   C     0.25397   0.72199   0.01586   0.00000  Uiso   1.00
C154   C     0.26074   0.64529   0.02664   0.00000  Uiso   1.00
C155   C     0.31495   0.60889   0.98137   0.00000  Uiso   1.00
C156   C     0.24516   0.83327   0.09998   0.00000  Uiso   1.00
C157   C     0.24451   0.85014   0.18148   0.00000  Uiso   1.00
C158   C     0.29129   0.90743   0.20704   0.00000  Uiso   1.00
C159   C     0.15403   0.81230   0.99332   0.00000  Uiso   1.00
C160   C     0.07676   0.81155   0.98517   0.00000  Uiso   1.00
C161   C     0.04681   0.85119   0.92094   0.00000  Uiso   1.00
H162   H     0.31834   0.87488   0.91749   0.00000  Uiso   1.00
H163   H     0.38934   0.75484   0.87467   0.00000  Uiso   1.00
H164   H     0.37310   0.95966   0.02949   0.00000  Uiso   1.00
H165   H     0.20538   0.92107   0.83321   0.00000  Uiso   1.00
H166   H     0.44789   0.60457   0.85107   0.00000  Uiso   1.00
H167   H     0.41364   0.03648   0.17751   0.00000  Uiso   1.00
H168   H     0.05996   0.95510   0.76361   0.00000  Uiso   1.00
H169   H     0.16286   0.74246   0.10122   0.00000  Uiso   1.00
H170   H     0.22533   0.61515   0.06848   0.00000  Uiso   1.00
H171   H     0.20909   0.81998   0.22330   0.00000  Uiso   1.00
H172   H     0.04137   0.78139   0.02702   0.00000  Uiso   1.00
H173   H     0.31478   0.49119   0.00838   0.00000  Uiso   1.00
H174   H     0.28052   0.92311   0.33482   0.00000  Uiso   1.00
H175   H     0.92685   0.84172   0.92091   0.00000  Uiso   1.00
O176   O     0.42525   0.46652   0.90490   0.00000  Uiso   1.00
O177   O     0.38030   0.03318   0.33317   0.00000  Uiso   1.00
O178   O     0.91629   0.92641   0.79013   0.00000  Uiso   1.00
N179   N     0.40798   0.59535   0.89257   0.00000  Uiso   1.00
N180   N     0.37596   0.99916   0.19778   0.00000  Uiso   1.00
N181   N     0.04531   0.92309   0.81082   0.00000  Uiso   1.00
N182   N     0.33635   0.53435   0.97722   0.00000  Uiso   1.00
N183   N     0.30434   0.93815   0.28242   0.00000  Uiso   1.00
N184   N     0.97368   0.86208   0.89547   0.00000  Uiso   1.00
C185   C     0.34454   0.78271   0.54042   0.00000  Uiso   1.00
C186   C     0.26095   0.79973   0.53821   0.00000  Uiso   1.00
C187   C     0.22466   0.85393   0.58350   0.00000  Uiso   1.00
C188   C     0.14792   0.86079   0.57279   0.00000  Uiso   1.00
C189   C     0.02407   0.89418   0.57755   0.00000  Uiso   1.00
C190   C     0.37224   0.79091   0.45409   0.00000  Uiso   1.00
C191   C     0.42952   0.83770   0.42865   0.00000  Uiso   1.00
C192   C     0.44646   0.83712   0.34713   0.00000  Uiso   1.00
C193   C     0.49542   0.85680   0.22130   0.00000  Uiso   1.00
C194   C     0.35126   0.69979   0.56074   0.00000  Uiso   1.00
C195   C     0.39092   0.66995   0.62496   0.00000  Uiso   1.00
C196   C     0.39023   0.59265   0.63322   0.00000  Uiso   1.00
C197   C     0.40661   0.47084   0.67299   0.00000  Uiso   1.00
C198   C     0.27280   0.69848   0.44088   0.00000  Uiso   1.00
C199   C     0.22199   0.75397   0.48414   0.00000  Uiso   1.00
C200   C     0.14529   0.76074   0.47336   0.00000  Uiso   1.00
C201   C     0.10889   0.81495   0.51863   0.00000  Uiso   1.00
C202   C     0.33327   0.74516   0.40002   0.00000  Uiso   1.00
C203   C     0.35014   0.74451   0.31852   0.00000  Uiso   1.00
C204   C     0.40743   0.79129   0.29296   0.00000  Uiso   1.00
C205   C     0.31230   0.65403   0.50668   0.00000  Uiso   1.00
C206   C     0.31155   0.57676   0.51483   0.00000  Uiso   1.00
C207   C     0.35119   0.54681   0.57906   0.00000  Uiso   1.00
H208   H     0.37488   0.81834   0.58251   0.00000  Uiso   1.00
H209   H     0.25484   0.88934   0.62533   0.00000  Uiso   1.00
H210   H     0.45966   0.87310   0.47051   0.00000  Uiso   1.00
H211   H     0.42107   0.70538   0.66679   0.00000  Uiso   1.00
H212   H     0.10457   0.94789   0.64893   0.00000  Uiso   1.00
H213   H     0.53648   0.91364   0.32249   0.00000  Uiso   1.00
H214   H     0.45510   0.55996   0.73639   0.00000  Uiso   1.00
H215   H     0.24246   0.66286   0.39878   0.00000  Uiso   1.00
H216   H     0.11515   0.72533   0.43152   0.00000  Uiso   1.00
H217   H     0.31998   0.70909   0.27670   0.00000  Uiso   1.00
H218   H     0.28139   0.54137   0.47298   0.00000  Uiso   1.00
H219   H     0.99119   0.81478   0.49162   0.00000  Uiso   1.00
H220   H     0.42311   0.78052   0.16518   0.00000  Uiso   1.00
H221   H     0.34172   0.42685   0.57909   0.00000  Uiso   1.00
O222   O     0.96652   0.92525   0.59510   0.00000  Uiso   1.00
O223   O     0.53318   0.88030   0.16683   0.00000  Uiso   1.00
O224   O     0.42641   0.41629   0.70987   0.00000  Uiso   1.00
N225   N     0.09535   0.90798   0.60743   0.00000  Uiso   1.00
N226   N     0.49916   0.87596   0.30222   0.00000  Uiso   1.00
N227   N     0.42309   0.54531   0.68918   0.00000  Uiso   1.00
N228   N     0.03435   0.83635   0.52278   0.00000  Uiso   1.00
N229   N     0.43815   0.80434   0.21758   0.00000  Uiso   1.00
N230   N     0.36208   0.47368   0.60453   0.00000  Uiso   1.00
C231   C     0.65546   0.21729   0.54042   0.00000  Uiso   1.00
C232   C     0.73905   0.20027   0.53821   0.00000  Uiso   1.00
C233   C     0.77534   0.14607   0.58350   0.00000  Uiso   1.00
C234   C     0.85208   0.13921   0.57279   0.00000  Uiso   1.00
C235   C     0.97593   0.10582   0.57755   0.00000  Uiso   1.00
C236   C     0.62776   0.20909   0.45409   0.00000  Uiso   1.00
C237   C     0.57048   0.16230   0.42865   0.00000  Uiso   1.00
C238   C     0.55354   0.16288   0.34713   0.00000  Uiso   1.00
C239   C     0.50458   0.14320   0.22130   0.00000  Uiso   1.00
C240   C     0.64874   0.30021   0.56074   0.00000  Uiso   1.00
C241   C     0.60908   0.33005   0.62496   0.00000  Uiso   1.00
C242   C     0.60977   0.40735   0.63322   0.00000  Uiso   1.00
C243   C     0.59339   0.52916   0.67299   0.00000  Uiso   1.00
C244   C     0.72720   0.30152   0.44088   0.00000  Uiso   1.00
C245   C     0.77801   0.24603   0.48414   0.00000  Uiso   1.00
C246   C     0.85471   0.23926   0.47336   0.00000  Uiso   1.00
C247   C     0.89111   0.18505   0.51863   0.00000  Uiso   1.00
C248   C     0.66673   0.25484   0.40002   0.00000  Uiso   1.00
C249   C     0.64986   0.25549   0.31852   0.00000  Uiso   1.00
C250   C     0.59257   0.20871   0.29296   0.00000  Uiso   1.00
C251   C     0.68770   0.34597   0.50668   0.00000  Uiso   1.00
C252   C     0.68845   0.42324   0.51483   0.00000  Uiso   1.00
C253   C     0.64881   0.45319   0.57906   0.00000  Uiso   1.00
H254   H     0.62512   0.18166   0.58251   0.00000  Uiso   1.00
H255   H     0.74516   0.11066   0.62533   0.00000  Uiso   1.00
H256   H     0.54034   0.12690   0.47051   0.00000  Uiso   1.00
H257   H     0.57893   0.29462   0.66679   0.00000  Uiso   1.00
H258   H     0.89543   0.05211   0.64893   0.00000  Uiso   1.00
H259   H     0.46352   0.08636   0.32249   0.00000  Uiso   1.00
H260   H     0.54490   0.44004   0.73639   0.00000  Uiso   1.00
H261   H     0.75754   0.33714   0.39878   0.00000  Uiso   1.00
H262   H     0.88485   0.27467   0.43152   0.00000  Uiso   1.00
H263   H     0.68002   0.29091   0.27670   0.00000  Uiso   1.00
H264   H     0.71861   0.45863   0.47298   0.00000  Uiso   1.00
H265   H     0.00881   0.18522   0.49162   0.00000  Uiso   1.00
H266   H     0.57689   0.21948   0.16518   0.00000  Uiso   1.00
H267   H     0.65828   0.57315   0.57909   0.00000  Uiso   1.00
O268   O     0.03348   0.07475   0.59510   0.00000  Uiso   1.00
O269   O     0.46682   0.11970   0.16683   0.00000  Uiso   1.00
O270   O     0.57359   0.58371   0.70987   0.00000  Uiso   1.00
N271   N     0.90465   0.09202   0.60743   0.00000  Uiso   1.00
N272   N     0.50084   0.12404   0.30222   0.00000  Uiso   1.00
N273   N     0.57691   0.45469   0.68918   0.00000  Uiso   1.00
N274   N     0.96565   0.16365   0.52278   0.00000  Uiso   1.00
N275   N     0.56185   0.19566   0.21758   0.00000  Uiso   1.00
N276   N     0.63792   0.52632   0.60453   0.00000  Uiso   1.00
C277   C     0.21729   0.34454   0.45958   0.00000  Uiso   1.00
C278   C     0.20027   0.26095   0.46179   0.00000  Uiso   1.00
C279   C     0.14607   0.22466   0.41650   0.00000  Uiso   1.00
C280   C     0.13921   0.14792   0.42721   0.00000  Uiso   1.00
C281   C     0.10582   0.02407   0.42245   0.00000  Uiso   1.00
C282   C     0.20909   0.37224   0.54591   0.00000  Uiso   1.00
C283   C     0.16230   0.42952   0.57135   0.00000  Uiso   1.00
C284   C     0.16288   0.44646   0.65287   0.00000  Uiso   1.00
C285   C     0.14320   0.49542   0.77870   0.00000  Uiso   1.00
C286   C     0.30021   0.35126   0.43926   0.00000  Uiso   1.00
C287   C     0.33005   0.39092   0.37504   0.00000  Uiso   1.00
C288   C     0.40735   0.39023   0.36678   0.00000  Uiso   1.00
C289   C     0.52916   0.40661   0.32701   0.00000  Uiso   1.00
C290   C     0.30152   0.27280   0.55912   0.00000  Uiso   1.00
C291   C     0.24603   0.22199   0.51586   0.00000  Uiso   1.00
C292   C     0.23926   0.14529   0.52664   0.00000  Uiso   1.00
C293   C     0.18505   0.10889   0.48137   0.00000  Uiso   1.00
C294   C     0.25484   0.33327   0.59998   0.00000  Uiso   1.00
C295   C     0.25549   0.35014   0.68148   0.00000  Uiso   1.00
C296   C     0.20871   0.40743   0.70704   0.00000  Uiso   1.00
C297   C     0.34597   0.31230   0.49332   0.00000  Uiso   1.00
C298   C     0.42324   0.31155   0.48517   0.00000  Uiso   1.00
C299   C     0.45319   0.35119   0.42094   0.00000  Uiso   1.00
H300   H     0.18166   0.37488   0.41749   0.00000  Uiso   1.00
H301   H     0.11066   0.25484   0.37467   0.00000  Uiso   1.00
H302   H     0.12690   0.45966   0.52949   0.00000  Uiso   1.00
H303   H     0.29462   0.42107   0.33321   0.00000  Uiso   1.00
H304   H     0.05211   0.10457   0.35107   0.00000  Uiso   1.00
H305   H     0.08636   0.53648   0.67751   0.00000  Uiso   1.00
H306   H     0.44004   0.45510   0.26361   0.00000  Uiso   1.00
H307   H     0.33714   0.24246   0.60122   0.00000  Uiso   1.00
H308   H     0.27467   0.11515   0.56848   0.00000  Uiso   1.00
H309   H     0.29091   0.31998   0.72330   0.00000  Uiso   1.00
H310   H     0.45863   0.28139   0.52702   0.00000  Uiso   1.00
H311   H     0.18522   0.99119   0.50838   0.00000  Uiso   1.00
H312   H     0.21948   0.42311   0.83482   0.00000  Uiso   1.00
H313   H     0.57315   0.34172   0.42091   0.00000  Uiso   1.00
O314   O     0.07475   0.96652   0.40490   0.00000  Uiso   1.00
O315   O     0.11970   0.53318   0.83317   0.00000  Uiso   1.00
O316   O     0.58371   0.42641   0.29013   0.00000  Uiso   1.00
N317   N     0.09202   0.09535   0.39257   0.00000  Uiso   1.00
N318   N     0.12404   0.49916   0.69778   0.00000  Uiso   1.00
N319   N     0.45469   0.42309   0.31082   0.00000  Uiso   1.00
N320   N     0.16365   0.03435   0.47722   0.00000  Uiso   1.00
N321   N     0.19566   0.43815   0.78242   0.00000  Uiso   1.00
N322   N     0.52632   0.36208   0.39547   0.00000  Uiso   1.00
C323   C     0.78271   0.65546   0.45958   0.00000  Uiso   1.00
C324   C     0.79973   0.73905   0.46179   0.00000  Uiso   1.00
C325   C     0.85393   0.77534   0.41650   0.00000  Uiso   1.00
C326   C     0.86079   0.85208   0.42721   0.00000  Uiso   1.00
C327   C     0.89418   0.97593   0.42245   0.00000  Uiso   1.00
C328   C     0.79091   0.62776   0.54591   0.00000  Uiso   1.00
C329   C     0.83770   0.57048   0.57135   0.00000  Uiso   1.00
C330   C     0.83712   0.55354   0.65287   0.00000  Uiso   1.00
C331   C     0.85680   0.50458   0.77870   0.00000  Uiso   1.00
C332   C     0.69979   0.64874   0.43926   0.00000  Uiso   1.00
C333   C     0.66995   0.60908   0.37504   0.00000  Uiso   1.00
C334   C     0.59265   0.60977   0.36678   0.00000  Uiso   1.00
C335   C     0.47084   0.59339   0.32701   0.00000  Uiso   1.00
C336   C     0.69848   0.72720   0.55912   0.00000  Uiso   1.00
C337   C     0.75397   0.77801   0.51586   0.00000  Uiso   1.00
C338   C     0.76074   0.85471   0.52664   0.00000  Uiso   1.00
C339   C     0.81495   0.89111   0.48137   0.00000  Uiso   1.00
C340   C     0.74516   0.66673   0.59998   0.00000  Uiso   1.00
C341   C     0.74451   0.64986   0.68148   0.00000  Uiso   1.00
C342   C     0.79129   0.59257   0.70704   0.00000  Uiso   1.00
C343   C     0.65403   0.68770   0.49332   0.00000  Uiso   1.00
C344   C     0.57676   0.68845   0.48517   0.00000  Uiso   1.00
C345   C     0.54681   0.64881   0.42094   0.00000  Uiso   1.00
H346   H     0.81834   0.62512   0.41749   0.00000  Uiso   1.00
H347   H     0.88934   0.74516   0.37467   0.00000  Uiso   1.00
H348   H     0.87310   0.54034   0.52949   0.00000  Uiso   1.00
H349   H     0.70538   0.57893   0.33321   0.00000  Uiso   1.00
H350   H     0.94789   0.89543   0.35107   0.00000  Uiso   1.00
H351   H     0.91364   0.46352   0.67751   0.00000  Uiso   1.00
H352   H     0.55996   0.54490   0.26361   0.00000  Uiso   1.00
H353   H     0.66286   0.75754   0.60122   0.00000  Uiso   1.00
H354   H     0.72533   0.88485   0.56848   0.00000  Uiso   1.00
H355   H     0.70909   0.68002   0.72330   0.00000  Uiso   1.00
H356   H     0.54137   0.71861   0.52702   0.00000  Uiso   1.00
H357   H     0.81478   0.00881   0.50838   0.00000  Uiso   1.00
H358   H     0.78052   0.57689   0.83482   0.00000  Uiso   1.00
H359   H     0.42685   0.65828   0.42091   0.00000  Uiso   1.00
O360   O     0.92525   0.03348   0.40490   0.00000  Uiso   1.00
O361   O     0.88030   0.46682   0.83317   0.00000  Uiso   1.00
O362   O     0.41629   0.57359   0.29013   0.00000  Uiso   1.00
N363   N     0.90798   0.90465   0.39257   0.00000  Uiso   1.00
N364   N     0.87596   0.50084   0.69778   0.00000  Uiso   1.00
N365   N     0.54531   0.57691   0.31082   0.00000  Uiso   1.00
N366   N     0.83635   0.96565   0.47722   0.00000  Uiso   1.00
N367   N     0.80434   0.56185   0.78242   0.00000  Uiso   1.00
N368   N     0.47368   0.63792   0.39547   0.00000  Uiso   1.00
