data_job_00978
_audit_creation_date              2018-12-19
_audit_creation_method            'Materials Studio'
_symmetry_space_group_name_H-M    'P1'
_symmetry_Int_Tables_number       1
_symmetry_cell_setting            triclinic
loop_
_symmetry_equiv_pos_as_xyz
  x,y,z
_cell_length_a                    13.5322
_cell_length_b                    12.3998
_cell_length_c                    29.4084
_cell_angle_alpha                 90.0000
_cell_angle_beta                  132.9257
_cell_angle_gamma                 90.0000
loop_
_atom_site_label
_atom_site_type_symbol
_atom_site_fract_x
_atom_site_fract_y
_atom_site_fract_z
_atom_site_U_iso_or_equiv
_atom_site_adp_type
_atom_site_occupancy
C1     C     0.36208   0.07487   0.30540   0.00000  Uiso   1.00
C2     C     0.33501   0.00034   0.33715   0.00000  Uiso   1.00
C3     C     0.40999   0.90978   0.37207   0.00000  Uiso   1.00
C4     C     0.36887   0.85226   0.39724   0.00000  Uiso   1.00
C5     C     0.34385   0.73165   0.44794   0.00000  Uiso   1.00
C6     C     0.23206   0.07687   0.23692   0.00000  Uiso   1.00
C7     C     0.22050   0.05067   0.18759   0.00000  Uiso   1.00
C8     C     0.09272   0.05758   0.12839   0.00000  Uiso   1.00
C9     C     0.90790   0.05585   0.02350   0.00000  Uiso   1.00
C10    C     0.37772   0.18774   0.33020   0.00000  Uiso   1.00
C11    C     0.48861   0.25477   0.35928   0.00000  Uiso   1.00
C12    C     0.48344   0.35504   0.37860   0.00000  Uiso   1.00
C13    C     0.52477   0.52545   0.41854   0.00000  Uiso   1.00
C14    C     0.15570   0.13375   0.28800   0.00000  Uiso   1.00
C15    C     0.22291   0.03233   0.32769   0.00000  Uiso   1.00
C16    C     0.18166   0.97493   0.35282   0.00000  Uiso   1.00
C17    C     0.25657   0.88430   0.38778   0.00000  Uiso   1.00
C18    C     0.11997   0.10885   0.22747   0.00000  Uiso   1.00
C19    C     0.99217   0.11581   0.16834   0.00000  Uiso   1.00
C20    C     0.98042   0.08962   0.11892   0.00000  Uiso   1.00
C21    C     0.26563   0.21972   0.32075   0.00000  Uiso   1.00
C22    C     0.26028   0.31991   0.34003   0.00000  Uiso   1.00
C23    C     0.37114   0.38708   0.36913   0.00000  Uiso   1.00
H24    H     0.44934   0.04997   0.31276   0.00000  Uiso   1.00
H25    H     0.49673   0.88505   0.37937   0.00000  Uiso   1.00
H26    H     0.30727   0.02593   0.19491   0.00000  Uiso   1.00
H27    H     0.57533   0.22999   0.36658   0.00000  Uiso   1.00
H28    H     0.49980   0.71630   0.44904   0.00000  Uiso   1.00
H29    H     0.10033   0.01337   0.06010   0.00000  Uiso   1.00
H30    H     0.66559   0.44369   0.42210   0.00000  Uiso   1.00
H31    H     0.06842   0.15865   0.28064   0.00000  Uiso   1.00
H32    H     0.09491   0.99970   0.34550   0.00000  Uiso   1.00
H33    H     0.90545   0.14057   0.16104   0.00000  Uiso   1.00
H34    H     0.17352   0.34463   0.33271   0.00000  Uiso   1.00
H35    H     0.17367   0.80934   0.42154   0.00000  Uiso   1.00
H36    H     0.77420   0.10643   0.03261   0.00000  Uiso   1.00
H37    H     0.33946   0.53673   0.39461   0.00000  Uiso   1.00
O38    O     0.36100   0.65627   0.47851   0.00000  Uiso   1.00
O39    O     0.83692   0.04605   0.96825   0.00000  Uiso   1.00
O40    O     0.57854   0.61060   0.44318   0.00000  Uiso   1.00
N41    N     0.41943   0.76002   0.43368   0.00000  Uiso   1.00
N42    N     0.04594   0.03776   0.07005   0.00000  Uiso   1.00
N43    N     0.57440   0.44007   0.40847   0.00000  Uiso   1.00
N44    N     0.24394   0.81009   0.41888   0.00000  Uiso   1.00
N45    N     0.87045   0.08782   0.05525   0.00000  Uiso   1.00
N46    N     0.39891   0.49014   0.39367   0.00000  Uiso   1.00
C47    C     0.63792   0.57487   0.19460   0.00000  Uiso   1.00
C48    C     0.66499   0.50034   0.16285   0.00000  Uiso   1.00
C49    C     0.59001   0.40978   0.12793   0.00000  Uiso   1.00
C50    C     0.63113   0.35226   0.10276   0.00000  Uiso   1.00
C51    C     0.65615   0.23165   0.05206   0.00000  Uiso   1.00
C52    C     0.76794   0.57687   0.26308   0.00000  Uiso   1.00
C53    C     0.77950   0.55067   0.31241   0.00000  Uiso   1.00
C54    C     0.90728   0.55758   0.37161   0.00000  Uiso   1.00
C55    C     0.09210   0.55585   0.47650   0.00000  Uiso   1.00
C56    C     0.62228   0.68774   0.16980   0.00000  Uiso   1.00
C57    C     0.51139   0.75477   0.14072   0.00000  Uiso   1.00
C58    C     0.51656   0.85504   0.12140   0.00000  Uiso   1.00
C59    C     0.47523   0.02545   0.08146   0.00000  Uiso   1.00
C60    C     0.84430   0.63375   0.21200   0.00000  Uiso   1.00
C61    C     0.77709   0.53233   0.17231   0.00000  Uiso   1.00
C62    C     0.81834   0.47493   0.14718   0.00000  Uiso   1.00
C63    C     0.74343   0.38430   0.11222   0.00000  Uiso   1.00
C64    C     0.88003   0.60885   0.27253   0.00000  Uiso   1.00
C65    C     0.00783   0.61581   0.33166   0.00000  Uiso   1.00
C66    C     0.01958   0.58962   0.38108   0.00000  Uiso   1.00
C67    C     0.73437   0.71972   0.17925   0.00000  Uiso   1.00
C68    C     0.73972   0.81991   0.15997   0.00000  Uiso   1.00
C69    C     0.62886   0.88708   0.13087   0.00000  Uiso   1.00
H70    H     0.55066   0.54997   0.18724   0.00000  Uiso   1.00
H71    H     0.50327   0.38505   0.12063   0.00000  Uiso   1.00
H72    H     0.69273   0.52593   0.30509   0.00000  Uiso   1.00
H73    H     0.42467   0.72999   0.13342   0.00000  Uiso   1.00
H74    H     0.50020   0.21630   0.05096   0.00000  Uiso   1.00
H75    H     0.89967   0.51337   0.43990   0.00000  Uiso   1.00
H76    H     0.33441   0.94369   0.07790   0.00000  Uiso   1.00
H77    H     0.93158   0.65865   0.21936   0.00000  Uiso   1.00
H78    H     0.90509   0.49970   0.15450   0.00000  Uiso   1.00
H79    H     0.09455   0.64057   0.33896   0.00000  Uiso   1.00
H80    H     0.82648   0.84463   0.16729   0.00000  Uiso   1.00
H81    H     0.82633   0.30934   0.07846   0.00000  Uiso   1.00
H82    H     0.22580   0.60643   0.46739   0.00000  Uiso   1.00
H83    H     0.66054   0.03673   0.10539   0.00000  Uiso   1.00
O84    O     0.63900   0.15627   0.02149   0.00000  Uiso   1.00
O85    O     0.16308   0.54605   0.53175   0.00000  Uiso   1.00
O86    O     0.42146   0.11060   0.05682   0.00000  Uiso   1.00
N87    N     0.58057   0.26002   0.06632   0.00000  Uiso   1.00
N88    N     0.95406   0.53776   0.42995   0.00000  Uiso   1.00
N89    N     0.42560   0.94007   0.09153   0.00000  Uiso   1.00
N90    N     0.75606   0.31009   0.08112   0.00000  Uiso   1.00
N91    N     0.12955   0.58782   0.44475   0.00000  Uiso   1.00
N92    N     0.60109   0.99014   0.10633   0.00000  Uiso   1.00
C93    C     0.63792   0.92513   0.69460   0.00000  Uiso   1.00
C94    C     0.66499   0.99966   0.66285   0.00000  Uiso   1.00
C95    C     0.59001   0.09022   0.62793   0.00000  Uiso   1.00
C96    C     0.63113   0.14774   0.60276   0.00000  Uiso   1.00
C97    C     0.65615   0.26835   0.55206   0.00000  Uiso   1.00
C98    C     0.76794   0.92313   0.76308   0.00000  Uiso   1.00
C99    C     0.77950   0.94933   0.81241   0.00000  Uiso   1.00
C100   C     0.90728   0.94242   0.87161   0.00000  Uiso   1.00
C101   C     0.09210   0.94415   0.97650   0.00000  Uiso   1.00
C102   C     0.62228   0.81226   0.66980   0.00000  Uiso   1.00
C103   C     0.51139   0.74523   0.64072   0.00000  Uiso   1.00
C104   C     0.51656   0.64496   0.62140   0.00000  Uiso   1.00
C105   C     0.47523   0.47455   0.58146   0.00000  Uiso   1.00
C106   C     0.84430   0.86625   0.71200   0.00000  Uiso   1.00
C107   C     0.77709   0.96767   0.67231   0.00000  Uiso   1.00
C108   C     0.81834   0.02507   0.64718   0.00000  Uiso   1.00
C109   C     0.74343   0.11570   0.61222   0.00000  Uiso   1.00
C110   C     0.88003   0.89115   0.77253   0.00000  Uiso   1.00
C111   C     0.00783   0.88419   0.83166   0.00000  Uiso   1.00
C112   C     0.01958   0.91038   0.88108   0.00000  Uiso   1.00
C113   C     0.73437   0.78028   0.67925   0.00000  Uiso   1.00
C114   C     0.73972   0.68009   0.65997   0.00000  Uiso   1.00
C115   C     0.62886   0.61292   0.63087   0.00000  Uiso   1.00
H116   H     0.55066   0.95003   0.68724   0.00000  Uiso   1.00
H117   H     0.50327   0.11495   0.62063   0.00000  Uiso   1.00
H118   H     0.69273   0.97407   0.80509   0.00000  Uiso   1.00
H119   H     0.42467   0.77001   0.63342   0.00000  Uiso   1.00
H120   H     0.50020   0.28370   0.55096   0.00000  Uiso   1.00
H121   H     0.89967   0.98663   0.93990   0.00000  Uiso   1.00
H122   H     0.33441   0.55631   0.57790   0.00000  Uiso   1.00
H123   H     0.93158   0.84135   0.71936   0.00000  Uiso   1.00
H124   H     0.90509   0.00030   0.65450   0.00000  Uiso   1.00
H125   H     0.09455   0.85943   0.83896   0.00000  Uiso   1.00
H126   H     0.82648   0.65537   0.66729   0.00000  Uiso   1.00
H127   H     0.82633   0.19066   0.57846   0.00000  Uiso   1.00
H128   H     0.22580   0.89357   0.96739   0.00000  Uiso   1.00
H129   H     0.66054   0.46327   0.60539   0.00000  Uiso   1.00
O130   O     0.63900   0.34373   0.52149   0.00000  Uiso   1.00
O131   O     0.16308   0.95395   0.03175   0.00000  Uiso   1.00
O132   O     0.42146   0.38940   0.55682   0.00000  Uiso   1.00
N133   N     0.58057   0.23998   0.56632   0.00000  Uiso   1.00
N134   N     0.95406   0.96224   0.92995   0.00000  Uiso   1.00
N135   N     0.42560   0.55993   0.59153   0.00000  Uiso   1.00
N136   N     0.75606   0.18991   0.58112   0.00000  Uiso   1.00
N137   N     0.12955   0.91218   0.94475   0.00000  Uiso   1.00
N138   N     0.60109   0.50986   0.60633   0.00000  Uiso   1.00
C139   C     0.36208   0.42513   0.80540   0.00000  Uiso   1.00
C140   C     0.33501   0.49966   0.83715   0.00000  Uiso   1.00
C141   C     0.40999   0.59022   0.87207   0.00000  Uiso   1.00
C142   C     0.36887   0.64774   0.89724   0.00000  Uiso   1.00
C143   C     0.34385   0.76835   0.94794   0.00000  Uiso   1.00
C144   C     0.23206   0.42313   0.73692   0.00000  Uiso   1.00
C145   C     0.22050   0.44933   0.68759   0.00000  Uiso   1.00
C146   C     0.09272   0.44242   0.62839   0.00000  Uiso   1.00
C147   C     0.90790   0.44415   0.52350   0.00000  Uiso   1.00
C148   C     0.37772   0.31226   0.83020   0.00000  Uiso   1.00
C149   C     0.48861   0.24523   0.85928   0.00000  Uiso   1.00
C150   C     0.48344   0.14496   0.87860   0.00000  Uiso   1.00
C151   C     0.52477   0.97455   0.91854   0.00000  Uiso   1.00
C152   C     0.15570   0.36625   0.78800   0.00000  Uiso   1.00
C153   C     0.22291   0.46767   0.82769   0.00000  Uiso   1.00
C154   C     0.18166   0.52507   0.85282   0.00000  Uiso   1.00
C155   C     0.25657   0.61570   0.88778   0.00000  Uiso   1.00
C156   C     0.11997   0.39115   0.72747   0.00000  Uiso   1.00
C157   C     0.99217   0.38419   0.66834   0.00000  Uiso   1.00
C158   C     0.98042   0.41038   0.61892   0.00000  Uiso   1.00
C159   C     0.26563   0.28028   0.82075   0.00000  Uiso   1.00
C160   C     0.26028   0.18009   0.84003   0.00000  Uiso   1.00
C161   C     0.37114   0.11292   0.86913   0.00000  Uiso   1.00
H162   H     0.44934   0.45003   0.81276   0.00000  Uiso   1.00
H163   H     0.49673   0.61495   0.87937   0.00000  Uiso   1.00
H164   H     0.30727   0.47407   0.69491   0.00000  Uiso   1.00
H165   H     0.57533   0.27001   0.86658   0.00000  Uiso   1.00
H166   H     0.49980   0.78370   0.94904   0.00000  Uiso   1.00
H167   H     0.10033   0.48663   0.56010   0.00000  Uiso   1.00
H168   H     0.66559   0.05631   0.92210   0.00000  Uiso   1.00
H169   H     0.06842   0.34135   0.78064   0.00000  Uiso   1.00
H170   H     0.09491   0.50030   0.84550   0.00000  Uiso   1.00
H171   H     0.90545   0.35943   0.66104   0.00000  Uiso   1.00
H172   H     0.17352   0.15537   0.83271   0.00000  Uiso   1.00
H173   H     0.17367   0.69066   0.92154   0.00000  Uiso   1.00
H174   H     0.77420   0.39357   0.53261   0.00000  Uiso   1.00
H175   H     0.33946   0.96327   0.89461   0.00000  Uiso   1.00
O176   O     0.36100   0.84373   0.97851   0.00000  Uiso   1.00
O177   O     0.83692   0.45395   0.46825   0.00000  Uiso   1.00
O178   O     0.57854   0.88940   0.94318   0.00000  Uiso   1.00
N179   N     0.41943   0.73998   0.93368   0.00000  Uiso   1.00
N180   N     0.04594   0.46224   0.57005   0.00000  Uiso   1.00
N181   N     0.57440   0.05993   0.90847   0.00000  Uiso   1.00
N182   N     0.24394   0.68991   0.91888   0.00000  Uiso   1.00
N183   N     0.87045   0.41218   0.55525   0.00000  Uiso   1.00
N184   N     0.39891   0.00986   0.89367   0.00000  Uiso   1.00
