data_job_05402
_audit_creation_date              2018-12-19
_audit_creation_method            'Materials Studio'
_symmetry_space_group_name_H-M    'P1'
_symmetry_Int_Tables_number       1
_symmetry_cell_setting            triclinic
loop_
_symmetry_equiv_pos_as_xyz
  x,y,z
_cell_length_a                    12.4710
_cell_length_b                    12.4710
_cell_length_c                    38.8254
_cell_angle_alpha                 90.0000
_cell_angle_beta                  90.0000
_cell_angle_gamma                 90.0000
loop_
_atom_site_label
_atom_site_type_symbol
_atom_site_fract_x
_atom_site_fract_y
_atom_site_fract_z
_atom_site_U_iso_or_equiv
_atom_site_adp_type
_atom_site_occupancy
C1     C     0.35947   0.03784   0.87666   0.00000  Uiso   1.00
C2     C     0.25041   0.00464   0.86245   0.00000  Uiso   1.00
C3     C     0.18507   0.06680   0.84151   0.00000  Uiso   1.00
C4     C     0.08831   0.02198   0.83124   0.00000  Uiso   1.00
C5     C     0.92354   0.98617   0.80762   0.00000  Uiso   1.00
C6     C     0.35147   0.02663   0.91569   0.00000  Uiso   1.00
C7     C     0.37112   0.10726   0.93950   0.00000  Uiso   1.00
C8     C     0.35944   0.08094   0.97405   0.00000  Uiso   1.00
C9     C     0.35165   0.07923   0.03308   0.00000  Uiso   1.00
C10    C     0.43839   0.95196   0.86487   0.00000  Uiso   1.00
C11    C     0.53113   0.96981   0.84596   0.00000  Uiso   1.00
C12    C     0.59264   0.88062   0.83772   0.00000  Uiso   1.00
C13    C     0.71979   0.76298   0.81785   0.00000  Uiso   1.00
C14    C     0.30382   0.84772   0.89566   0.00000  Uiso   1.00
C15    C     0.22019   0.90138   0.87277   0.00000  Uiso   1.00
C16    C     0.12350   0.85645   0.86253   0.00000  Uiso   1.00
C17    C     0.05803   0.91852   0.84158   0.00000  Uiso   1.00
C18    C     0.32125   0.92337   0.92601   0.00000  Uiso   1.00
C19    C     0.30954   0.89691   0.96053   0.00000  Uiso   1.00
C20    C     0.32916   0.97749   0.98439   0.00000  Uiso   1.00
C21    C     0.40816   0.84869   0.87519   0.00000  Uiso   1.00
C22    C     0.46954   0.75946   0.86698   0.00000  Uiso   1.00
C23    C     0.56236   0.77717   0.84806   0.00000  Uiso   1.00
H24    H     0.38301   0.11824   0.86863   0.00000  Uiso   1.00
H25    H     0.20849   0.14671   0.83353   0.00000  Uiso   1.00
H26    H     0.39452   0.18716   0.93151   0.00000  Uiso   1.00
H27    H     0.55449   0.04973   0.83798   0.00000  Uiso   1.00
H28    H     0.00166   0.13276   0.79918   0.00000  Uiso   1.00
H29    H     0.39394   0.21804   0.00577   0.00000  Uiso   1.00
H30    H     0.73129   0.92824   0.80855   0.00000  Uiso   1.00
H31    H     0.28028   0.76732   0.90370   0.00000  Uiso   1.00
H32    H     0.10013   0.77654   0.87052   0.00000  Uiso   1.00
H33    H     0.28615   0.81699   0.96850   0.00000  Uiso   1.00
H34    H     0.44613   0.67956   0.87497   0.00000  Uiso   1.00
H35    H     0.91370   0.83231   0.82921   0.00000  Uiso   1.00
H36    H     0.30599   0.91760   0.03580   0.00000  Uiso   1.00
H37    H     0.64333   0.62779   0.83857   0.00000  Uiso   1.00
O38    O     0.84100   0.99495   0.79175   0.00000  Uiso   1.00
O39    O     0.35569   0.10683   0.06279   0.00000  Uiso   1.00
O40    O     0.79827   0.72662   0.80403   0.00000  Uiso   1.00
N41    N     0.00569   0.06078   0.81079   0.00000  Uiso   1.00
N42    N     0.37244   0.14052   0.00394   0.00000  Uiso   1.00
N43    N     0.68784   0.86958   0.81956   0.00000  Uiso   1.00
N44    N     0.95836   0.89911   0.82695   0.00000  Uiso   1.00
N45    N     0.32511   0.97885   0.02010   0.00000  Uiso   1.00
N46    N     0.64051   0.70791   0.83572   0.00000  Uiso   1.00
C47    C     0.64053   0.96216   0.37666   0.00000  Uiso   1.00
C48    C     0.74959   0.99536   0.36245   0.00000  Uiso   1.00
C49    C     0.81493   0.93320   0.34151   0.00000  Uiso   1.00
C50    C     0.91169   0.97802   0.33124   0.00000  Uiso   1.00
C51    C     0.07646   0.01383   0.30762   0.00000  Uiso   1.00
C52    C     0.64853   0.97337   0.41569   0.00000  Uiso   1.00
C53    C     0.62888   0.89274   0.43950   0.00000  Uiso   1.00
C54    C     0.64056   0.91906   0.47405   0.00000  Uiso   1.00
C55    C     0.64835   0.92077   0.53308   0.00000  Uiso   1.00
C56    C     0.56161   0.04804   0.36487   0.00000  Uiso   1.00
C57    C     0.46887   0.03019   0.34596   0.00000  Uiso   1.00
C58    C     0.40736   0.11938   0.33772   0.00000  Uiso   1.00
C59    C     0.28021   0.23702   0.31785   0.00000  Uiso   1.00
C60    C     0.69618   0.15228   0.39566   0.00000  Uiso   1.00
C61    C     0.77981   0.09862   0.37277   0.00000  Uiso   1.00
C62    C     0.87650   0.14355   0.36253   0.00000  Uiso   1.00
C63    C     0.94197   0.08148   0.34158   0.00000  Uiso   1.00
C64    C     0.67875   0.07663   0.42601   0.00000  Uiso   1.00
C65    C     0.69046   0.10309   0.46053   0.00000  Uiso   1.00
C66    C     0.67084   0.02251   0.48439   0.00000  Uiso   1.00
C67    C     0.59184   0.15131   0.37519   0.00000  Uiso   1.00
C68    C     0.53046   0.24054   0.36698   0.00000  Uiso   1.00
C69    C     0.43764   0.22283   0.34806   0.00000  Uiso   1.00
H70    H     0.61699   0.88176   0.36863   0.00000  Uiso   1.00
H71    H     0.79151   0.85329   0.33353   0.00000  Uiso   1.00
H72    H     0.60548   0.81284   0.43151   0.00000  Uiso   1.00
H73    H     0.44551   0.95027   0.33798   0.00000  Uiso   1.00
H74    H     0.99834   0.86724   0.29918   0.00000  Uiso   1.00
H75    H     0.60606   0.78196   0.50577   0.00000  Uiso   1.00
H76    H     0.26871   0.07176   0.30855   0.00000  Uiso   1.00
H77    H     0.71972   0.23268   0.40370   0.00000  Uiso   1.00
H78    H     0.89987   0.22346   0.37052   0.00000  Uiso   1.00
H79    H     0.71385   0.18301   0.46850   0.00000  Uiso   1.00
H80    H     0.55387   0.32044   0.37497   0.00000  Uiso   1.00
H81    H     0.08630   0.16769   0.32921   0.00000  Uiso   1.00
H82    H     0.69401   0.08240   0.53580   0.00000  Uiso   1.00
H83    H     0.35667   0.37221   0.33857   0.00000  Uiso   1.00
O84    O     0.15900   0.00505   0.29175   0.00000  Uiso   1.00
O85    O     0.64431   0.89317   0.56279   0.00000  Uiso   1.00
O86    O     0.20173   0.27338   0.30403   0.00000  Uiso   1.00
N87    N     0.99431   0.93922   0.31079   0.00000  Uiso   1.00
N88    N     0.62756   0.85948   0.50394   0.00000  Uiso   1.00
N89    N     0.31216   0.13042   0.31956   0.00000  Uiso   1.00
N90    N     0.04164   0.10089   0.32695   0.00000  Uiso   1.00
N91    N     0.67489   0.02115   0.52010   0.00000  Uiso   1.00
N92    N     0.35949   0.29209   0.33572   0.00000  Uiso   1.00
C93    C     0.96216   0.35947   0.12666   0.00000  Uiso   1.00
C94    C     0.99536   0.25041   0.11245   0.00000  Uiso   1.00
C95    C     0.93320   0.18507   0.09151   0.00000  Uiso   1.00
C96    C     0.97802   0.08831   0.08124   0.00000  Uiso   1.00
C97    C     0.01383   0.92354   0.05762   0.00000  Uiso   1.00
C98    C     0.97337   0.35147   0.16569   0.00000  Uiso   1.00
C99    C     0.89274   0.37112   0.18950   0.00000  Uiso   1.00
C100   C     0.91906   0.35944   0.22405   0.00000  Uiso   1.00
C101   C     0.92077   0.35165   0.28308   0.00000  Uiso   1.00
C102   C     0.04804   0.43839   0.11487   0.00000  Uiso   1.00
C103   C     0.03019   0.53113   0.09596   0.00000  Uiso   1.00
C104   C     0.11938   0.59264   0.08772   0.00000  Uiso   1.00
C105   C     0.23702   0.71979   0.06785   0.00000  Uiso   1.00
C106   C     0.15228   0.30382   0.14566   0.00000  Uiso   1.00
C107   C     0.09862   0.22019   0.12277   0.00000  Uiso   1.00
C108   C     0.14355   0.12350   0.11253   0.00000  Uiso   1.00
C109   C     0.08148   0.05803   0.09158   0.00000  Uiso   1.00
C110   C     0.07663   0.32125   0.17601   0.00000  Uiso   1.00
C111   C     0.10309   0.30954   0.21053   0.00000  Uiso   1.00
C112   C     0.02251   0.32916   0.23439   0.00000  Uiso   1.00
C113   C     0.15131   0.40816   0.12519   0.00000  Uiso   1.00
C114   C     0.24054   0.46954   0.11698   0.00000  Uiso   1.00
C115   C     0.22283   0.56236   0.09806   0.00000  Uiso   1.00
H116   H     0.88176   0.38301   0.11863   0.00000  Uiso   1.00
H117   H     0.85329   0.20849   0.08353   0.00000  Uiso   1.00
H118   H     0.81284   0.39452   0.18151   0.00000  Uiso   1.00
H119   H     0.95027   0.55449   0.08798   0.00000  Uiso   1.00
H120   H     0.86724   0.00166   0.04918   0.00000  Uiso   1.00
H121   H     0.78196   0.39394   0.25577   0.00000  Uiso   1.00
H122   H     0.07176   0.73129   0.05855   0.00000  Uiso   1.00
H123   H     0.23268   0.28028   0.15370   0.00000  Uiso   1.00
H124   H     0.22346   0.10013   0.12052   0.00000  Uiso   1.00
H125   H     0.18301   0.28615   0.21850   0.00000  Uiso   1.00
H126   H     0.32044   0.44613   0.12497   0.00000  Uiso   1.00
H127   H     0.16769   0.91370   0.07921   0.00000  Uiso   1.00
H128   H     0.08240   0.30599   0.28580   0.00000  Uiso   1.00
H129   H     0.37221   0.64333   0.08857   0.00000  Uiso   1.00
O130   O     0.00505   0.84100   0.04175   0.00000  Uiso   1.00
O131   O     0.89317   0.35569   0.31279   0.00000  Uiso   1.00
O132   O     0.27338   0.79827   0.05403   0.00000  Uiso   1.00
N133   N     0.93922   0.00569   0.06079   0.00000  Uiso   1.00
N134   N     0.85948   0.37244   0.25394   0.00000  Uiso   1.00
N135   N     0.13042   0.68784   0.06956   0.00000  Uiso   1.00
N136   N     0.10089   0.95836   0.07695   0.00000  Uiso   1.00
N137   N     0.02115   0.32511   0.27010   0.00000  Uiso   1.00
N138   N     0.29209   0.64051   0.08572   0.00000  Uiso   1.00
C139   C     0.03784   0.64053   0.62666   0.00000  Uiso   1.00
C140   C     0.00464   0.74959   0.61245   0.00000  Uiso   1.00
C141   C     0.06680   0.81493   0.59151   0.00000  Uiso   1.00
C142   C     0.02198   0.91169   0.58124   0.00000  Uiso   1.00
C143   C     0.98617   0.07646   0.55762   0.00000  Uiso   1.00
C144   C     0.02663   0.64853   0.66569   0.00000  Uiso   1.00
C145   C     0.10726   0.62888   0.68950   0.00000  Uiso   1.00
C146   C     0.08094   0.64056   0.72405   0.00000  Uiso   1.00
C147   C     0.07923   0.64835   0.78308   0.00000  Uiso   1.00
C148   C     0.95196   0.56161   0.61487   0.00000  Uiso   1.00
C149   C     0.96981   0.46887   0.59596   0.00000  Uiso   1.00
C150   C     0.88062   0.40736   0.58772   0.00000  Uiso   1.00
C151   C     0.76298   0.28021   0.56785   0.00000  Uiso   1.00
C152   C     0.84772   0.69618   0.64566   0.00000  Uiso   1.00
C153   C     0.90138   0.77981   0.62277   0.00000  Uiso   1.00
C154   C     0.85645   0.87650   0.61253   0.00000  Uiso   1.00
C155   C     0.91852   0.94197   0.59158   0.00000  Uiso   1.00
C156   C     0.92337   0.67875   0.67601   0.00000  Uiso   1.00
C157   C     0.89691   0.69046   0.71053   0.00000  Uiso   1.00
C158   C     0.97749   0.67084   0.73439   0.00000  Uiso   1.00
C159   C     0.84869   0.59184   0.62519   0.00000  Uiso   1.00
C160   C     0.75946   0.53046   0.61698   0.00000  Uiso   1.00
C161   C     0.77717   0.43764   0.59806   0.00000  Uiso   1.00
H162   H     0.11824   0.61699   0.61863   0.00000  Uiso   1.00
H163   H     0.14671   0.79151   0.58353   0.00000  Uiso   1.00
H164   H     0.18716   0.60548   0.68151   0.00000  Uiso   1.00
H165   H     0.04973   0.44551   0.58798   0.00000  Uiso   1.00
H166   H     0.13276   0.99834   0.54918   0.00000  Uiso   1.00
H167   H     0.21804   0.60606   0.75577   0.00000  Uiso   1.00
H168   H     0.92824   0.26871   0.55855   0.00000  Uiso   1.00
H169   H     0.76732   0.71972   0.65370   0.00000  Uiso   1.00
H170   H     0.77654   0.89987   0.62052   0.00000  Uiso   1.00
H171   H     0.81699   0.71385   0.71850   0.00000  Uiso   1.00
H172   H     0.67956   0.55387   0.62497   0.00000  Uiso   1.00
H173   H     0.83231   0.08630   0.57921   0.00000  Uiso   1.00
H174   H     0.91760   0.69401   0.78580   0.00000  Uiso   1.00
H175   H     0.62779   0.35667   0.58857   0.00000  Uiso   1.00
O176   O     0.99495   0.15900   0.54175   0.00000  Uiso   1.00
O177   O     0.10683   0.64431   0.81279   0.00000  Uiso   1.00
O178   O     0.72662   0.20173   0.55403   0.00000  Uiso   1.00
N179   N     0.06078   0.99431   0.56079   0.00000  Uiso   1.00
N180   N     0.14052   0.62756   0.75394   0.00000  Uiso   1.00
N181   N     0.86958   0.31216   0.56956   0.00000  Uiso   1.00
N182   N     0.89911   0.04164   0.57695   0.00000  Uiso   1.00
N183   N     0.97885   0.67489   0.77010   0.00000  Uiso   1.00
N184   N     0.70791   0.35949   0.58572   0.00000  Uiso   1.00
C185   C     0.64053   0.03784   0.12334   0.00000  Uiso   1.00
C186   C     0.74959   0.00464   0.13755   0.00000  Uiso   1.00
C187   C     0.81493   0.06680   0.15849   0.00000  Uiso   1.00
C188   C     0.91169   0.02198   0.16876   0.00000  Uiso   1.00
C189   C     0.07646   0.98617   0.19238   0.00000  Uiso   1.00
C190   C     0.64853   0.02663   0.08431   0.00000  Uiso   1.00
C191   C     0.62888   0.10726   0.06050   0.00000  Uiso   1.00
C192   C     0.64056   0.08094   0.02595   0.00000  Uiso   1.00
C193   C     0.64835   0.07923   0.96692   0.00000  Uiso   1.00
C194   C     0.56161   0.95196   0.13513   0.00000  Uiso   1.00
C195   C     0.46887   0.96981   0.15404   0.00000  Uiso   1.00
C196   C     0.40736   0.88062   0.16228   0.00000  Uiso   1.00
C197   C     0.28021   0.76298   0.18215   0.00000  Uiso   1.00
C198   C     0.69618   0.84772   0.10434   0.00000  Uiso   1.00
C199   C     0.77981   0.90138   0.12723   0.00000  Uiso   1.00
C200   C     0.87650   0.85645   0.13747   0.00000  Uiso   1.00
C201   C     0.94197   0.91852   0.15842   0.00000  Uiso   1.00
C202   C     0.67875   0.92337   0.07399   0.00000  Uiso   1.00
C203   C     0.69046   0.89691   0.03947   0.00000  Uiso   1.00
C204   C     0.67084   0.97749   0.01561   0.00000  Uiso   1.00
C205   C     0.59184   0.84869   0.12481   0.00000  Uiso   1.00
C206   C     0.53046   0.75946   0.13302   0.00000  Uiso   1.00
C207   C     0.43764   0.77717   0.15194   0.00000  Uiso   1.00
H208   H     0.61699   0.11824   0.13137   0.00000  Uiso   1.00
H209   H     0.79151   0.14671   0.16647   0.00000  Uiso   1.00
H210   H     0.60548   0.18716   0.06849   0.00000  Uiso   1.00
H211   H     0.44551   0.04973   0.16202   0.00000  Uiso   1.00
H212   H     0.99834   0.13276   0.20082   0.00000  Uiso   1.00
H213   H     0.60606   0.21804   0.99423   0.00000  Uiso   1.00
H214   H     0.26871   0.92824   0.19145   0.00000  Uiso   1.00
H215   H     0.71972   0.76732   0.09630   0.00000  Uiso   1.00
H216   H     0.89987   0.77654   0.12948   0.00000  Uiso   1.00
H217   H     0.71385   0.81699   0.03150   0.00000  Uiso   1.00
H218   H     0.55387   0.67956   0.12503   0.00000  Uiso   1.00
H219   H     0.08630   0.83231   0.17079   0.00000  Uiso   1.00
H220   H     0.69401   0.91760   0.96420   0.00000  Uiso   1.00
H221   H     0.35667   0.62779   0.16143   0.00000  Uiso   1.00
O222   O     0.15900   0.99495   0.20825   0.00000  Uiso   1.00
O223   O     0.64431   0.10683   0.93721   0.00000  Uiso   1.00
O224   O     0.20173   0.72662   0.19597   0.00000  Uiso   1.00
N225   N     0.99431   0.06078   0.18921   0.00000  Uiso   1.00
N226   N     0.62756   0.14052   0.99606   0.00000  Uiso   1.00
N227   N     0.31216   0.86958   0.18044   0.00000  Uiso   1.00
N228   N     0.04164   0.89911   0.17305   0.00000  Uiso   1.00
N229   N     0.67489   0.97885   0.97990   0.00000  Uiso   1.00
N230   N     0.35949   0.70791   0.16428   0.00000  Uiso   1.00
C231   C     0.35947   0.96216   0.62334   0.00000  Uiso   1.00
C232   C     0.25041   0.99536   0.63755   0.00000  Uiso   1.00
C233   C     0.18507   0.93320   0.65849   0.00000  Uiso   1.00
C234   C     0.08831   0.97802   0.66876   0.00000  Uiso   1.00
C235   C     0.92354   0.01383   0.69238   0.00000  Uiso   1.00
C236   C     0.35147   0.97337   0.58431   0.00000  Uiso   1.00
C237   C     0.37112   0.89274   0.56050   0.00000  Uiso   1.00
C238   C     0.35944   0.91906   0.52595   0.00000  Uiso   1.00
C239   C     0.35165   0.92077   0.46692   0.00000  Uiso   1.00
C240   C     0.43839   0.04804   0.63513   0.00000  Uiso   1.00
C241   C     0.53113   0.03019   0.65404   0.00000  Uiso   1.00
C242   C     0.59264   0.11938   0.66228   0.00000  Uiso   1.00
C243   C     0.71979   0.23702   0.68215   0.00000  Uiso   1.00
C244   C     0.30382   0.15228   0.60434   0.00000  Uiso   1.00
C245   C     0.22019   0.09862   0.62723   0.00000  Uiso   1.00
C246   C     0.12350   0.14355   0.63747   0.00000  Uiso   1.00
C247   C     0.05803   0.08148   0.65842   0.00000  Uiso   1.00
C248   C     0.32125   0.07663   0.57399   0.00000  Uiso   1.00
C249   C     0.30954   0.10309   0.53947   0.00000  Uiso   1.00
C250   C     0.32916   0.02251   0.51561   0.00000  Uiso   1.00
C251   C     0.40816   0.15131   0.62481   0.00000  Uiso   1.00
C252   C     0.46954   0.24054   0.63302   0.00000  Uiso   1.00
C253   C     0.56236   0.22283   0.65194   0.00000  Uiso   1.00
H254   H     0.38301   0.88176   0.63137   0.00000  Uiso   1.00
H255   H     0.20849   0.85329   0.66647   0.00000  Uiso   1.00
H256   H     0.39452   0.81284   0.56849   0.00000  Uiso   1.00
H257   H     0.55449   0.95027   0.66202   0.00000  Uiso   1.00
H258   H     0.00166   0.86724   0.70082   0.00000  Uiso   1.00
H259   H     0.39394   0.78196   0.49423   0.00000  Uiso   1.00
H260   H     0.73129   0.07176   0.69145   0.00000  Uiso   1.00
H261   H     0.28028   0.23268   0.59630   0.00000  Uiso   1.00
H262   H     0.10013   0.22346   0.62948   0.00000  Uiso   1.00
H263   H     0.28615   0.18301   0.53150   0.00000  Uiso   1.00
H264   H     0.44613   0.32044   0.62503   0.00000  Uiso   1.00
H265   H     0.91370   0.16769   0.67079   0.00000  Uiso   1.00
H266   H     0.30599   0.08240   0.46420   0.00000  Uiso   1.00
H267   H     0.64333   0.37221   0.66143   0.00000  Uiso   1.00
O268   O     0.84100   0.00505   0.70825   0.00000  Uiso   1.00
O269   O     0.35569   0.89317   0.43721   0.00000  Uiso   1.00
O270   O     0.79827   0.27338   0.69597   0.00000  Uiso   1.00
N271   N     0.00569   0.93922   0.68921   0.00000  Uiso   1.00
N272   N     0.37244   0.85948   0.49606   0.00000  Uiso   1.00
N273   N     0.68784   0.13042   0.68044   0.00000  Uiso   1.00
N274   N     0.95836   0.10089   0.67305   0.00000  Uiso   1.00
N275   N     0.32511   0.02115   0.47990   0.00000  Uiso   1.00
N276   N     0.64051   0.29209   0.66428   0.00000  Uiso   1.00
C277   C     0.03784   0.35947   0.87334   0.00000  Uiso   1.00
C278   C     0.00464   0.25041   0.88755   0.00000  Uiso   1.00
C279   C     0.06680   0.18507   0.90849   0.00000  Uiso   1.00
C280   C     0.02198   0.08831   0.91876   0.00000  Uiso   1.00
C281   C     0.98617   0.92354   0.94238   0.00000  Uiso   1.00
C282   C     0.02663   0.35147   0.83431   0.00000  Uiso   1.00
C283   C     0.10726   0.37112   0.81050   0.00000  Uiso   1.00
C284   C     0.08094   0.35944   0.77595   0.00000  Uiso   1.00
C285   C     0.07923   0.35165   0.71692   0.00000  Uiso   1.00
C286   C     0.95196   0.43839   0.88513   0.00000  Uiso   1.00
C287   C     0.96981   0.53113   0.90404   0.00000  Uiso   1.00
C288   C     0.88062   0.59264   0.91228   0.00000  Uiso   1.00
C289   C     0.76298   0.71979   0.93215   0.00000  Uiso   1.00
C290   C     0.84772   0.30382   0.85434   0.00000  Uiso   1.00
C291   C     0.90138   0.22019   0.87723   0.00000  Uiso   1.00
C292   C     0.85645   0.12350   0.88747   0.00000  Uiso   1.00
C293   C     0.91852   0.05803   0.90842   0.00000  Uiso   1.00
C294   C     0.92337   0.32125   0.82399   0.00000  Uiso   1.00
C295   C     0.89691   0.30954   0.78947   0.00000  Uiso   1.00
C296   C     0.97749   0.32916   0.76561   0.00000  Uiso   1.00
C297   C     0.84869   0.40816   0.87481   0.00000  Uiso   1.00
C298   C     0.75946   0.46954   0.88302   0.00000  Uiso   1.00
C299   C     0.77717   0.56236   0.90194   0.00000  Uiso   1.00
H300   H     0.11824   0.38301   0.88137   0.00000  Uiso   1.00
H301   H     0.14671   0.20849   0.91647   0.00000  Uiso   1.00
H302   H     0.18716   0.39452   0.81849   0.00000  Uiso   1.00
H303   H     0.04973   0.55449   0.91202   0.00000  Uiso   1.00
H304   H     0.13276   0.00166   0.95082   0.00000  Uiso   1.00
H305   H     0.21804   0.39394   0.74423   0.00000  Uiso   1.00
H306   H     0.92824   0.73129   0.94145   0.00000  Uiso   1.00
H307   H     0.76732   0.28028   0.84630   0.00000  Uiso   1.00
H308   H     0.77654   0.10013   0.87948   0.00000  Uiso   1.00
H309   H     0.81699   0.28615   0.78150   0.00000  Uiso   1.00
H310   H     0.67956   0.44613   0.87503   0.00000  Uiso   1.00
H311   H     0.83231   0.91370   0.92079   0.00000  Uiso   1.00
H312   H     0.91760   0.30599   0.71420   0.00000  Uiso   1.00
H313   H     0.62779   0.64333   0.91143   0.00000  Uiso   1.00
O314   O     0.99495   0.84100   0.95825   0.00000  Uiso   1.00
O315   O     0.10683   0.35569   0.68721   0.00000  Uiso   1.00
O316   O     0.72662   0.79827   0.94597   0.00000  Uiso   1.00
N317   N     0.06078   0.00569   0.93921   0.00000  Uiso   1.00
N318   N     0.14052   0.37244   0.74606   0.00000  Uiso   1.00
N319   N     0.86958   0.68784   0.93044   0.00000  Uiso   1.00
N320   N     0.89911   0.95836   0.92305   0.00000  Uiso   1.00
N321   N     0.97885   0.32511   0.72990   0.00000  Uiso   1.00
N322   N     0.70791   0.64051   0.91428   0.00000  Uiso   1.00
C323   C     0.96216   0.64053   0.37334   0.00000  Uiso   1.00
C324   C     0.99536   0.74959   0.38755   0.00000  Uiso   1.00
C325   C     0.93320   0.81493   0.40849   0.00000  Uiso   1.00
C326   C     0.97802   0.91169   0.41876   0.00000  Uiso   1.00
C327   C     0.01383   0.07646   0.44238   0.00000  Uiso   1.00
C328   C     0.97337   0.64853   0.33431   0.00000  Uiso   1.00
C329   C     0.89274   0.62888   0.31050   0.00000  Uiso   1.00
C330   C     0.91906   0.64056   0.27595   0.00000  Uiso   1.00
C331   C     0.92077   0.64835   0.21692   0.00000  Uiso   1.00
C332   C     0.04804   0.56161   0.38513   0.00000  Uiso   1.00
C333   C     0.03019   0.46887   0.40404   0.00000  Uiso   1.00
C334   C     0.11938   0.40736   0.41228   0.00000  Uiso   1.00
C335   C     0.23702   0.28021   0.43215   0.00000  Uiso   1.00
C336   C     0.15228   0.69618   0.35434   0.00000  Uiso   1.00
C337   C     0.09862   0.77981   0.37723   0.00000  Uiso   1.00
C338   C     0.14355   0.87650   0.38747   0.00000  Uiso   1.00
C339   C     0.08148   0.94197   0.40842   0.00000  Uiso   1.00
C340   C     0.07663   0.67875   0.32399   0.00000  Uiso   1.00
C341   C     0.10309   0.69046   0.28947   0.00000  Uiso   1.00
C342   C     0.02251   0.67084   0.26561   0.00000  Uiso   1.00
C343   C     0.15131   0.59184   0.37481   0.00000  Uiso   1.00
C344   C     0.24054   0.53046   0.38302   0.00000  Uiso   1.00
C345   C     0.22283   0.43764   0.40194   0.00000  Uiso   1.00
H346   H     0.88176   0.61699   0.38137   0.00000  Uiso   1.00
H347   H     0.85329   0.79151   0.41647   0.00000  Uiso   1.00
H348   H     0.81284   0.60548   0.31849   0.00000  Uiso   1.00
H349   H     0.95027   0.44551   0.41202   0.00000  Uiso   1.00
H350   H     0.86724   0.99834   0.45082   0.00000  Uiso   1.00
H351   H     0.78196   0.60606   0.24423   0.00000  Uiso   1.00
H352   H     0.07176   0.26871   0.44145   0.00000  Uiso   1.00
H353   H     0.23268   0.71972   0.34630   0.00000  Uiso   1.00
H354   H     0.22346   0.89987   0.37948   0.00000  Uiso   1.00
H355   H     0.18301   0.71385   0.28150   0.00000  Uiso   1.00
H356   H     0.32044   0.55387   0.37503   0.00000  Uiso   1.00
H357   H     0.16769   0.08630   0.42079   0.00000  Uiso   1.00
H358   H     0.08240   0.69401   0.21420   0.00000  Uiso   1.00
H359   H     0.37221   0.35667   0.41143   0.00000  Uiso   1.00
O360   O     0.00505   0.15900   0.45825   0.00000  Uiso   1.00
O361   O     0.89317   0.64431   0.18721   0.00000  Uiso   1.00
O362   O     0.27338   0.20173   0.44597   0.00000  Uiso   1.00
N363   N     0.93922   0.99431   0.43921   0.00000  Uiso   1.00
N364   N     0.85948   0.62756   0.24606   0.00000  Uiso   1.00
N365   N     0.13042   0.31216   0.43044   0.00000  Uiso   1.00
N366   N     0.10089   0.04164   0.42305   0.00000  Uiso   1.00
N367   N     0.02115   0.67489   0.22990   0.00000  Uiso   1.00
N368   N     0.29209   0.35949   0.41428   0.00000  Uiso   1.00
