data_job_01457
_audit_creation_date              2018-12-19
_audit_creation_method            'Materials Studio'
_symmetry_space_group_name_H-M    'P1'
_symmetry_Int_Tables_number       1
_symmetry_cell_setting            triclinic
loop_
_symmetry_equiv_pos_as_xyz
  x,y,z
_cell_length_a                    10.2834
_cell_length_b                    16.1159
_cell_length_c                    16.0959
_cell_angle_alpha                 90.0000
_cell_angle_beta                  109.4038
_cell_angle_gamma                 90.0000
loop_
_atom_site_label
_atom_site_type_symbol
_atom_site_fract_x
_atom_site_fract_y
_atom_site_fract_z
_atom_site_U_iso_or_equiv
_atom_site_adp_type
_atom_site_occupancy
C1     C     0.46186   0.74649   0.27002   0.00000  Uiso   1.00
C2     C     0.53955   0.69083   0.34717   0.00000  Uiso   1.00
C3     C     0.66563   0.65293   0.35908   0.00000  Uiso   1.00
C4     C     0.71963   0.60440   0.43395   0.00000  Uiso   1.00
C5     C     0.85083   0.51950   0.54448   0.00000  Uiso   1.00
C6     C     0.31979   0.70741   0.22912   0.00000  Uiso   1.00
C7     C     0.26111   0.68345   0.14178   0.00000  Uiso   1.00
C8     C     0.13010   0.64888   0.11727   0.00000  Uiso   1.00
C9     C     0.92008   0.58976   0.04452   0.00000  Uiso   1.00
C10    C     0.43831   0.82834   0.31038   0.00000  Uiso   1.00
C11    C     0.47923   0.90607   0.29133   0.00000  Uiso   1.00
C12    C     0.44798   0.97332   0.33522   0.00000  Uiso   1.00
C13    C     0.42197   0.10198   0.38862   0.00000  Uiso   1.00
C14    C     0.33355   0.72770   0.38181   0.00000  Uiso   1.00
C15    C     0.46985   0.68063   0.40789   0.00000  Uiso   1.00
C16    C     0.52367   0.63215   0.48276   0.00000  Uiso   1.00
C17    C     0.64982   0.59418   0.49478   0.00000  Uiso   1.00
C18    C     0.25010   0.69720   0.28984   0.00000  Uiso   1.00
C19    C     0.11914   0.66267   0.26545   0.00000  Uiso   1.00
C20    C     0.06028   0.63865   0.17810   0.00000  Uiso   1.00
C21    C     0.36861   0.81814   0.37110   0.00000  Uiso   1.00
C22    C     0.33728   0.88529   0.41501   0.00000  Uiso   1.00
C23    C     0.37815   0.96310   0.39605   0.00000  Uiso   1.00
H24    H     0.51611   0.75443   0.22275   0.00000  Uiso   1.00
H25    H     0.71953   0.66084   0.31207   0.00000  Uiso   1.00
H26    H     0.31506   0.69136   0.09480   0.00000  Uiso   1.00
H27    H     0.53316   0.91394   0.24434   0.00000  Uiso   1.00
H28    H     0.91430   0.55255   0.43786   0.00000  Uiso   1.00
H29    H     0.06143   0.61693   0.97973   0.00000  Uiso   1.00
H30    H     0.52134   0.08629   0.29506   0.00000  Uiso   1.00
H31    H     0.27928   0.71976   0.42908   0.00000  Uiso   1.00
H32    H     0.46971   0.62426   0.52973   0.00000  Uiso   1.00
H33    H     0.06524   0.65478   0.31246   0.00000  Uiso   1.00
H34    H     0.28334   0.87737   0.46200   0.00000  Uiso   1.00
H35    H     0.71153   0.52286   0.61452   0.00000  Uiso   1.00
H36    H     0.85866   0.58724   0.15639   0.00000  Uiso   1.00
H37    H     0.31857   0.05661   0.47172   0.00000  Uiso   1.00
O38    O     0.94244   0.47549   0.58866   0.00000  Uiso   1.00
O39    O     0.82350   0.55997   0.98761   0.00000  Uiso   1.00
O40    O     0.42689   0.17576   0.40131   0.00000  Uiso   1.00
N41    N     0.84046   0.55868   0.46564   0.00000  Uiso   1.00
N42    N     0.04309   0.61886   0.03731   0.00000  Uiso   1.00
N43    N     0.47303   0.05768   0.33210   0.00000  Uiso   1.00
N44    N     0.73135   0.54271   0.56069   0.00000  Uiso   1.00
N45    N     0.93398   0.60289   0.13237   0.00000  Uiso   1.00
N46    N     0.36392   0.04171   0.42716   0.00000  Uiso   1.00
C47    C     0.53814   0.24649   0.22998   0.00000  Uiso   1.00
C48    C     0.46045   0.19083   0.15283   0.00000  Uiso   1.00
C49    C     0.33437   0.15293   0.14092   0.00000  Uiso   1.00
C50    C     0.28037   0.10440   0.06605   0.00000  Uiso   1.00
C51    C     0.14917   0.01950   0.95552   0.00000  Uiso   1.00
C52    C     0.68021   0.20741   0.27088   0.00000  Uiso   1.00
C53    C     0.73889   0.18345   0.35822   0.00000  Uiso   1.00
C54    C     0.86990   0.14888   0.38273   0.00000  Uiso   1.00
C55    C     0.07992   0.08976   0.45548   0.00000  Uiso   1.00
C56    C     0.56169   0.32834   0.18962   0.00000  Uiso   1.00
C57    C     0.52077   0.40607   0.20867   0.00000  Uiso   1.00
C58    C     0.55202   0.47332   0.16478   0.00000  Uiso   1.00
C59    C     0.57803   0.60198   0.11138   0.00000  Uiso   1.00
C60    C     0.66645   0.22770   0.11819   0.00000  Uiso   1.00
C61    C     0.53015   0.18063   0.09211   0.00000  Uiso   1.00
C62    C     0.47633   0.13215   0.01724   0.00000  Uiso   1.00
C63    C     0.35018   0.09418   0.00522   0.00000  Uiso   1.00
C64    C     0.74990   0.19720   0.21016   0.00000  Uiso   1.00
C65    C     0.88086   0.16267   0.23455   0.00000  Uiso   1.00
C66    C     0.93972   0.13865   0.32190   0.00000  Uiso   1.00
C67    C     0.63139   0.31814   0.12890   0.00000  Uiso   1.00
C68    C     0.66272   0.38529   0.08499   0.00000  Uiso   1.00
C69    C     0.62185   0.46310   0.10395   0.00000  Uiso   1.00
H70    H     0.48389   0.25443   0.27725   0.00000  Uiso   1.00
H71    H     0.28047   0.16084   0.18793   0.00000  Uiso   1.00
H72    H     0.68494   0.19136   0.40520   0.00000  Uiso   1.00
H73    H     0.46684   0.41394   0.25566   0.00000  Uiso   1.00
H74    H     0.08570   0.05255   0.06214   0.00000  Uiso   1.00
H75    H     0.93857   0.11693   0.52027   0.00000  Uiso   1.00
H76    H     0.47866   0.58629   0.20494   0.00000  Uiso   1.00
H77    H     0.72072   0.21976   0.07092   0.00000  Uiso   1.00
H78    H     0.53029   0.12426   0.97027   0.00000  Uiso   1.00
H79    H     0.93476   0.15478   0.18754   0.00000  Uiso   1.00
H80    H     0.71666   0.37737   0.03800   0.00000  Uiso   1.00
H81    H     0.28847   0.02286   0.88548   0.00000  Uiso   1.00
H82    H     0.14134   0.08724   0.34361   0.00000  Uiso   1.00
H83    H     0.68143   0.55661   0.02828   0.00000  Uiso   1.00
O84    O     0.05756   0.97549   0.91134   0.00000  Uiso   1.00
O85    O     0.17650   0.05997   0.51239   0.00000  Uiso   1.00
O86    O     0.57311   0.67576   0.09869   0.00000  Uiso   1.00
N87    N     0.15954   0.05868   0.03436   0.00000  Uiso   1.00
N88    N     0.95691   0.11886   0.46269   0.00000  Uiso   1.00
N89    N     0.52697   0.55768   0.16790   0.00000  Uiso   1.00
N90    N     0.26865   0.04271   0.93931   0.00000  Uiso   1.00
N91    N     0.06602   0.10289   0.36763   0.00000  Uiso   1.00
N92    N     0.63608   0.54171   0.07284   0.00000  Uiso   1.00
C93    C     0.53814   0.25351   0.72998   0.00000  Uiso   1.00
C94    C     0.46045   0.30917   0.65283   0.00000  Uiso   1.00
C95    C     0.33437   0.34707   0.64092   0.00000  Uiso   1.00
C96    C     0.28037   0.39560   0.56605   0.00000  Uiso   1.00
C97    C     0.14917   0.48050   0.45552   0.00000  Uiso   1.00
C98    C     0.68021   0.29259   0.77088   0.00000  Uiso   1.00
C99    C     0.73889   0.31655   0.85822   0.00000  Uiso   1.00
C100   C     0.86990   0.35112   0.88273   0.00000  Uiso   1.00
C101   C     0.07992   0.41024   0.95548   0.00000  Uiso   1.00
C102   C     0.56169   0.17166   0.68962   0.00000  Uiso   1.00
C103   C     0.52077   0.09393   0.70867   0.00000  Uiso   1.00
C104   C     0.55202   0.02668   0.66478   0.00000  Uiso   1.00
C105   C     0.57803   0.89802   0.61138   0.00000  Uiso   1.00
C106   C     0.66645   0.27230   0.61819   0.00000  Uiso   1.00
C107   C     0.53015   0.31937   0.59211   0.00000  Uiso   1.00
C108   C     0.47633   0.36785   0.51724   0.00000  Uiso   1.00
C109   C     0.35018   0.40582   0.50522   0.00000  Uiso   1.00
C110   C     0.74990   0.30280   0.71016   0.00000  Uiso   1.00
C111   C     0.88086   0.33733   0.73455   0.00000  Uiso   1.00
C112   C     0.93972   0.36135   0.82190   0.00000  Uiso   1.00
C113   C     0.63139   0.18186   0.62890   0.00000  Uiso   1.00
C114   C     0.66272   0.11471   0.58499   0.00000  Uiso   1.00
C115   C     0.62185   0.03690   0.60395   0.00000  Uiso   1.00
H116   H     0.48389   0.24557   0.77725   0.00000  Uiso   1.00
H117   H     0.28047   0.33916   0.68793   0.00000  Uiso   1.00
H118   H     0.68494   0.30864   0.90520   0.00000  Uiso   1.00
H119   H     0.46684   0.08606   0.75566   0.00000  Uiso   1.00
H120   H     0.08570   0.44745   0.56214   0.00000  Uiso   1.00
H121   H     0.93857   0.38307   0.02027   0.00000  Uiso   1.00
H122   H     0.47866   0.91371   0.70494   0.00000  Uiso   1.00
H123   H     0.72072   0.28024   0.57092   0.00000  Uiso   1.00
H124   H     0.53029   0.37574   0.47027   0.00000  Uiso   1.00
H125   H     0.93476   0.34522   0.68754   0.00000  Uiso   1.00
H126   H     0.71666   0.12263   0.53800   0.00000  Uiso   1.00
H127   H     0.28847   0.47714   0.38548   0.00000  Uiso   1.00
H128   H     0.14134   0.41276   0.84361   0.00000  Uiso   1.00
H129   H     0.68143   0.94339   0.52828   0.00000  Uiso   1.00
O130   O     0.05756   0.52451   0.41134   0.00000  Uiso   1.00
O131   O     0.17650   0.44003   0.01239   0.00000  Uiso   1.00
O132   O     0.57311   0.82424   0.59869   0.00000  Uiso   1.00
N133   N     0.15954   0.44132   0.53436   0.00000  Uiso   1.00
N134   N     0.95691   0.38114   0.96269   0.00000  Uiso   1.00
N135   N     0.52697   0.94232   0.66790   0.00000  Uiso   1.00
N136   N     0.26865   0.45729   0.43931   0.00000  Uiso   1.00
N137   N     0.06602   0.39711   0.86763   0.00000  Uiso   1.00
N138   N     0.63608   0.95829   0.57284   0.00000  Uiso   1.00
C139   C     0.46186   0.75351   0.77002   0.00000  Uiso   1.00
C140   C     0.53955   0.80917   0.84717   0.00000  Uiso   1.00
C141   C     0.66563   0.84707   0.85908   0.00000  Uiso   1.00
C142   C     0.71963   0.89560   0.93395   0.00000  Uiso   1.00
C143   C     0.85083   0.98050   0.04448   0.00000  Uiso   1.00
C144   C     0.31979   0.79259   0.72912   0.00000  Uiso   1.00
C145   C     0.26111   0.81655   0.64178   0.00000  Uiso   1.00
C146   C     0.13010   0.85112   0.61727   0.00000  Uiso   1.00
C147   C     0.92008   0.91024   0.54452   0.00000  Uiso   1.00
C148   C     0.43831   0.67166   0.81038   0.00000  Uiso   1.00
C149   C     0.47923   0.59393   0.79133   0.00000  Uiso   1.00
C150   C     0.44798   0.52668   0.83522   0.00000  Uiso   1.00
C151   C     0.42197   0.39802   0.88862   0.00000  Uiso   1.00
C152   C     0.33355   0.77230   0.88181   0.00000  Uiso   1.00
C153   C     0.46985   0.81937   0.90789   0.00000  Uiso   1.00
C154   C     0.52367   0.86785   0.98276   0.00000  Uiso   1.00
C155   C     0.64982   0.90582   0.99478   0.00000  Uiso   1.00
C156   C     0.25010   0.80280   0.78984   0.00000  Uiso   1.00
C157   C     0.11914   0.83733   0.76545   0.00000  Uiso   1.00
C158   C     0.06028   0.86135   0.67810   0.00000  Uiso   1.00
C159   C     0.36861   0.68186   0.87110   0.00000  Uiso   1.00
C160   C     0.33728   0.61471   0.91501   0.00000  Uiso   1.00
C161   C     0.37815   0.53690   0.89605   0.00000  Uiso   1.00
H162   H     0.51611   0.74557   0.72275   0.00000  Uiso   1.00
H163   H     0.71953   0.83916   0.81207   0.00000  Uiso   1.00
H164   H     0.31506   0.80864   0.59480   0.00000  Uiso   1.00
H165   H     0.53316   0.58606   0.74434   0.00000  Uiso   1.00
H166   H     0.91430   0.94745   0.93786   0.00000  Uiso   1.00
H167   H     0.06143   0.88307   0.47973   0.00000  Uiso   1.00
H168   H     0.52134   0.41371   0.79506   0.00000  Uiso   1.00
H169   H     0.27928   0.78024   0.92908   0.00000  Uiso   1.00
H170   H     0.46971   0.87574   0.02973   0.00000  Uiso   1.00
H171   H     0.06524   0.84522   0.81246   0.00000  Uiso   1.00
H172   H     0.28334   0.62263   0.96200   0.00000  Uiso   1.00
H173   H     0.71153   0.97714   0.11452   0.00000  Uiso   1.00
H174   H     0.85866   0.91276   0.65639   0.00000  Uiso   1.00
H175   H     0.31857   0.44339   0.97172   0.00000  Uiso   1.00
O176   O     0.94244   0.02451   0.08866   0.00000  Uiso   1.00
O177   O     0.82350   0.94003   0.48761   0.00000  Uiso   1.00
O178   O     0.42689   0.32424   0.90131   0.00000  Uiso   1.00
N179   N     0.84046   0.94132   0.96564   0.00000  Uiso   1.00
N180   N     0.04309   0.88114   0.53731   0.00000  Uiso   1.00
N181   N     0.47303   0.44232   0.83210   0.00000  Uiso   1.00
N182   N     0.73135   0.95729   0.06069   0.00000  Uiso   1.00
N183   N     0.93398   0.89711   0.63237   0.00000  Uiso   1.00
N184   N     0.36392   0.45829   0.92716   0.00000  Uiso   1.00
