data_job_03930
_audit_creation_date              2018-12-19
_audit_creation_method            'Materials Studio'
_symmetry_space_group_name_H-M    'P1'
_symmetry_Int_Tables_number       1
_symmetry_cell_setting            triclinic
loop_
_symmetry_equiv_pos_as_xyz
  x,y,z
_cell_length_a                    17.8795
_cell_length_b                    11.6634
_cell_length_c                    12.6297
_cell_angle_alpha                 90.0000
_cell_angle_beta                  90.0000
_cell_angle_gamma                 90.0000
loop_
_atom_site_label
_atom_site_type_symbol
_atom_site_fract_x
_atom_site_fract_y
_atom_site_fract_z
_atom_site_U_iso_or_equiv
_atom_site_adp_type
_atom_site_occupancy
C1     C     0.03771   0.32206   0.72476   0.00000  Uiso   1.00
C2     C     0.07227   0.33772   0.61532   0.00000  Uiso   1.00
C3     C     0.06057   0.43040   0.54843   0.00000  Uiso   1.00
C4     C     0.09728   0.42867   0.45157   0.00000  Uiso   1.00
C5     C     0.14380   0.46683   0.28601   0.00000  Uiso   1.00
C6     C     0.99677   0.20742   0.72165   0.00000  Uiso   1.00
C7     C     0.92160   0.19053   0.74418   0.00000  Uiso   1.00
C8     C     0.89477   0.07911   0.73685   0.00000  Uiso   1.00
C9     C     0.82409   0.91495   0.73645   0.00000  Uiso   1.00
C10    C     0.10304   0.30600   0.80094   0.00000  Uiso   1.00
C11    C     0.11722   0.37198   0.89016   0.00000  Uiso   1.00
C12    C     0.17985   0.34354   0.94960   0.00000  Uiso   1.00
C13    C     0.27417   0.33244   0.07230   0.00000  Uiso   1.00
C14    C     0.12373   0.15419   0.67171   0.00000  Uiso   1.00
C15    C     0.11898   0.24654   0.58651   0.00000  Uiso   1.00
C16    C     0.15573   0.24467   0.48973   0.00000  Uiso   1.00
C17    C     0.14409   0.33733   0.42271   0.00000  Uiso   1.00
C18    C     0.04349   0.11623   0.69284   0.00000  Uiso   1.00
C19    C     0.01676   0.00480   0.68549   0.00000  Uiso   1.00
C20    C     0.94157   0.98776   0.70799   0.00000  Uiso   1.00
C21    C     0.14976   0.21482   0.77213   0.00000  Uiso   1.00
C22    C     0.21238   0.18625   0.83146   0.00000  Uiso   1.00
C23    C     0.22665   0.25219   0.92074   0.00000  Uiso   1.00
H24    H     0.00134   0.39305   0.74719   0.00000  Uiso   1.00
H25    H     0.02440   0.50094   0.57075   0.00000  Uiso   1.00
H26    H     0.88546   0.26111   0.76648   0.00000  Uiso   1.00
H27    H     0.08105   0.44254   0.91243   0.00000  Uiso   1.00
H28    H     0.07055   0.58034   0.36241   0.00000  Uiso   1.00
H29    H     0.77759   0.07463   0.77516   0.00000  Uiso   1.00
H30    H     0.19003   0.45720   0.08292   0.00000  Uiso   1.00
H31    H     0.16010   0.08319   0.64928   0.00000  Uiso   1.00
H32    H     0.19188   0.17409   0.46746   0.00000  Uiso   1.00
H33    H     0.05293   0.93426   0.66319   0.00000  Uiso   1.00
H34    H     0.24852   0.11569   0.80914   0.00000  Uiso   1.00
H35    H     0.20648   0.31505   0.27857   0.00000  Uiso   1.00
H36    H     0.91352   0.80935   0.69133   0.00000  Uiso   1.00
H37    H     0.32596   0.19192   0.99908   0.00000  Uiso   1.00
O38    O     0.15654   0.51306   0.20263   0.00000  Uiso   1.00
O39    O     0.77219   0.84960   0.74417   0.00000  Uiso   1.00
O40    O     0.31330   0.35152   0.14793   0.00000  Uiso   1.00
N41    N     0.09820   0.50544   0.36764   0.00000  Uiso   1.00
N42    N     0.82429   0.03264   0.75352   0.00000  Uiso   1.00
N43    N     0.20987   0.39029   0.04126   0.00000  Uiso   1.00
N44    N     0.17134   0.36269   0.32253   0.00000  Uiso   1.00
N45    N     0.89743   0.88989   0.70841   0.00000  Uiso   1.00
N46    N     0.28302   0.24754   0.99615   0.00000  Uiso   1.00
C47    C     0.96229   0.67794   0.22476   0.00000  Uiso   1.00
C48    C     0.92773   0.66228   0.11532   0.00000  Uiso   1.00
C49    C     0.93943   0.56960   0.04843   0.00000  Uiso   1.00
C50    C     0.90272   0.57133   0.95157   0.00000  Uiso   1.00
C51    C     0.85620   0.53317   0.78601   0.00000  Uiso   1.00
C52    C     0.00323   0.79258   0.22165   0.00000  Uiso   1.00
C53    C     0.07840   0.80947   0.24418   0.00000  Uiso   1.00
C54    C     0.10523   0.92089   0.23685   0.00000  Uiso   1.00
C55    C     0.17591   0.08505   0.23645   0.00000  Uiso   1.00
C56    C     0.89696   0.69400   0.30094   0.00000  Uiso   1.00
C57    C     0.88278   0.62802   0.39016   0.00000  Uiso   1.00
C58    C     0.82015   0.65646   0.44960   0.00000  Uiso   1.00
C59    C     0.72583   0.66756   0.57230   0.00000  Uiso   1.00
C60    C     0.87627   0.84581   0.17171   0.00000  Uiso   1.00
C61    C     0.88102   0.75346   0.08651   0.00000  Uiso   1.00
C62    C     0.84427   0.75533   0.98973   0.00000  Uiso   1.00
C63    C     0.85591   0.66267   0.92271   0.00000  Uiso   1.00
C64    C     0.95651   0.88377   0.19284   0.00000  Uiso   1.00
C65    C     0.98324   0.99520   0.18549   0.00000  Uiso   1.00
C66    C     0.05843   0.01224   0.20799   0.00000  Uiso   1.00
C67    C     0.85024   0.78518   0.27213   0.00000  Uiso   1.00
C68    C     0.78762   0.81375   0.33146   0.00000  Uiso   1.00
C69    C     0.77335   0.74781   0.42074   0.00000  Uiso   1.00
H70    H     0.99866   0.60695   0.24719   0.00000  Uiso   1.00
H71    H     0.97560   0.49906   0.07075   0.00000  Uiso   1.00
H72    H     0.11454   0.73889   0.26648   0.00000  Uiso   1.00
H73    H     0.91895   0.55746   0.41243   0.00000  Uiso   1.00
H74    H     0.92945   0.41966   0.86241   0.00000  Uiso   1.00
H75    H     0.22241   0.92537   0.27516   0.00000  Uiso   1.00
H76    H     0.80997   0.54280   0.58292   0.00000  Uiso   1.00
H77    H     0.83990   0.91681   0.14928   0.00000  Uiso   1.00
H78    H     0.80812   0.82591   0.96746   0.00000  Uiso   1.00
H79    H     0.94707   0.06574   0.16319   0.00000  Uiso   1.00
H80    H     0.75148   0.88431   0.30914   0.00000  Uiso   1.00
H81    H     0.79352   0.68495   0.77857   0.00000  Uiso   1.00
H82    H     0.08648   0.19065   0.19133   0.00000  Uiso   1.00
H83    H     0.67404   0.80808   0.49908   0.00000  Uiso   1.00
O84    O     0.84346   0.48694   0.70263   0.00000  Uiso   1.00
O85    O     0.22781   0.15040   0.24417   0.00000  Uiso   1.00
O86    O     0.68670   0.64848   0.64793   0.00000  Uiso   1.00
N87    N     0.90180   0.49456   0.86764   0.00000  Uiso   1.00
N88    N     0.17571   0.96736   0.25352   0.00000  Uiso   1.00
N89    N     0.79013   0.60971   0.54126   0.00000  Uiso   1.00
N90    N     0.82866   0.63731   0.82253   0.00000  Uiso   1.00
N91    N     0.10257   0.11011   0.20841   0.00000  Uiso   1.00
N92    N     0.71698   0.75246   0.49615   0.00000  Uiso   1.00
C93    C     0.53771   0.17794   0.72476   0.00000  Uiso   1.00
C94    C     0.57227   0.16228   0.61532   0.00000  Uiso   1.00
C95    C     0.56057   0.06960   0.54843   0.00000  Uiso   1.00
C96    C     0.59728   0.07133   0.45157   0.00000  Uiso   1.00
C97    C     0.64380   0.03317   0.28601   0.00000  Uiso   1.00
C98    C     0.49677   0.29258   0.72165   0.00000  Uiso   1.00
C99    C     0.42160   0.30947   0.74418   0.00000  Uiso   1.00
C100   C     0.39477   0.42089   0.73685   0.00000  Uiso   1.00
C101   C     0.32409   0.58505   0.73645   0.00000  Uiso   1.00
C102   C     0.60304   0.19400   0.80094   0.00000  Uiso   1.00
C103   C     0.61722   0.12802   0.89016   0.00000  Uiso   1.00
C104   C     0.67985   0.15646   0.94960   0.00000  Uiso   1.00
C105   C     0.77417   0.16756   0.07230   0.00000  Uiso   1.00
C106   C     0.62373   0.34581   0.67171   0.00000  Uiso   1.00
C107   C     0.61898   0.25346   0.58651   0.00000  Uiso   1.00
C108   C     0.65573   0.25533   0.48973   0.00000  Uiso   1.00
C109   C     0.64409   0.16267   0.42271   0.00000  Uiso   1.00
C110   C     0.54349   0.38377   0.69284   0.00000  Uiso   1.00
C111   C     0.51676   0.49520   0.68549   0.00000  Uiso   1.00
C112   C     0.44157   0.51224   0.70799   0.00000  Uiso   1.00
C113   C     0.64976   0.28518   0.77213   0.00000  Uiso   1.00
C114   C     0.71238   0.31375   0.83146   0.00000  Uiso   1.00
C115   C     0.72665   0.24781   0.92074   0.00000  Uiso   1.00
H116   H     0.50134   0.10695   0.74719   0.00000  Uiso   1.00
H117   H     0.52440   0.99906   0.57075   0.00000  Uiso   1.00
H118   H     0.38546   0.23889   0.76648   0.00000  Uiso   1.00
H119   H     0.58105   0.05746   0.91243   0.00000  Uiso   1.00
H120   H     0.57055   0.91966   0.36241   0.00000  Uiso   1.00
H121   H     0.27759   0.42537   0.77516   0.00000  Uiso   1.00
H122   H     0.69003   0.04280   0.08292   0.00000  Uiso   1.00
H123   H     0.66010   0.41681   0.64928   0.00000  Uiso   1.00
H124   H     0.69188   0.32591   0.46746   0.00000  Uiso   1.00
H125   H     0.55293   0.56574   0.66319   0.00000  Uiso   1.00
H126   H     0.74852   0.38431   0.80914   0.00000  Uiso   1.00
H127   H     0.70648   0.18495   0.27857   0.00000  Uiso   1.00
H128   H     0.41352   0.69065   0.69133   0.00000  Uiso   1.00
H129   H     0.82596   0.30808   0.99908   0.00000  Uiso   1.00
O130   O     0.65654   0.98694   0.20263   0.00000  Uiso   1.00
O131   O     0.27219   0.65040   0.74417   0.00000  Uiso   1.00
O132   O     0.81330   0.14848   0.14793   0.00000  Uiso   1.00
N133   N     0.59820   0.99456   0.36764   0.00000  Uiso   1.00
N134   N     0.32429   0.46736   0.75352   0.00000  Uiso   1.00
N135   N     0.70987   0.10971   0.04126   0.00000  Uiso   1.00
N136   N     0.67134   0.13731   0.32253   0.00000  Uiso   1.00
N137   N     0.39743   0.61011   0.70841   0.00000  Uiso   1.00
N138   N     0.78302   0.25246   0.99615   0.00000  Uiso   1.00
C139   C     0.46229   0.82206   0.22476   0.00000  Uiso   1.00
C140   C     0.42773   0.83772   0.11532   0.00000  Uiso   1.00
C141   C     0.43943   0.93040   0.04843   0.00000  Uiso   1.00
C142   C     0.40272   0.92867   0.95157   0.00000  Uiso   1.00
C143   C     0.35620   0.96683   0.78601   0.00000  Uiso   1.00
C144   C     0.50323   0.70742   0.22165   0.00000  Uiso   1.00
C145   C     0.57840   0.69053   0.24418   0.00000  Uiso   1.00
C146   C     0.60523   0.57911   0.23685   0.00000  Uiso   1.00
C147   C     0.67591   0.41495   0.23645   0.00000  Uiso   1.00
C148   C     0.39696   0.80600   0.30094   0.00000  Uiso   1.00
C149   C     0.38278   0.87198   0.39016   0.00000  Uiso   1.00
C150   C     0.32015   0.84354   0.44960   0.00000  Uiso   1.00
C151   C     0.22583   0.83244   0.57230   0.00000  Uiso   1.00
C152   C     0.37627   0.65419   0.17171   0.00000  Uiso   1.00
C153   C     0.38102   0.74654   0.08651   0.00000  Uiso   1.00
C154   C     0.34427   0.74467   0.98973   0.00000  Uiso   1.00
C155   C     0.35591   0.83733   0.92271   0.00000  Uiso   1.00
C156   C     0.45651   0.61623   0.19284   0.00000  Uiso   1.00
C157   C     0.48324   0.50480   0.18549   0.00000  Uiso   1.00
C158   C     0.55843   0.48776   0.20799   0.00000  Uiso   1.00
C159   C     0.35024   0.71482   0.27213   0.00000  Uiso   1.00
C160   C     0.28762   0.68625   0.33146   0.00000  Uiso   1.00
C161   C     0.27335   0.75219   0.42074   0.00000  Uiso   1.00
H162   H     0.49866   0.89305   0.24719   0.00000  Uiso   1.00
H163   H     0.47560   0.00094   0.07075   0.00000  Uiso   1.00
H164   H     0.61454   0.76111   0.26648   0.00000  Uiso   1.00
H165   H     0.41895   0.94254   0.41243   0.00000  Uiso   1.00
H166   H     0.42945   0.08034   0.86241   0.00000  Uiso   1.00
H167   H     0.72241   0.57463   0.27516   0.00000  Uiso   1.00
H168   H     0.30997   0.95720   0.58292   0.00000  Uiso   1.00
H169   H     0.33990   0.58319   0.14928   0.00000  Uiso   1.00
H170   H     0.30812   0.67409   0.96746   0.00000  Uiso   1.00
H171   H     0.44707   0.43426   0.16319   0.00000  Uiso   1.00
H172   H     0.25148   0.61569   0.30914   0.00000  Uiso   1.00
H173   H     0.29352   0.81505   0.77857   0.00000  Uiso   1.00
H174   H     0.58648   0.30935   0.19133   0.00000  Uiso   1.00
H175   H     0.17404   0.69192   0.49908   0.00000  Uiso   1.00
O176   O     0.34346   0.01306   0.70263   0.00000  Uiso   1.00
O177   O     0.72781   0.34960   0.24417   0.00000  Uiso   1.00
O178   O     0.18670   0.85152   0.64793   0.00000  Uiso   1.00
N179   N     0.40180   0.00544   0.86764   0.00000  Uiso   1.00
N180   N     0.67571   0.53264   0.25352   0.00000  Uiso   1.00
N181   N     0.29013   0.89029   0.54126   0.00000  Uiso   1.00
N182   N     0.32866   0.86269   0.82253   0.00000  Uiso   1.00
N183   N     0.60257   0.38989   0.20841   0.00000  Uiso   1.00
N184   N     0.21698   0.74754   0.49615   0.00000  Uiso   1.00
