data_job_01281
_audit_creation_date              2018-12-19
_audit_creation_method            'Materials Studio'
_symmetry_space_group_name_H-M    'P1'
_symmetry_Int_Tables_number       1
_symmetry_cell_setting            triclinic
loop_
_symmetry_equiv_pos_as_xyz
  x,y,z
_cell_length_a                    21.5216
_cell_length_b                    10.1248
_cell_length_c                    39.4233
_cell_angle_alpha                 90.0000
_cell_angle_beta                  136.6960
_cell_angle_gamma                 90.0000
loop_
_atom_site_label
_atom_site_type_symbol
_atom_site_fract_x
_atom_site_fract_y
_atom_site_fract_z
_atom_site_U_iso_or_equiv
_atom_site_adp_type
_atom_site_occupancy
C1     C     0.35952   0.39411   0.15986   0.00000  Uiso   1.00
C2     C     0.27658   0.34403   0.10777   0.00000  Uiso   1.00
C3     C     0.21749   0.24667   0.09544   0.00000  Uiso   1.00
C4     C     0.14568   0.21485   0.04568   0.00000  Uiso   1.00
C5     C     0.01879   0.12741   0.97029   0.00000  Uiso   1.00
C6     C     0.43975   0.37529   0.16785   0.00000  Uiso   1.00
C7     C     0.51783   0.30422   0.20604   0.00000  Uiso   1.00
C8     C     0.58338   0.29874   0.20686   0.00000  Uiso   1.00
C9     C     0.70983   0.25991   0.22476   0.00000  Uiso   1.00
C10    C     0.34686   0.54292   0.15844   0.00000  Uiso   1.00
C11    C     0.34688   0.61281   0.18873   0.00000  Uiso   1.00
C12    C     0.33425   0.74847   0.18164   0.00000  Uiso   1.00
C13    C     0.31647   0.96991   0.18493   0.00000  Uiso   1.00
C14    C     0.33709   0.51074   0.09342   0.00000  Uiso   1.00
C15    C     0.26441   0.40738   0.07168   0.00000  Uiso   1.00
C16    C     0.19267   0.37571   0.02193   0.00000  Uiso   1.00
C17    C     0.13348   0.27832   0.00953   0.00000  Uiso   1.00
C18    C     0.42757   0.43863   0.13176   0.00000  Uiso   1.00
C19    C     0.49302   0.43326   0.13253   0.00000  Uiso   1.00
C20    C     0.57118   0.36220   0.17071   0.00000  Uiso   1.00
C21    C     0.33468   0.60627   0.12235   0.00000  Uiso   1.00
C22    C     0.32206   0.74185   0.11522   0.00000  Uiso   1.00
C23    C     0.32205   0.81193   0.14549   0.00000  Uiso   1.00
H24    H     0.36901   0.34479   0.18796   0.00000  Uiso   1.00
H25    H     0.22694   0.19766   0.12338   0.00000  Uiso   1.00
H26    H     0.52724   0.25522   0.23396   0.00000  Uiso   1.00
H27    H     0.35630   0.56376   0.21665   0.00000  Uiso   1.00
H28    H     0.06408   0.06244   0.03586   0.00000  Uiso   1.00
H29    H     0.69730   0.18385   0.26905   0.00000  Uiso   1.00
H30    H     0.33685   0.83446   0.23255   0.00000  Uiso   1.00
H31    H     0.32761   0.56006   0.06533   0.00000  Uiso   1.00
H32    H     0.18326   0.42475   0.99401   0.00000  Uiso   1.00
H33    H     0.48357   0.48230   0.10460   0.00000  Uiso   1.00
H34    H     0.31263   0.79084   0.08729   0.00000  Uiso   1.00
H35    H     0.02863   0.24675   0.93087   0.00000  Uiso   1.00
H36    H     0.66186   0.36816   0.16406   0.00000  Uiso   1.00
H37    H     0.30140   0.01877   0.12755   0.00000  Uiso   1.00
O38    O     0.95217   0.06167   0.93867   0.00000  Uiso   1.00
O39    O     0.78293   0.22097   0.24460   0.00000  Uiso   1.00
O40    O     0.31002   0.07455   0.19671   0.00000  Uiso   1.00
N41    N     0.07554   0.12441   0.02094   0.00000  Uiso   1.00
N42    N     0.66755   0.23790   0.23895   0.00000  Uiso   1.00
N43    N     0.33058   0.84617   0.20483   0.00000  Uiso   1.00
N44    N     0.05646   0.22358   0.96444   0.00000  Uiso   1.00
N45    N     0.64848   0.33707   0.18245   0.00000  Uiso   1.00
N46    N     0.31151   0.94534   0.14834   0.00000  Uiso   1.00
C47    C     0.85952   0.89411   0.15986   0.00000  Uiso   1.00
C48    C     0.77658   0.84403   0.10777   0.00000  Uiso   1.00
C49    C     0.71749   0.74667   0.09544   0.00000  Uiso   1.00
C50    C     0.64568   0.71485   0.04568   0.00000  Uiso   1.00
C51    C     0.51879   0.62741   0.97029   0.00000  Uiso   1.00
C52    C     0.93975   0.87529   0.16785   0.00000  Uiso   1.00
C53    C     0.01783   0.80422   0.20604   0.00000  Uiso   1.00
C54    C     0.08338   0.79874   0.20686   0.00000  Uiso   1.00
C55    C     0.20983   0.75991   0.22476   0.00000  Uiso   1.00
C56    C     0.84686   0.04292   0.15844   0.00000  Uiso   1.00
C57    C     0.84688   0.11281   0.18873   0.00000  Uiso   1.00
C58    C     0.83425   0.24847   0.18164   0.00000  Uiso   1.00
C59    C     0.81647   0.46991   0.18493   0.00000  Uiso   1.00
C60    C     0.83709   0.01074   0.09342   0.00000  Uiso   1.00
C61    C     0.76441   0.90738   0.07168   0.00000  Uiso   1.00
C62    C     0.69267   0.87571   0.02193   0.00000  Uiso   1.00
C63    C     0.63348   0.77832   0.00953   0.00000  Uiso   1.00
C64    C     0.92757   0.93863   0.13176   0.00000  Uiso   1.00
C65    C     0.99302   0.93326   0.13253   0.00000  Uiso   1.00
C66    C     0.07118   0.86220   0.17071   0.00000  Uiso   1.00
C67    C     0.83468   0.10627   0.12235   0.00000  Uiso   1.00
C68    C     0.82206   0.24185   0.11522   0.00000  Uiso   1.00
C69    C     0.82205   0.31193   0.14549   0.00000  Uiso   1.00
H70    H     0.86901   0.84479   0.18796   0.00000  Uiso   1.00
H71    H     0.72694   0.69766   0.12338   0.00000  Uiso   1.00
H72    H     0.02724   0.75522   0.23396   0.00000  Uiso   1.00
H73    H     0.85630   0.06376   0.21665   0.00000  Uiso   1.00
H74    H     0.56408   0.56244   0.03586   0.00000  Uiso   1.00
H75    H     0.19730   0.68385   0.26905   0.00000  Uiso   1.00
H76    H     0.83685   0.33446   0.23255   0.00000  Uiso   1.00
H77    H     0.82761   0.06006   0.06533   0.00000  Uiso   1.00
H78    H     0.68326   0.92475   0.99401   0.00000  Uiso   1.00
H79    H     0.98357   0.98230   0.10460   0.00000  Uiso   1.00
H80    H     0.81263   0.29084   0.08729   0.00000  Uiso   1.00
H81    H     0.52863   0.74675   0.93087   0.00000  Uiso   1.00
H82    H     0.16186   0.86816   0.16406   0.00000  Uiso   1.00
H83    H     0.80140   0.51877   0.12755   0.00000  Uiso   1.00
O84    O     0.45217   0.56167   0.93867   0.00000  Uiso   1.00
O85    O     0.28293   0.72097   0.24460   0.00000  Uiso   1.00
O86    O     0.81002   0.57455   0.19671   0.00000  Uiso   1.00
N87    N     0.57554   0.62441   0.02094   0.00000  Uiso   1.00
N88    N     0.16755   0.73790   0.23895   0.00000  Uiso   1.00
N89    N     0.83058   0.34617   0.20483   0.00000  Uiso   1.00
N90    N     0.55646   0.72358   0.96444   0.00000  Uiso   1.00
N91    N     0.14848   0.83707   0.18245   0.00000  Uiso   1.00
N92    N     0.81151   0.44534   0.14834   0.00000  Uiso   1.00
C93    C     0.64048   0.39411   0.34014   0.00000  Uiso   1.00
C94    C     0.72342   0.34403   0.39223   0.00000  Uiso   1.00
C95    C     0.78251   0.24667   0.40456   0.00000  Uiso   1.00
C96    C     0.85432   0.21485   0.45432   0.00000  Uiso   1.00
C97    C     0.98121   0.12741   0.52971   0.00000  Uiso   1.00
C98    C     0.56025   0.37529   0.33215   0.00000  Uiso   1.00
C99    C     0.48217   0.30422   0.29396   0.00000  Uiso   1.00
C100   C     0.41662   0.29874   0.29314   0.00000  Uiso   1.00
C101   C     0.29017   0.25991   0.27524   0.00000  Uiso   1.00
C102   C     0.65314   0.54292   0.34156   0.00000  Uiso   1.00
C103   C     0.65312   0.61281   0.31127   0.00000  Uiso   1.00
C104   C     0.66575   0.74847   0.31836   0.00000  Uiso   1.00
C105   C     0.68353   0.96991   0.31507   0.00000  Uiso   1.00
C106   C     0.66291   0.51074   0.40658   0.00000  Uiso   1.00
C107   C     0.73559   0.40738   0.42832   0.00000  Uiso   1.00
C108   C     0.80733   0.37571   0.47807   0.00000  Uiso   1.00
C109   C     0.86652   0.27832   0.49047   0.00000  Uiso   1.00
C110   C     0.57243   0.43863   0.36824   0.00000  Uiso   1.00
C111   C     0.50698   0.43326   0.36747   0.00000  Uiso   1.00
C112   C     0.42882   0.36220   0.32929   0.00000  Uiso   1.00
C113   C     0.66532   0.60627   0.37765   0.00000  Uiso   1.00
C114   C     0.67794   0.74185   0.38478   0.00000  Uiso   1.00
C115   C     0.67795   0.81193   0.35451   0.00000  Uiso   1.00
H116   H     0.63099   0.34479   0.31204   0.00000  Uiso   1.00
H117   H     0.77306   0.19766   0.37662   0.00000  Uiso   1.00
H118   H     0.47276   0.25522   0.26604   0.00000  Uiso   1.00
H119   H     0.64370   0.56376   0.28335   0.00000  Uiso   1.00
H120   H     0.93592   0.06244   0.46414   0.00000  Uiso   1.00
H121   H     0.30270   0.18385   0.23095   0.00000  Uiso   1.00
H122   H     0.66315   0.83446   0.26745   0.00000  Uiso   1.00
H123   H     0.67239   0.56006   0.43467   0.00000  Uiso   1.00
H124   H     0.81674   0.42475   0.50599   0.00000  Uiso   1.00
H125   H     0.51643   0.48230   0.39540   0.00000  Uiso   1.00
H126   H     0.68737   0.79084   0.41271   0.00000  Uiso   1.00
H127   H     0.97137   0.24675   0.56913   0.00000  Uiso   1.00
H128   H     0.33814   0.36816   0.33594   0.00000  Uiso   1.00
H129   H     0.69860   0.01877   0.37245   0.00000  Uiso   1.00
O130   O     0.04783   0.06167   0.56133   0.00000  Uiso   1.00
O131   O     0.21707   0.22097   0.25540   0.00000  Uiso   1.00
O132   O     0.68998   0.07455   0.30329   0.00000  Uiso   1.00
N133   N     0.92446   0.12441   0.47906   0.00000  Uiso   1.00
N134   N     0.33245   0.23790   0.26105   0.00000  Uiso   1.00
N135   N     0.66942   0.84617   0.29517   0.00000  Uiso   1.00
N136   N     0.94354   0.22358   0.53556   0.00000  Uiso   1.00
N137   N     0.35152   0.33707   0.31755   0.00000  Uiso   1.00
N138   N     0.68849   0.94534   0.35166   0.00000  Uiso   1.00
C139   C     0.14048   0.89411   0.34014   0.00000  Uiso   1.00
C140   C     0.22342   0.84403   0.39223   0.00000  Uiso   1.00
C141   C     0.28251   0.74667   0.40456   0.00000  Uiso   1.00
C142   C     0.35432   0.71485   0.45432   0.00000  Uiso   1.00
C143   C     0.48121   0.62741   0.52971   0.00000  Uiso   1.00
C144   C     0.06025   0.87529   0.33215   0.00000  Uiso   1.00
C145   C     0.98217   0.80422   0.29396   0.00000  Uiso   1.00
C146   C     0.91662   0.79874   0.29314   0.00000  Uiso   1.00
C147   C     0.79017   0.75991   0.27524   0.00000  Uiso   1.00
C148   C     0.15314   0.04292   0.34156   0.00000  Uiso   1.00
C149   C     0.15312   0.11281   0.31127   0.00000  Uiso   1.00
C150   C     0.16575   0.24847   0.31836   0.00000  Uiso   1.00
C151   C     0.18353   0.46991   0.31507   0.00000  Uiso   1.00
C152   C     0.16291   0.01074   0.40658   0.00000  Uiso   1.00
C153   C     0.23559   0.90738   0.42832   0.00000  Uiso   1.00
C154   C     0.30733   0.87571   0.47807   0.00000  Uiso   1.00
C155   C     0.36652   0.77832   0.49047   0.00000  Uiso   1.00
C156   C     0.07243   0.93863   0.36824   0.00000  Uiso   1.00
C157   C     0.00698   0.93326   0.36747   0.00000  Uiso   1.00
C158   C     0.92882   0.86220   0.32929   0.00000  Uiso   1.00
C159   C     0.16532   0.10627   0.37765   0.00000  Uiso   1.00
C160   C     0.17794   0.24185   0.38478   0.00000  Uiso   1.00
C161   C     0.17795   0.31193   0.35451   0.00000  Uiso   1.00
H162   H     0.13099   0.84479   0.31204   0.00000  Uiso   1.00
H163   H     0.27306   0.69766   0.37662   0.00000  Uiso   1.00
H164   H     0.97276   0.75522   0.26604   0.00000  Uiso   1.00
H165   H     0.14370   0.06376   0.28335   0.00000  Uiso   1.00
H166   H     0.43592   0.56244   0.46414   0.00000  Uiso   1.00
H167   H     0.80270   0.68385   0.23095   0.00000  Uiso   1.00
H168   H     0.16315   0.33446   0.26745   0.00000  Uiso   1.00
H169   H     0.17239   0.06006   0.43467   0.00000  Uiso   1.00
H170   H     0.31674   0.92475   0.50599   0.00000  Uiso   1.00
H171   H     0.01643   0.98230   0.39540   0.00000  Uiso   1.00
H172   H     0.18737   0.29084   0.41271   0.00000  Uiso   1.00
H173   H     0.47137   0.74675   0.56913   0.00000  Uiso   1.00
H174   H     0.83814   0.86816   0.33594   0.00000  Uiso   1.00
H175   H     0.19860   0.51877   0.37245   0.00000  Uiso   1.00
O176   O     0.54783   0.56167   0.56133   0.00000  Uiso   1.00
O177   O     0.71707   0.72097   0.25540   0.00000  Uiso   1.00
O178   O     0.18998   0.57455   0.30329   0.00000  Uiso   1.00
N179   N     0.42446   0.62441   0.47906   0.00000  Uiso   1.00
N180   N     0.83245   0.73790   0.26105   0.00000  Uiso   1.00
N181   N     0.16942   0.34617   0.29517   0.00000  Uiso   1.00
N182   N     0.44354   0.72358   0.53556   0.00000  Uiso   1.00
N183   N     0.85152   0.83707   0.31755   0.00000  Uiso   1.00
N184   N     0.18849   0.44534   0.35166   0.00000  Uiso   1.00
C185   C     0.64048   0.60589   0.84014   0.00000  Uiso   1.00
C186   C     0.72342   0.65597   0.89223   0.00000  Uiso   1.00
C187   C     0.78251   0.75333   0.90456   0.00000  Uiso   1.00
C188   C     0.85432   0.78515   0.95432   0.00000  Uiso   1.00
C189   C     0.98121   0.87259   0.02971   0.00000  Uiso   1.00
C190   C     0.56025   0.62471   0.83215   0.00000  Uiso   1.00
C191   C     0.48217   0.69578   0.79396   0.00000  Uiso   1.00
C192   C     0.41662   0.70126   0.79314   0.00000  Uiso   1.00
C193   C     0.29017   0.74009   0.77524   0.00000  Uiso   1.00
C194   C     0.65314   0.45708   0.84156   0.00000  Uiso   1.00
C195   C     0.65312   0.38719   0.81127   0.00000  Uiso   1.00
C196   C     0.66575   0.25153   0.81836   0.00000  Uiso   1.00
C197   C     0.68353   0.03009   0.81507   0.00000  Uiso   1.00
C198   C     0.66291   0.48926   0.90658   0.00000  Uiso   1.00
C199   C     0.73559   0.59262   0.92832   0.00000  Uiso   1.00
C200   C     0.80733   0.62429   0.97807   0.00000  Uiso   1.00
C201   C     0.86652   0.72168   0.99047   0.00000  Uiso   1.00
C202   C     0.57243   0.56137   0.86824   0.00000  Uiso   1.00
C203   C     0.50698   0.56674   0.86747   0.00000  Uiso   1.00
C204   C     0.42882   0.63780   0.82929   0.00000  Uiso   1.00
C205   C     0.66532   0.39373   0.87765   0.00000  Uiso   1.00
C206   C     0.67794   0.25815   0.88478   0.00000  Uiso   1.00
C207   C     0.67795   0.18807   0.85451   0.00000  Uiso   1.00
H208   H     0.63099   0.65521   0.81204   0.00000  Uiso   1.00
H209   H     0.77306   0.80234   0.87662   0.00000  Uiso   1.00
H210   H     0.47276   0.74478   0.76604   0.00000  Uiso   1.00
H211   H     0.64370   0.43624   0.78335   0.00000  Uiso   1.00
H212   H     0.93592   0.93756   0.96414   0.00000  Uiso   1.00
H213   H     0.30270   0.81615   0.73095   0.00000  Uiso   1.00
H214   H     0.66315   0.16554   0.76745   0.00000  Uiso   1.00
H215   H     0.67239   0.43994   0.93467   0.00000  Uiso   1.00
H216   H     0.81674   0.57525   0.00599   0.00000  Uiso   1.00
H217   H     0.51643   0.51770   0.89540   0.00000  Uiso   1.00
H218   H     0.68737   0.20916   0.91271   0.00000  Uiso   1.00
H219   H     0.97137   0.75325   0.06913   0.00000  Uiso   1.00
H220   H     0.33814   0.63184   0.83594   0.00000  Uiso   1.00
H221   H     0.69860   0.98123   0.87245   0.00000  Uiso   1.00
O222   O     0.04783   0.93833   0.06133   0.00000  Uiso   1.00
O223   O     0.21707   0.77903   0.75540   0.00000  Uiso   1.00
O224   O     0.68998   0.92545   0.80329   0.00000  Uiso   1.00
N225   N     0.92446   0.87559   0.97906   0.00000  Uiso   1.00
N226   N     0.33245   0.76210   0.76105   0.00000  Uiso   1.00
N227   N     0.66942   0.15383   0.79517   0.00000  Uiso   1.00
N228   N     0.94354   0.77642   0.03556   0.00000  Uiso   1.00
N229   N     0.35152   0.66293   0.81755   0.00000  Uiso   1.00
N230   N     0.68849   0.05466   0.85166   0.00000  Uiso   1.00
C231   C     0.14048   0.10589   0.84014   0.00000  Uiso   1.00
C232   C     0.22342   0.15597   0.89223   0.00000  Uiso   1.00
C233   C     0.28251   0.25333   0.90456   0.00000  Uiso   1.00
C234   C     0.35432   0.28515   0.95432   0.00000  Uiso   1.00
C235   C     0.48121   0.37259   0.02971   0.00000  Uiso   1.00
C236   C     0.06025   0.12471   0.83215   0.00000  Uiso   1.00
C237   C     0.98217   0.19578   0.79396   0.00000  Uiso   1.00
C238   C     0.91662   0.20126   0.79314   0.00000  Uiso   1.00
C239   C     0.79017   0.24009   0.77524   0.00000  Uiso   1.00
C240   C     0.15314   0.95708   0.84156   0.00000  Uiso   1.00
C241   C     0.15312   0.88719   0.81127   0.00000  Uiso   1.00
C242   C     0.16575   0.75153   0.81836   0.00000  Uiso   1.00
C243   C     0.18353   0.53009   0.81507   0.00000  Uiso   1.00
C244   C     0.16291   0.98926   0.90658   0.00000  Uiso   1.00
C245   C     0.23559   0.09262   0.92832   0.00000  Uiso   1.00
C246   C     0.30733   0.12429   0.97807   0.00000  Uiso   1.00
C247   C     0.36652   0.22168   0.99047   0.00000  Uiso   1.00
C248   C     0.07243   0.06137   0.86824   0.00000  Uiso   1.00
C249   C     0.00698   0.06674   0.86747   0.00000  Uiso   1.00
C250   C     0.92882   0.13780   0.82929   0.00000  Uiso   1.00
C251   C     0.16532   0.89373   0.87765   0.00000  Uiso   1.00
C252   C     0.17794   0.75815   0.88478   0.00000  Uiso   1.00
C253   C     0.17795   0.68807   0.85451   0.00000  Uiso   1.00
H254   H     0.13099   0.15521   0.81204   0.00000  Uiso   1.00
H255   H     0.27306   0.30234   0.87662   0.00000  Uiso   1.00
H256   H     0.97276   0.24478   0.76604   0.00000  Uiso   1.00
H257   H     0.14370   0.93624   0.78335   0.00000  Uiso   1.00
H258   H     0.43592   0.43756   0.96414   0.00000  Uiso   1.00
H259   H     0.80270   0.31615   0.73095   0.00000  Uiso   1.00
H260   H     0.16315   0.66554   0.76745   0.00000  Uiso   1.00
H261   H     0.17239   0.93994   0.93467   0.00000  Uiso   1.00
H262   H     0.31674   0.07525   0.00599   0.00000  Uiso   1.00
H263   H     0.01643   0.01770   0.89540   0.00000  Uiso   1.00
H264   H     0.18737   0.70916   0.91271   0.00000  Uiso   1.00
H265   H     0.47137   0.25325   0.06913   0.00000  Uiso   1.00
H266   H     0.83814   0.13184   0.83594   0.00000  Uiso   1.00
H267   H     0.19860   0.48123   0.87245   0.00000  Uiso   1.00
O268   O     0.54783   0.43833   0.06133   0.00000  Uiso   1.00
O269   O     0.71707   0.27903   0.75540   0.00000  Uiso   1.00
O270   O     0.18998   0.42545   0.80329   0.00000  Uiso   1.00
N271   N     0.42446   0.37559   0.97906   0.00000  Uiso   1.00
N272   N     0.83245   0.26210   0.76105   0.00000  Uiso   1.00
N273   N     0.16942   0.65383   0.79517   0.00000  Uiso   1.00
N274   N     0.44354   0.27642   0.03556   0.00000  Uiso   1.00
N275   N     0.85152   0.16293   0.81755   0.00000  Uiso   1.00
N276   N     0.18849   0.55466   0.85166   0.00000  Uiso   1.00
C277   C     0.35952   0.60589   0.65986   0.00000  Uiso   1.00
C278   C     0.27658   0.65597   0.60777   0.00000  Uiso   1.00
C279   C     0.21749   0.75333   0.59544   0.00000  Uiso   1.00
C280   C     0.14568   0.78515   0.54568   0.00000  Uiso   1.00
C281   C     0.01879   0.87259   0.47029   0.00000  Uiso   1.00
C282   C     0.43975   0.62471   0.66785   0.00000  Uiso   1.00
C283   C     0.51783   0.69578   0.70604   0.00000  Uiso   1.00
C284   C     0.58338   0.70126   0.70686   0.00000  Uiso   1.00
C285   C     0.70983   0.74009   0.72476   0.00000  Uiso   1.00
C286   C     0.34686   0.45708   0.65844   0.00000  Uiso   1.00
C287   C     0.34688   0.38719   0.68873   0.00000  Uiso   1.00
C288   C     0.33425   0.25153   0.68164   0.00000  Uiso   1.00
C289   C     0.31647   0.03009   0.68493   0.00000  Uiso   1.00
C290   C     0.33709   0.48926   0.59342   0.00000  Uiso   1.00
C291   C     0.26441   0.59262   0.57168   0.00000  Uiso   1.00
C292   C     0.19267   0.62429   0.52193   0.00000  Uiso   1.00
C293   C     0.13348   0.72168   0.50953   0.00000  Uiso   1.00
C294   C     0.42757   0.56137   0.63176   0.00000  Uiso   1.00
C295   C     0.49302   0.56674   0.63253   0.00000  Uiso   1.00
C296   C     0.57118   0.63780   0.67071   0.00000  Uiso   1.00
C297   C     0.33468   0.39373   0.62235   0.00000  Uiso   1.00
C298   C     0.32206   0.25815   0.61522   0.00000  Uiso   1.00
C299   C     0.32205   0.18807   0.64549   0.00000  Uiso   1.00
H300   H     0.36901   0.65521   0.68796   0.00000  Uiso   1.00
H301   H     0.22694   0.80234   0.62338   0.00000  Uiso   1.00
H302   H     0.52724   0.74478   0.73396   0.00000  Uiso   1.00
H303   H     0.35630   0.43624   0.71665   0.00000  Uiso   1.00
H304   H     0.06408   0.93756   0.53586   0.00000  Uiso   1.00
H305   H     0.69730   0.81615   0.76905   0.00000  Uiso   1.00
H306   H     0.33685   0.16554   0.73255   0.00000  Uiso   1.00
H307   H     0.32761   0.43994   0.56533   0.00000  Uiso   1.00
H308   H     0.18326   0.57525   0.49401   0.00000  Uiso   1.00
H309   H     0.48357   0.51770   0.60460   0.00000  Uiso   1.00
H310   H     0.31263   0.20916   0.58729   0.00000  Uiso   1.00
H311   H     0.02863   0.75325   0.43087   0.00000  Uiso   1.00
H312   H     0.66186   0.63184   0.66406   0.00000  Uiso   1.00
H313   H     0.30140   0.98123   0.62755   0.00000  Uiso   1.00
O314   O     0.95217   0.93833   0.43867   0.00000  Uiso   1.00
O315   O     0.78293   0.77903   0.74460   0.00000  Uiso   1.00
O316   O     0.31002   0.92545   0.69671   0.00000  Uiso   1.00
N317   N     0.07554   0.87559   0.52094   0.00000  Uiso   1.00
N318   N     0.66755   0.76210   0.73895   0.00000  Uiso   1.00
N319   N     0.33058   0.15383   0.70483   0.00000  Uiso   1.00
N320   N     0.05646   0.77642   0.46444   0.00000  Uiso   1.00
N321   N     0.64848   0.66293   0.68245   0.00000  Uiso   1.00
N322   N     0.31151   0.05466   0.64834   0.00000  Uiso   1.00
C323   C     0.85952   0.10589   0.65986   0.00000  Uiso   1.00
C324   C     0.77658   0.15597   0.60777   0.00000  Uiso   1.00
C325   C     0.71749   0.25333   0.59544   0.00000  Uiso   1.00
C326   C     0.64568   0.28515   0.54568   0.00000  Uiso   1.00
C327   C     0.51879   0.37259   0.47029   0.00000  Uiso   1.00
C328   C     0.93975   0.12471   0.66785   0.00000  Uiso   1.00
C329   C     0.01783   0.19578   0.70604   0.00000  Uiso   1.00
C330   C     0.08338   0.20126   0.70686   0.00000  Uiso   1.00
C331   C     0.20983   0.24009   0.72476   0.00000  Uiso   1.00
C332   C     0.84686   0.95708   0.65844   0.00000  Uiso   1.00
C333   C     0.84688   0.88719   0.68873   0.00000  Uiso   1.00
C334   C     0.83425   0.75153   0.68164   0.00000  Uiso   1.00
C335   C     0.81647   0.53009   0.68493   0.00000  Uiso   1.00
C336   C     0.83709   0.98926   0.59342   0.00000  Uiso   1.00
C337   C     0.76441   0.09262   0.57168   0.00000  Uiso   1.00
C338   C     0.69267   0.12429   0.52193   0.00000  Uiso   1.00
C339   C     0.63348   0.22168   0.50953   0.00000  Uiso   1.00
C340   C     0.92757   0.06137   0.63176   0.00000  Uiso   1.00
C341   C     0.99302   0.06674   0.63253   0.00000  Uiso   1.00
C342   C     0.07118   0.13780   0.67071   0.00000  Uiso   1.00
C343   C     0.83468   0.89373   0.62235   0.00000  Uiso   1.00
C344   C     0.82206   0.75815   0.61522   0.00000  Uiso   1.00
C345   C     0.82205   0.68807   0.64549   0.00000  Uiso   1.00
H346   H     0.86901   0.15521   0.68796   0.00000  Uiso   1.00
H347   H     0.72694   0.30234   0.62338   0.00000  Uiso   1.00
H348   H     0.02724   0.24478   0.73396   0.00000  Uiso   1.00
H349   H     0.85630   0.93624   0.71665   0.00000  Uiso   1.00
H350   H     0.56408   0.43756   0.53586   0.00000  Uiso   1.00
H351   H     0.19730   0.31615   0.76905   0.00000  Uiso   1.00
H352   H     0.83685   0.66554   0.73255   0.00000  Uiso   1.00
H353   H     0.82761   0.93994   0.56533   0.00000  Uiso   1.00
H354   H     0.68326   0.07525   0.49401   0.00000  Uiso   1.00
H355   H     0.98357   0.01770   0.60460   0.00000  Uiso   1.00
H356   H     0.81263   0.70916   0.58729   0.00000  Uiso   1.00
H357   H     0.52863   0.25325   0.43087   0.00000  Uiso   1.00
H358   H     0.16186   0.13184   0.66406   0.00000  Uiso   1.00
H359   H     0.80140   0.48123   0.62755   0.00000  Uiso   1.00
O360   O     0.45217   0.43833   0.43867   0.00000  Uiso   1.00
O361   O     0.28293   0.27903   0.74460   0.00000  Uiso   1.00
O362   O     0.81002   0.42545   0.69671   0.00000  Uiso   1.00
N363   N     0.57554   0.37559   0.52094   0.00000  Uiso   1.00
N364   N     0.16755   0.26210   0.73895   0.00000  Uiso   1.00
N365   N     0.83058   0.65383   0.70483   0.00000  Uiso   1.00
N366   N     0.55646   0.27642   0.46444   0.00000  Uiso   1.00
N367   N     0.14848   0.16293   0.68245   0.00000  Uiso   1.00
N368   N     0.81151   0.55466   0.64834   0.00000  Uiso   1.00
