data_job_02621
_audit_creation_date              2018-12-19
_audit_creation_method            'Materials Studio'
_symmetry_space_group_name_H-M    'P1'
_symmetry_Int_Tables_number       1
_symmetry_cell_setting            triclinic
loop_
_symmetry_equiv_pos_as_xyz
  x,y,z
_cell_length_a                    11.6064
_cell_length_b                    12.5803
_cell_length_c                    23.9366
_cell_angle_alpha                 90.0000
_cell_angle_beta                  104.6100
_cell_angle_gamma                 90.0000
loop_
_atom_site_label
_atom_site_type_symbol
_atom_site_fract_x
_atom_site_fract_y
_atom_site_fract_z
_atom_site_U_iso_or_equiv
_atom_site_adp_type
_atom_site_occupancy
C1     C     0.70360   0.88123   0.63638   0.00000  Uiso   1.00
C2     C     0.70121   0.99023   0.60824   0.00000  Uiso   1.00
C3     C     0.60232   0.05575   0.59138   0.00000  Uiso   1.00
C4     C     0.61847   0.15240   0.56640   0.00000  Uiso   1.00
C5     C     0.59786   0.31707   0.52387   0.00000  Uiso   1.00
C6     C     0.75005   0.80408   0.59803   0.00000  Uiso   1.00
C7     C     0.69222   0.71306   0.57258   0.00000  Uiso   1.00
C8     C     0.74949   0.65301   0.53902   0.00000  Uiso   1.00
C9     C     0.80473   0.52862   0.48066   0.00000  Uiso   1.00
C10    C     0.79970   0.88718   0.69303   0.00000  Uiso   1.00
C11    C     0.78363   0.86602   0.74746   0.00000  Uiso   1.00
C12    C     0.88271   0.87591   0.79388   0.00000  Uiso   1.00
C13    C     0.01504   0.88056   0.88302   0.00000  Uiso   1.00
C14    C     0.90814   0.93639   0.62202   0.00000  Uiso   1.00
C15    C     0.81232   0.02019   0.60044   0.00000  Uiso   1.00
C16    C     0.82863   0.11677   0.57548   0.00000  Uiso   1.00
C17    C     0.72978   0.18242   0.55859   0.00000  Uiso   1.00
C18    C     0.86114   0.83403   0.59022   0.00000  Uiso   1.00
C19    C     0.91852   0.77409   0.55669   0.00000  Uiso   1.00
C20    C     0.86079   0.68302   0.53120   0.00000  Uiso   1.00
C21    C     0.91080   0.91714   0.68523   0.00000  Uiso   1.00
C22    C     0.00993   0.92705   0.73157   0.00000  Uiso   1.00
C23    C     0.99401   0.90592   0.78606   0.00000  Uiso   1.00
H24    H     0.61710   0.85790   0.64245   0.00000  Uiso   1.00
H25    H     0.51635   0.03253   0.59742   0.00000  Uiso   1.00
H26    H     0.60624   0.68990   0.57863   0.00000  Uiso   1.00
H27    H     0.69764   0.84284   0.75348   0.00000  Uiso   1.00
H28    H     0.45364   0.23933   0.54403   0.00000  Uiso   1.00
H29    H     0.64320   0.51685   0.50443   0.00000  Uiso   1.00
H30    H     0.83592   0.83935   0.87314   0.00000  Uiso   1.00
H31    H     0.99464   0.95971   0.61594   0.00000  Uiso   1.00
H32    H     0.91462   0.13993   0.56945   0.00000  Uiso   1.00
H33    H     0.00450   0.79729   0.55066   0.00000  Uiso   1.00
H34    H     0.09589   0.95024   0.72551   0.00000  Uiso   1.00
H35    H     0.77688   0.32650   0.52132   0.00000  Uiso   1.00
H36    H     0.96644   0.60401   0.48173   0.00000  Uiso   1.00
H37    H     0.15916   0.92652   0.85044   0.00000  Uiso   1.00
O38    O     0.55580   0.39961   0.50255   0.00000  Uiso   1.00
O39    O     0.80449   0.45174   0.45062   0.00000  Uiso   1.00
O40    O     0.05734   0.87486   0.93435   0.00000  Uiso   1.00
N41    N     0.54071   0.23512   0.54507   0.00000  Uiso   1.00
N42    N     0.71792   0.55965   0.50805   0.00000  Uiso   1.00
N43    N     0.89811   0.86114   0.85276   0.00000  Uiso   1.00
N44    N     0.71464   0.28203   0.53286   0.00000  Uiso   1.00
N45    N     0.89185   0.60656   0.49583   0.00000  Uiso   1.00
N46    N     0.07204   0.90804   0.84054   0.00000  Uiso   1.00
C47    C     0.29640   0.38123   0.86362   0.00000  Uiso   1.00
C48    C     0.29879   0.49023   0.89176   0.00000  Uiso   1.00
C49    C     0.39768   0.55575   0.90862   0.00000  Uiso   1.00
C50    C     0.38153   0.65240   0.93360   0.00000  Uiso   1.00
C51    C     0.40214   0.81707   0.97613   0.00000  Uiso   1.00
C52    C     0.24995   0.30408   0.90197   0.00000  Uiso   1.00
C53    C     0.30778   0.21306   0.92742   0.00000  Uiso   1.00
C54    C     0.25051   0.15301   0.96098   0.00000  Uiso   1.00
C55    C     0.19527   0.02862   0.01934   0.00000  Uiso   1.00
C56    C     0.20030   0.38718   0.80697   0.00000  Uiso   1.00
C57    C     0.21637   0.36602   0.75254   0.00000  Uiso   1.00
C58    C     0.11729   0.37591   0.70612   0.00000  Uiso   1.00
C59    C     0.98496   0.38056   0.61698   0.00000  Uiso   1.00
C60    C     0.09186   0.43639   0.87798   0.00000  Uiso   1.00
C61    C     0.18768   0.52019   0.89956   0.00000  Uiso   1.00
C62    C     0.17137   0.61677   0.92452   0.00000  Uiso   1.00
C63    C     0.27022   0.68242   0.94141   0.00000  Uiso   1.00
C64    C     0.13886   0.33403   0.90978   0.00000  Uiso   1.00
C65    C     0.08148   0.27409   0.94331   0.00000  Uiso   1.00
C66    C     0.13921   0.18302   0.96880   0.00000  Uiso   1.00
C67    C     0.08920   0.41714   0.81477   0.00000  Uiso   1.00
C68    C     0.99007   0.42705   0.76843   0.00000  Uiso   1.00
C69    C     0.00599   0.40592   0.71394   0.00000  Uiso   1.00
H70    H     0.38290   0.35790   0.85755   0.00000  Uiso   1.00
H71    H     0.48365   0.53253   0.90258   0.00000  Uiso   1.00
H72    H     0.39376   0.18990   0.92137   0.00000  Uiso   1.00
H73    H     0.30236   0.34284   0.74652   0.00000  Uiso   1.00
H74    H     0.54636   0.73933   0.95597   0.00000  Uiso   1.00
H75    H     0.35680   0.01685   0.99557   0.00000  Uiso   1.00
H76    H     0.16408   0.33935   0.62686   0.00000  Uiso   1.00
H77    H     0.00536   0.45971   0.88406   0.00000  Uiso   1.00
H78    H     0.08538   0.63993   0.93055   0.00000  Uiso   1.00
H79    H     0.99550   0.29729   0.94934   0.00000  Uiso   1.00
H80    H     0.90411   0.45024   0.77449   0.00000  Uiso   1.00
H81    H     0.22312   0.82650   0.97868   0.00000  Uiso   1.00
H82    H     0.03356   0.10401   0.01827   0.00000  Uiso   1.00
H83    H     0.84084   0.42652   0.64956   0.00000  Uiso   1.00
O84    O     0.44420   0.89961   0.99745   0.00000  Uiso   1.00
O85    O     0.19551   0.95174   0.04938   0.00000  Uiso   1.00
O86    O     0.94266   0.37486   0.56565   0.00000  Uiso   1.00
N87    N     0.45929   0.73512   0.95493   0.00000  Uiso   1.00
N88    N     0.28208   0.05965   0.99195   0.00000  Uiso   1.00
N89    N     0.10189   0.36114   0.64724   0.00000  Uiso   1.00
N90    N     0.28536   0.78203   0.96714   0.00000  Uiso   1.00
N91    N     0.10815   0.10656   0.00417   0.00000  Uiso   1.00
N92    N     0.92796   0.40804   0.65946   0.00000  Uiso   1.00
C93    C     0.29640   0.11877   0.36362   0.00000  Uiso   1.00
C94    C     0.29879   0.00977   0.39176   0.00000  Uiso   1.00
C95    C     0.39768   0.94425   0.40862   0.00000  Uiso   1.00
C96    C     0.38153   0.84760   0.43360   0.00000  Uiso   1.00
C97    C     0.40214   0.68293   0.47613   0.00000  Uiso   1.00
C98    C     0.24995   0.19592   0.40197   0.00000  Uiso   1.00
C99    C     0.30778   0.28694   0.42742   0.00000  Uiso   1.00
C100   C     0.25051   0.34699   0.46098   0.00000  Uiso   1.00
C101   C     0.19527   0.47138   0.51934   0.00000  Uiso   1.00
C102   C     0.20030   0.11282   0.30697   0.00000  Uiso   1.00
C103   C     0.21637   0.13398   0.25254   0.00000  Uiso   1.00
C104   C     0.11729   0.12409   0.20612   0.00000  Uiso   1.00
C105   C     0.98496   0.11944   0.11698   0.00000  Uiso   1.00
C106   C     0.09186   0.06361   0.37798   0.00000  Uiso   1.00
C107   C     0.18768   0.97981   0.39956   0.00000  Uiso   1.00
C108   C     0.17137   0.88323   0.42452   0.00000  Uiso   1.00
C109   C     0.27022   0.81758   0.44141   0.00000  Uiso   1.00
C110   C     0.13886   0.16597   0.40978   0.00000  Uiso   1.00
C111   C     0.08148   0.22591   0.44331   0.00000  Uiso   1.00
C112   C     0.13921   0.31698   0.46880   0.00000  Uiso   1.00
C113   C     0.08920   0.08286   0.31477   0.00000  Uiso   1.00
C114   C     0.99007   0.07295   0.26843   0.00000  Uiso   1.00
C115   C     0.00599   0.09408   0.21394   0.00000  Uiso   1.00
H116   H     0.38290   0.14210   0.35755   0.00000  Uiso   1.00
H117   H     0.48365   0.96747   0.40258   0.00000  Uiso   1.00
H118   H     0.39376   0.31010   0.42137   0.00000  Uiso   1.00
H119   H     0.30236   0.15716   0.24652   0.00000  Uiso   1.00
H120   H     0.54636   0.76067   0.45597   0.00000  Uiso   1.00
H121   H     0.35680   0.48315   0.49557   0.00000  Uiso   1.00
H122   H     0.16408   0.16065   0.12686   0.00000  Uiso   1.00
H123   H     0.00536   0.04029   0.38406   0.00000  Uiso   1.00
H124   H     0.08538   0.86007   0.43055   0.00000  Uiso   1.00
H125   H     0.99550   0.20271   0.44934   0.00000  Uiso   1.00
H126   H     0.90411   0.04976   0.27449   0.00000  Uiso   1.00
H127   H     0.22312   0.67350   0.47868   0.00000  Uiso   1.00
H128   H     0.03356   0.39599   0.51827   0.00000  Uiso   1.00
H129   H     0.84084   0.07348   0.14956   0.00000  Uiso   1.00
O130   O     0.44420   0.60039   0.49745   0.00000  Uiso   1.00
O131   O     0.19551   0.54826   0.54938   0.00000  Uiso   1.00
O132   O     0.94266   0.12514   0.06565   0.00000  Uiso   1.00
N133   N     0.45929   0.76488   0.45493   0.00000  Uiso   1.00
N134   N     0.28208   0.44035   0.49195   0.00000  Uiso   1.00
N135   N     0.10189   0.13886   0.14724   0.00000  Uiso   1.00
N136   N     0.28536   0.71797   0.46714   0.00000  Uiso   1.00
N137   N     0.10815   0.39344   0.50417   0.00000  Uiso   1.00
N138   N     0.92796   0.09196   0.15946   0.00000  Uiso   1.00
C139   C     0.70360   0.61877   0.13638   0.00000  Uiso   1.00
C140   C     0.70121   0.50977   0.10824   0.00000  Uiso   1.00
C141   C     0.60232   0.44425   0.09138   0.00000  Uiso   1.00
C142   C     0.61847   0.34760   0.06640   0.00000  Uiso   1.00
C143   C     0.59786   0.18293   0.02387   0.00000  Uiso   1.00
C144   C     0.75005   0.69592   0.09803   0.00000  Uiso   1.00
C145   C     0.69222   0.78694   0.07258   0.00000  Uiso   1.00
C146   C     0.74949   0.84699   0.03902   0.00000  Uiso   1.00
C147   C     0.80473   0.97138   0.98066   0.00000  Uiso   1.00
C148   C     0.79970   0.61282   0.19303   0.00000  Uiso   1.00
C149   C     0.78363   0.63398   0.24746   0.00000  Uiso   1.00
C150   C     0.88271   0.62409   0.29388   0.00000  Uiso   1.00
C151   C     0.01504   0.61944   0.38302   0.00000  Uiso   1.00
C152   C     0.90814   0.56361   0.12202   0.00000  Uiso   1.00
C153   C     0.81232   0.47981   0.10044   0.00000  Uiso   1.00
C154   C     0.82863   0.38323   0.07548   0.00000  Uiso   1.00
C155   C     0.72978   0.31758   0.05859   0.00000  Uiso   1.00
C156   C     0.86114   0.66597   0.09022   0.00000  Uiso   1.00
C157   C     0.91852   0.72591   0.05669   0.00000  Uiso   1.00
C158   C     0.86079   0.81698   0.03120   0.00000  Uiso   1.00
C159   C     0.91080   0.58286   0.18523   0.00000  Uiso   1.00
C160   C     0.00993   0.57295   0.23157   0.00000  Uiso   1.00
C161   C     0.99401   0.59408   0.28606   0.00000  Uiso   1.00
H162   H     0.61710   0.64210   0.14245   0.00000  Uiso   1.00
H163   H     0.51635   0.46747   0.09742   0.00000  Uiso   1.00
H164   H     0.60624   0.81010   0.07863   0.00000  Uiso   1.00
H165   H     0.69764   0.65716   0.25348   0.00000  Uiso   1.00
H166   H     0.45364   0.26067   0.04403   0.00000  Uiso   1.00
H167   H     0.64320   0.98315   0.00443   0.00000  Uiso   1.00
H168   H     0.83592   0.66065   0.37314   0.00000  Uiso   1.00
H169   H     0.99464   0.54029   0.11594   0.00000  Uiso   1.00
H170   H     0.91462   0.36007   0.06945   0.00000  Uiso   1.00
H171   H     0.00450   0.70271   0.05066   0.00000  Uiso   1.00
H172   H     0.09589   0.54976   0.22551   0.00000  Uiso   1.00
H173   H     0.77688   0.17350   0.02132   0.00000  Uiso   1.00
H174   H     0.96644   0.89599   0.98173   0.00000  Uiso   1.00
H175   H     0.15916   0.57348   0.35044   0.00000  Uiso   1.00
O176   O     0.55580   0.10039   0.00255   0.00000  Uiso   1.00
O177   O     0.80449   0.04826   0.95062   0.00000  Uiso   1.00
O178   O     0.05734   0.62514   0.43435   0.00000  Uiso   1.00
N179   N     0.54071   0.26488   0.04507   0.00000  Uiso   1.00
N180   N     0.71792   0.94035   0.00805   0.00000  Uiso   1.00
N181   N     0.89811   0.63886   0.35276   0.00000  Uiso   1.00
N182   N     0.71464   0.21797   0.03286   0.00000  Uiso   1.00
N183   N     0.89185   0.89344   0.99583   0.00000  Uiso   1.00
N184   N     0.07204   0.59196   0.34054   0.00000  Uiso   1.00
