data_job_03771
_audit_creation_date              2018-12-19
_audit_creation_method            'Materials Studio'
_symmetry_space_group_name_H-M    'P1'
_symmetry_Int_Tables_number       1
_symmetry_cell_setting            triclinic
loop_
_symmetry_equiv_pos_as_xyz
  x,y,z
_cell_length_a                    24.3375
_cell_length_b                    24.3375
_cell_length_c                    45.3992
_cell_angle_alpha                 90.0000
_cell_angle_beta                  90.0000
_cell_angle_gamma                 120.0000
loop_
_atom_site_label
_atom_site_type_symbol
_atom_site_fract_x
_atom_site_fract_y
_atom_site_fract_z
_atom_site_U_iso_or_equiv
_atom_site_adp_type
_atom_site_occupancy
C1     C     0.34742   0.80131   0.18148   0.00000  Uiso   1.00
C2     C     0.36277   0.85629   0.16064   0.00000  Uiso   1.00
C3     C     0.39415   0.92008   0.16822   0.00000  Uiso   1.00
C4     C     0.40360   0.96307   0.14597   0.00000  Uiso   1.00
C5     C     0.43062   0.05150   0.11799   0.00000  Uiso   1.00
C6     C     0.27579   0.75732   0.17973   0.00000  Uiso   1.00
C7     C     0.23405   0.73788   0.20337   0.00000  Uiso   1.00
C8     C     0.17027   0.69755   0.19718   0.00000  Uiso   1.00
C9     C     0.06227   0.63229   0.19885   0.00000  Uiso   1.00
C10    C     0.37694   0.76492   0.16776   0.00000  Uiso   1.00
C11    C     0.42024   0.75186   0.18133   0.00000  Uiso   1.00
C12    C     0.44162   0.71792   0.16507   0.00000  Uiso   1.00
C13    C     0.49068   0.66446   0.14814   0.00000  Uiso   1.00
C14    C     0.30837   0.76424   0.12849   0.00000  Uiso   1.00
C15    C     0.34156   0.83615   0.13186   0.00000  Uiso   1.00
C16    C     0.35096   0.87906   0.10959   0.00000  Uiso   1.00
C17    C     0.38236   0.94290   0.11714   0.00000  Uiso   1.00
C18    C     0.25458   0.73718   0.15095   0.00000  Uiso   1.00
C19    C     0.19085   0.69687   0.14473   0.00000  Uiso   1.00
C20    C     0.14903   0.67738   0.16835   0.00000  Uiso   1.00
C21    C     0.35574   0.74479   0.13898   0.00000  Uiso   1.00
C22    C     0.37705   0.71085   0.12270   0.00000  Uiso   1.00
C23    C     0.42038   0.69774   0.13623   0.00000  Uiso   1.00
H24    H     0.36392   0.81699   0.20389   0.00000  Uiso   1.00
H25    H     0.41055   0.93564   0.19050   0.00000  Uiso   1.00
H26    H     0.25047   0.75347   0.22564   0.00000  Uiso   1.00
H27    H     0.43664   0.76745   0.20360   0.00000  Uiso   1.00
H28    H     0.45288   0.05831   0.16296   0.00000  Uiso   1.00
H29    H     0.11534   0.67417   0.23705   0.00000  Uiso   1.00
H30    H     0.50792   0.70365   0.19059   0.00000  Uiso   1.00
H31    H     0.29186   0.74856   0.10608   0.00000  Uiso   1.00
H32    H     0.33454   0.86347   0.08732   0.00000  Uiso   1.00
H33    H     0.17446   0.68129   0.12246   0.00000  Uiso   1.00
H34    H     0.36063   0.69528   0.10042   0.00000  Uiso   1.00
H35    H     0.39118   0.99973   0.07921   0.00000  Uiso   1.00
H36    H     0.05364   0.61559   0.15331   0.00000  Uiso   1.00
H37    H     0.44622   0.64507   0.10684   0.00000  Uiso   1.00
O38    O     0.45138   0.10584   0.11051   0.00000  Uiso   1.00
O39    O     0.00855   0.60186   0.20772   0.00000  Uiso   1.00
O40    O     0.52361   0.64054   0.14676   0.00000  Uiso   1.00
N41    N     0.43251   0.02875   0.14582   0.00000  Uiso   1.00
N42    N     0.11693   0.66962   0.21509   0.00000  Uiso   1.00
N43    N     0.48395   0.69716   0.17166   0.00000  Uiso   1.00
N44    N     0.39931   0.99723   0.10076   0.00000  Uiso   1.00
N45    N     0.08374   0.63810   0.17003   0.00000  Uiso   1.00
N46    N     0.45075   0.66564   0.12659   0.00000  Uiso   1.00
C47    C     0.19869   0.54611   0.84815   0.00000  Uiso   1.00
C48    C     0.14371   0.50647   0.82731   0.00000  Uiso   1.00
C49    C     0.07992   0.47408   0.83489   0.00000  Uiso   1.00
C50    C     0.03693   0.44053   0.81264   0.00000  Uiso   1.00
C51    C     0.94850   0.37912   0.78466   0.00000  Uiso   1.00
C52    C     0.24268   0.51847   0.84640   0.00000  Uiso   1.00
C53    C     0.26212   0.49616   0.87003   0.00000  Uiso   1.00
C54    C     0.30245   0.47272   0.86385   0.00000  Uiso   1.00
C55    C     0.36771   0.42998   0.86551   0.00000  Uiso   1.00
C56    C     0.23508   0.61202   0.83443   0.00000  Uiso   1.00
C57    C     0.24814   0.66838   0.84799   0.00000  Uiso   1.00
C58    C     0.28208   0.72371   0.83174   0.00000  Uiso   1.00
C59    C     0.33554   0.82623   0.81481   0.00000  Uiso   1.00
C60    C     0.23576   0.54413   0.79516   0.00000  Uiso   1.00
C61    C     0.16385   0.50540   0.79853   0.00000  Uiso   1.00
C62    C     0.12094   0.47189   0.77626   0.00000  Uiso   1.00
C63    C     0.05710   0.43946   0.78380   0.00000  Uiso   1.00
C64    C     0.26282   0.51739   0.81762   0.00000  Uiso   1.00
C65    C     0.30313   0.49398   0.81140   0.00000  Uiso   1.00
C66    C     0.32262   0.47164   0.83502   0.00000  Uiso   1.00
C67    C     0.25521   0.61095   0.80564   0.00000  Uiso   1.00
C68    C     0.28915   0.66620   0.78936   0.00000  Uiso   1.00
C69    C     0.30226   0.72263   0.80290   0.00000  Uiso   1.00
H70    H     0.18301   0.54694   0.87056   0.00000  Uiso   1.00
H71    H     0.06436   0.47491   0.85717   0.00000  Uiso   1.00
H72    H     0.24653   0.49700   0.89230   0.00000  Uiso   1.00
H73    H     0.23255   0.66920   0.87027   0.00000  Uiso   1.00
H74    H     0.94169   0.39457   0.82963   0.00000  Uiso   1.00
H75    H     0.32583   0.44117   0.90372   0.00000  Uiso   1.00
H76    H     0.29635   0.80427   0.85725   0.00000  Uiso   1.00
H77    H     0.25144   0.54330   0.77275   0.00000  Uiso   1.00
H78    H     0.13653   0.47107   0.75399   0.00000  Uiso   1.00
H79    H     0.31871   0.49316   0.78912   0.00000  Uiso   1.00
H80    H     0.30472   0.66535   0.76709   0.00000  Uiso   1.00
H81    H     0.00027   0.39145   0.74588   0.00000  Uiso   1.00
H82    H     0.38441   0.43805   0.81997   0.00000  Uiso   1.00
H83    H     0.35493   0.80115   0.77351   0.00000  Uiso   1.00
O84    O     0.89416   0.34554   0.77718   0.00000  Uiso   1.00
O85    O     0.39814   0.40669   0.87438   0.00000  Uiso   1.00
O86    O     0.35946   0.88307   0.81342   0.00000  Uiso   1.00
N87    N     0.97125   0.40376   0.81249   0.00000  Uiso   1.00
N88    N     0.33038   0.44731   0.88176   0.00000  Uiso   1.00
N89    N     0.30284   0.78678   0.83832   0.00000  Uiso   1.00
N90    N     0.00277   0.40208   0.76743   0.00000  Uiso   1.00
N91    N     0.36190   0.44564   0.83670   0.00000  Uiso   1.00
N92    N     0.33436   0.78511   0.79326   0.00000  Uiso   1.00
C93    C     0.45389   0.65258   0.51482   0.00000  Uiso   1.00
C94    C     0.49353   0.63723   0.49398   0.00000  Uiso   1.00
C95    C     0.52592   0.60585   0.50155   0.00000  Uiso   1.00
C96    C     0.55947   0.59640   0.47930   0.00000  Uiso   1.00
C97    C     0.62088   0.56938   0.45132   0.00000  Uiso   1.00
C98    C     0.48153   0.72421   0.51307   0.00000  Uiso   1.00
C99    C     0.50384   0.76595   0.53670   0.00000  Uiso   1.00
C100   C     0.52728   0.82973   0.53052   0.00000  Uiso   1.00
C101   C     0.57002   0.93773   0.53218   0.00000  Uiso   1.00
C102   C     0.38798   0.62306   0.50109   0.00000  Uiso   1.00
C103   C     0.33162   0.57976   0.51466   0.00000  Uiso   1.00
C104   C     0.27629   0.55838   0.49840   0.00000  Uiso   1.00
C105   C     0.17377   0.50932   0.48148   0.00000  Uiso   1.00
C106   C     0.45587   0.69163   0.46182   0.00000  Uiso   1.00
C107   C     0.49460   0.65844   0.46519   0.00000  Uiso   1.00
C108   C     0.52811   0.64904   0.44292   0.00000  Uiso   1.00
C109   C     0.56054   0.61764   0.45047   0.00000  Uiso   1.00
C110   C     0.48261   0.74542   0.48428   0.00000  Uiso   1.00
C111   C     0.50602   0.80915   0.47807   0.00000  Uiso   1.00
C112   C     0.52836   0.85097   0.50168   0.00000  Uiso   1.00
C113   C     0.38905   0.64426   0.47231   0.00000  Uiso   1.00
C114   C     0.33380   0.62295   0.45603   0.00000  Uiso   1.00
C115   C     0.27737   0.57962   0.46957   0.00000  Uiso   1.00
H116   H     0.45306   0.63608   0.53723   0.00000  Uiso   1.00
H117   H     0.52509   0.58945   0.52383   0.00000  Uiso   1.00
H118   H     0.50300   0.74953   0.55897   0.00000  Uiso   1.00
H119   H     0.33080   0.56336   0.53694   0.00000  Uiso   1.00
H120   H     0.60543   0.54712   0.49629   0.00000  Uiso   1.00
H121   H     0.55883   0.88466   0.57038   0.00000  Uiso   1.00
H122   H     0.19573   0.49208   0.52392   0.00000  Uiso   1.00
H123   H     0.45670   0.70814   0.43941   0.00000  Uiso   1.00
H124   H     0.52893   0.66546   0.42065   0.00000  Uiso   1.00
H125   H     0.50684   0.82554   0.45579   0.00000  Uiso   1.00
H126   H     0.33465   0.63937   0.43376   0.00000  Uiso   1.00
H127   H     0.60855   0.60882   0.41255   0.00000  Uiso   1.00
H128   H     0.56195   0.94636   0.48664   0.00000  Uiso   1.00
H129   H     0.19885   0.55378   0.44017   0.00000  Uiso   1.00
O130   O     0.65446   0.54862   0.44384   0.00000  Uiso   1.00
O131   O     0.59331   0.99145   0.54105   0.00000  Uiso   1.00
O132   O     0.11693   0.47639   0.48009   0.00000  Uiso   1.00
N133   N     0.59624   0.56749   0.47916   0.00000  Uiso   1.00
N134   N     0.55269   0.88307   0.54843   0.00000  Uiso   1.00
N135   N     0.21322   0.51605   0.50499   0.00000  Uiso   1.00
N136   N     0.59792   0.60069   0.43409   0.00000  Uiso   1.00
N137   N     0.55436   0.91626   0.50336   0.00000  Uiso   1.00
N138   N     0.21489   0.54925   0.45993   0.00000  Uiso   1.00
C139   C     0.65258   0.19869   0.68148   0.00000  Uiso   1.00
C140   C     0.63723   0.14371   0.66064   0.00000  Uiso   1.00
C141   C     0.60585   0.07992   0.66822   0.00000  Uiso   1.00
C142   C     0.59640   0.03693   0.64597   0.00000  Uiso   1.00
C143   C     0.56938   0.94850   0.61799   0.00000  Uiso   1.00
C144   C     0.72421   0.24268   0.67973   0.00000  Uiso   1.00
C145   C     0.76595   0.26212   0.70337   0.00000  Uiso   1.00
C146   C     0.82973   0.30245   0.69718   0.00000  Uiso   1.00
C147   C     0.93773   0.36771   0.69885   0.00000  Uiso   1.00
C148   C     0.62306   0.23508   0.66776   0.00000  Uiso   1.00
C149   C     0.57976   0.24814   0.68133   0.00000  Uiso   1.00
C150   C     0.55838   0.28208   0.66507   0.00000  Uiso   1.00
C151   C     0.50932   0.33554   0.64814   0.00000  Uiso   1.00
C152   C     0.69163   0.23576   0.62849   0.00000  Uiso   1.00
C153   C     0.65844   0.16385   0.63186   0.00000  Uiso   1.00
C154   C     0.64904   0.12094   0.60959   0.00000  Uiso   1.00
C155   C     0.61764   0.05710   0.61714   0.00000  Uiso   1.00
C156   C     0.74542   0.26282   0.65095   0.00000  Uiso   1.00
C157   C     0.80915   0.30313   0.64473   0.00000  Uiso   1.00
C158   C     0.85097   0.32262   0.66835   0.00000  Uiso   1.00
C159   C     0.64426   0.25521   0.63898   0.00000  Uiso   1.00
C160   C     0.62295   0.28915   0.62270   0.00000  Uiso   1.00
C161   C     0.57962   0.30226   0.63623   0.00000  Uiso   1.00
H162   H     0.63608   0.18301   0.70389   0.00000  Uiso   1.00
H163   H     0.58945   0.06436   0.69050   0.00000  Uiso   1.00
H164   H     0.74953   0.24653   0.72564   0.00000  Uiso   1.00
H165   H     0.56336   0.23255   0.70360   0.00000  Uiso   1.00
H166   H     0.54712   0.94169   0.66296   0.00000  Uiso   1.00
H167   H     0.88466   0.32583   0.73705   0.00000  Uiso   1.00
H168   H     0.49208   0.29635   0.69059   0.00000  Uiso   1.00
H169   H     0.70814   0.25144   0.60608   0.00000  Uiso   1.00
H170   H     0.66546   0.13653   0.58732   0.00000  Uiso   1.00
H171   H     0.82554   0.31871   0.62246   0.00000  Uiso   1.00
H172   H     0.63937   0.30472   0.60042   0.00000  Uiso   1.00
H173   H     0.60882   0.00027   0.57921   0.00000  Uiso   1.00
H174   H     0.94636   0.38441   0.65331   0.00000  Uiso   1.00
H175   H     0.55378   0.35493   0.60684   0.00000  Uiso   1.00
O176   O     0.54862   0.89416   0.61051   0.00000  Uiso   1.00
O177   O     0.99145   0.39814   0.70772   0.00000  Uiso   1.00
O178   O     0.47639   0.35946   0.64676   0.00000  Uiso   1.00
N179   N     0.56749   0.97125   0.64582   0.00000  Uiso   1.00
N180   N     0.88307   0.33038   0.71509   0.00000  Uiso   1.00
N181   N     0.51605   0.30284   0.67166   0.00000  Uiso   1.00
N182   N     0.60069   0.00277   0.60076   0.00000  Uiso   1.00
N183   N     0.91626   0.36190   0.67003   0.00000  Uiso   1.00
N184   N     0.54925   0.33436   0.62659   0.00000  Uiso   1.00
C185   C     0.80131   0.45389   0.34815   0.00000  Uiso   1.00
C186   C     0.85629   0.49353   0.32731   0.00000  Uiso   1.00
C187   C     0.92008   0.52592   0.33489   0.00000  Uiso   1.00
C188   C     0.96307   0.55947   0.31264   0.00000  Uiso   1.00
C189   C     0.05150   0.62088   0.28466   0.00000  Uiso   1.00
C190   C     0.75732   0.48153   0.34640   0.00000  Uiso   1.00
C191   C     0.73788   0.50384   0.37003   0.00000  Uiso   1.00
C192   C     0.69755   0.52728   0.36385   0.00000  Uiso   1.00
C193   C     0.63229   0.57002   0.36551   0.00000  Uiso   1.00
C194   C     0.76492   0.38798   0.33443   0.00000  Uiso   1.00
C195   C     0.75186   0.33162   0.34799   0.00000  Uiso   1.00
C196   C     0.71792   0.27629   0.33174   0.00000  Uiso   1.00
C197   C     0.66446   0.17377   0.31481   0.00000  Uiso   1.00
C198   C     0.76424   0.45587   0.29516   0.00000  Uiso   1.00
C199   C     0.83615   0.49460   0.29853   0.00000  Uiso   1.00
C200   C     0.87906   0.52811   0.27626   0.00000  Uiso   1.00
C201   C     0.94290   0.56054   0.28380   0.00000  Uiso   1.00
C202   C     0.73718   0.48261   0.31762   0.00000  Uiso   1.00
C203   C     0.69687   0.50602   0.31140   0.00000  Uiso   1.00
C204   C     0.67738   0.52836   0.33502   0.00000  Uiso   1.00
C205   C     0.74479   0.38905   0.30564   0.00000  Uiso   1.00
C206   C     0.71085   0.33380   0.28936   0.00000  Uiso   1.00
C207   C     0.69774   0.27737   0.30290   0.00000  Uiso   1.00
H208   H     0.81699   0.45306   0.37056   0.00000  Uiso   1.00
H209   H     0.93564   0.52509   0.35717   0.00000  Uiso   1.00
H210   H     0.75347   0.50300   0.39230   0.00000  Uiso   1.00
H211   H     0.76745   0.33080   0.37027   0.00000  Uiso   1.00
H212   H     0.05831   0.60543   0.32963   0.00000  Uiso   1.00
H213   H     0.67417   0.55883   0.40372   0.00000  Uiso   1.00
H214   H     0.70365   0.19573   0.35725   0.00000  Uiso   1.00
H215   H     0.74856   0.45670   0.27275   0.00000  Uiso   1.00
H216   H     0.86347   0.52893   0.25399   0.00000  Uiso   1.00
H217   H     0.68129   0.50684   0.28912   0.00000  Uiso   1.00
H218   H     0.69528   0.33465   0.26709   0.00000  Uiso   1.00
H219   H     0.99973   0.60855   0.24588   0.00000  Uiso   1.00
H220   H     0.61559   0.56195   0.31997   0.00000  Uiso   1.00
H221   H     0.64507   0.19885   0.27351   0.00000  Uiso   1.00
O222   O     0.10584   0.65446   0.27718   0.00000  Uiso   1.00
O223   O     0.60186   0.59331   0.37438   0.00000  Uiso   1.00
O224   O     0.64054   0.11693   0.31342   0.00000  Uiso   1.00
N225   N     0.02875   0.59624   0.31249   0.00000  Uiso   1.00
N226   N     0.66962   0.55269   0.38176   0.00000  Uiso   1.00
N227   N     0.69716   0.21322   0.33832   0.00000  Uiso   1.00
N228   N     0.99723   0.59792   0.26743   0.00000  Uiso   1.00
N229   N     0.63810   0.55436   0.33670   0.00000  Uiso   1.00
N230   N     0.66564   0.21489   0.29326   0.00000  Uiso   1.00
C231   C     0.54611   0.34742   0.01482   0.00000  Uiso   1.00
C232   C     0.50647   0.36277   0.99398   0.00000  Uiso   1.00
C233   C     0.47408   0.39415   0.00155   0.00000  Uiso   1.00
C234   C     0.44053   0.40360   0.97930   0.00000  Uiso   1.00
C235   C     0.37912   0.43062   0.95132   0.00000  Uiso   1.00
C236   C     0.51847   0.27579   0.01307   0.00000  Uiso   1.00
C237   C     0.49616   0.23405   0.03670   0.00000  Uiso   1.00
C238   C     0.47272   0.17027   0.03052   0.00000  Uiso   1.00
C239   C     0.42998   0.06227   0.03218   0.00000  Uiso   1.00
C240   C     0.61202   0.37694   0.00109   0.00000  Uiso   1.00
C241   C     0.66838   0.42024   0.01466   0.00000  Uiso   1.00
C242   C     0.72371   0.44162   0.99840   0.00000  Uiso   1.00
C243   C     0.82623   0.49068   0.98148   0.00000  Uiso   1.00
C244   C     0.54413   0.30837   0.96182   0.00000  Uiso   1.00
C245   C     0.50540   0.34156   0.96519   0.00000  Uiso   1.00
C246   C     0.47189   0.35096   0.94292   0.00000  Uiso   1.00
C247   C     0.43946   0.38236   0.95047   0.00000  Uiso   1.00
C248   C     0.51739   0.25458   0.98428   0.00000  Uiso   1.00
C249   C     0.49398   0.19085   0.97807   0.00000  Uiso   1.00
C250   C     0.47164   0.14903   0.00168   0.00000  Uiso   1.00
C251   C     0.61095   0.35574   0.97231   0.00000  Uiso   1.00
C252   C     0.66620   0.37705   0.95603   0.00000  Uiso   1.00
C253   C     0.72263   0.42038   0.96957   0.00000  Uiso   1.00
H254   H     0.54694   0.36392   0.03723   0.00000  Uiso   1.00
H255   H     0.47491   0.41055   0.02383   0.00000  Uiso   1.00
H256   H     0.49700   0.25047   0.05897   0.00000  Uiso   1.00
H257   H     0.66920   0.43664   0.03694   0.00000  Uiso   1.00
H258   H     0.39457   0.45288   0.99629   0.00000  Uiso   1.00
H259   H     0.44117   0.11534   0.07038   0.00000  Uiso   1.00
H260   H     0.80427   0.50792   0.02392   0.00000  Uiso   1.00
H261   H     0.54330   0.29186   0.93941   0.00000  Uiso   1.00
H262   H     0.47107   0.33454   0.92065   0.00000  Uiso   1.00
H263   H     0.49316   0.17446   0.95579   0.00000  Uiso   1.00
H264   H     0.66535   0.36063   0.93376   0.00000  Uiso   1.00
H265   H     0.39145   0.39118   0.91255   0.00000  Uiso   1.00
H266   H     0.43805   0.05364   0.98664   0.00000  Uiso   1.00
H267   H     0.80115   0.44622   0.94017   0.00000  Uiso   1.00
O268   O     0.34554   0.45138   0.94384   0.00000  Uiso   1.00
O269   O     0.40669   0.00855   0.04105   0.00000  Uiso   1.00
O270   O     0.88307   0.52361   0.98009   0.00000  Uiso   1.00
N271   N     0.40376   0.43251   0.97916   0.00000  Uiso   1.00
N272   N     0.44731   0.11693   0.04843   0.00000  Uiso   1.00
N273   N     0.78678   0.48395   0.00499   0.00000  Uiso   1.00
N274   N     0.40208   0.39931   0.93409   0.00000  Uiso   1.00
N275   N     0.44564   0.08374   0.00336   0.00000  Uiso   1.00
N276   N     0.78511   0.45075   0.95993   0.00000  Uiso   1.00
C277   C     0.80131   0.34742   0.48518   0.00000  Uiso   1.00
C278   C     0.85629   0.36277   0.50602   0.00000  Uiso   1.00
C279   C     0.92008   0.39415   0.49845   0.00000  Uiso   1.00
C280   C     0.96307   0.40360   0.52070   0.00000  Uiso   1.00
C281   C     0.05150   0.43062   0.54868   0.00000  Uiso   1.00
C282   C     0.75732   0.27579   0.48693   0.00000  Uiso   1.00
C283   C     0.73788   0.23405   0.46330   0.00000  Uiso   1.00
C284   C     0.69755   0.17027   0.46948   0.00000  Uiso   1.00
C285   C     0.63229   0.06227   0.46782   0.00000  Uiso   1.00
C286   C     0.76492   0.37694   0.49891   0.00000  Uiso   1.00
C287   C     0.75186   0.42024   0.48534   0.00000  Uiso   1.00
C288   C     0.71792   0.44162   0.50160   0.00000  Uiso   1.00
C289   C     0.66446   0.49068   0.51852   0.00000  Uiso   1.00
C290   C     0.76424   0.30837   0.53818   0.00000  Uiso   1.00
C291   C     0.83615   0.34156   0.53481   0.00000  Uiso   1.00
C292   C     0.87906   0.35096   0.55708   0.00000  Uiso   1.00
C293   C     0.94290   0.38236   0.54953   0.00000  Uiso   1.00
C294   C     0.73718   0.25458   0.51572   0.00000  Uiso   1.00
C295   C     0.69687   0.19085   0.52193   0.00000  Uiso   1.00
C296   C     0.67738   0.14903   0.49832   0.00000  Uiso   1.00
C297   C     0.74479   0.35574   0.52769   0.00000  Uiso   1.00
C298   C     0.71085   0.37705   0.54397   0.00000  Uiso   1.00
C299   C     0.69774   0.42038   0.53043   0.00000  Uiso   1.00
H300   H     0.81699   0.36392   0.46277   0.00000  Uiso   1.00
H301   H     0.93564   0.41055   0.47617   0.00000  Uiso   1.00
H302   H     0.75347   0.25047   0.44103   0.00000  Uiso   1.00
H303   H     0.76745   0.43664   0.46306   0.00000  Uiso   1.00
H304   H     0.05831   0.45288   0.50371   0.00000  Uiso   1.00
H305   H     0.67417   0.11534   0.42962   0.00000  Uiso   1.00
H306   H     0.70365   0.50792   0.47608   0.00000  Uiso   1.00
H307   H     0.74856   0.29186   0.56059   0.00000  Uiso   1.00
H308   H     0.86347   0.33454   0.57935   0.00000  Uiso   1.00
H309   H     0.68129   0.17446   0.54421   0.00000  Uiso   1.00
H310   H     0.69528   0.36063   0.56624   0.00000  Uiso   1.00
H311   H     0.99973   0.39118   0.58745   0.00000  Uiso   1.00
H312   H     0.61559   0.05364   0.51336   0.00000  Uiso   1.00
H313   H     0.64507   0.44622   0.55983   0.00000  Uiso   1.00
O314   O     0.10584   0.45138   0.55616   0.00000  Uiso   1.00
O315   O     0.60186   0.00855   0.45895   0.00000  Uiso   1.00
O316   O     0.64054   0.52361   0.51991   0.00000  Uiso   1.00
N317   N     0.02875   0.43251   0.52084   0.00000  Uiso   1.00
N318   N     0.66962   0.11693   0.45157   0.00000  Uiso   1.00
N319   N     0.69716   0.48395   0.49501   0.00000  Uiso   1.00
N320   N     0.99723   0.39931   0.56591   0.00000  Uiso   1.00
N321   N     0.63810   0.08374   0.49664   0.00000  Uiso   1.00
N322   N     0.66564   0.45075   0.54007   0.00000  Uiso   1.00
C323   C     0.54611   0.19869   0.81852   0.00000  Uiso   1.00
C324   C     0.50647   0.14371   0.83936   0.00000  Uiso   1.00
C325   C     0.47408   0.07992   0.83178   0.00000  Uiso   1.00
C326   C     0.44053   0.03693   0.85403   0.00000  Uiso   1.00
C327   C     0.37912   0.94850   0.88201   0.00000  Uiso   1.00
C328   C     0.51847   0.24268   0.82027   0.00000  Uiso   1.00
C329   C     0.49616   0.26212   0.79663   0.00000  Uiso   1.00
C330   C     0.47272   0.30245   0.80282   0.00000  Uiso   1.00
C331   C     0.42998   0.36771   0.80115   0.00000  Uiso   1.00
C332   C     0.61202   0.23508   0.83224   0.00000  Uiso   1.00
C333   C     0.66838   0.24814   0.81867   0.00000  Uiso   1.00
C334   C     0.72371   0.28208   0.83493   0.00000  Uiso   1.00
C335   C     0.82623   0.33554   0.85186   0.00000  Uiso   1.00
C336   C     0.54413   0.23576   0.87151   0.00000  Uiso   1.00
C337   C     0.50540   0.16385   0.86814   0.00000  Uiso   1.00
C338   C     0.47189   0.12094   0.89041   0.00000  Uiso   1.00
C339   C     0.43946   0.05710   0.88286   0.00000  Uiso   1.00
C340   C     0.51739   0.26282   0.84905   0.00000  Uiso   1.00
C341   C     0.49398   0.30313   0.85527   0.00000  Uiso   1.00
C342   C     0.47164   0.32262   0.83165   0.00000  Uiso   1.00
C343   C     0.61095   0.25521   0.86102   0.00000  Uiso   1.00
C344   C     0.66620   0.28915   0.87730   0.00000  Uiso   1.00
C345   C     0.72263   0.30226   0.86377   0.00000  Uiso   1.00
H346   H     0.54694   0.18301   0.79611   0.00000  Uiso   1.00
H347   H     0.47491   0.06436   0.80950   0.00000  Uiso   1.00
H348   H     0.49700   0.24653   0.77436   0.00000  Uiso   1.00
H349   H     0.66920   0.23255   0.79640   0.00000  Uiso   1.00
H350   H     0.39457   0.94169   0.83704   0.00000  Uiso   1.00
H351   H     0.44117   0.32583   0.76295   0.00000  Uiso   1.00
H352   H     0.80427   0.29635   0.80941   0.00000  Uiso   1.00
H353   H     0.54330   0.25144   0.89392   0.00000  Uiso   1.00
H354   H     0.47107   0.13653   0.91268   0.00000  Uiso   1.00
H355   H     0.49316   0.31871   0.87754   0.00000  Uiso   1.00
H356   H     0.66535   0.30472   0.89958   0.00000  Uiso   1.00
H357   H     0.39145   0.00027   0.92079   0.00000  Uiso   1.00
H358   H     0.43805   0.38441   0.84669   0.00000  Uiso   1.00
H359   H     0.80115   0.35493   0.89316   0.00000  Uiso   1.00
O360   O     0.34554   0.89416   0.88949   0.00000  Uiso   1.00
O361   O     0.40669   0.39814   0.79228   0.00000  Uiso   1.00
O362   O     0.88307   0.35946   0.85324   0.00000  Uiso   1.00
N363   N     0.40376   0.97125   0.85418   0.00000  Uiso   1.00
N364   N     0.44731   0.33038   0.78491   0.00000  Uiso   1.00
N365   N     0.78678   0.30284   0.82834   0.00000  Uiso   1.00
N366   N     0.40208   0.00277   0.89924   0.00000  Uiso   1.00
N367   N     0.44564   0.36190   0.82997   0.00000  Uiso   1.00
N368   N     0.78511   0.33436   0.87341   0.00000  Uiso   1.00
C369   C     0.65258   0.45389   0.15185   0.00000  Uiso   1.00
C370   C     0.63723   0.49353   0.17269   0.00000  Uiso   1.00
C371   C     0.60585   0.52592   0.16511   0.00000  Uiso   1.00
C372   C     0.59640   0.55947   0.18736   0.00000  Uiso   1.00
C373   C     0.56938   0.62088   0.21534   0.00000  Uiso   1.00
C374   C     0.72421   0.48153   0.15360   0.00000  Uiso   1.00
C375   C     0.76595   0.50384   0.12997   0.00000  Uiso   1.00
C376   C     0.82973   0.52728   0.13615   0.00000  Uiso   1.00
C377   C     0.93773   0.57002   0.13449   0.00000  Uiso   1.00
C378   C     0.62306   0.38798   0.16557   0.00000  Uiso   1.00
C379   C     0.57976   0.33162   0.15201   0.00000  Uiso   1.00
C380   C     0.55838   0.27629   0.16826   0.00000  Uiso   1.00
C381   C     0.50932   0.17377   0.18519   0.00000  Uiso   1.00
C382   C     0.69163   0.45587   0.20484   0.00000  Uiso   1.00
C383   C     0.65844   0.49460   0.20147   0.00000  Uiso   1.00
C384   C     0.64904   0.52811   0.22374   0.00000  Uiso   1.00
C385   C     0.61764   0.56054   0.21620   0.00000  Uiso   1.00
C386   C     0.74542   0.48261   0.18238   0.00000  Uiso   1.00
C387   C     0.80915   0.50602   0.18860   0.00000  Uiso   1.00
C388   C     0.85097   0.52836   0.16498   0.00000  Uiso   1.00
C389   C     0.64426   0.38905   0.19436   0.00000  Uiso   1.00
C390   C     0.62295   0.33380   0.21064   0.00000  Uiso   1.00
C391   C     0.57962   0.27737   0.19710   0.00000  Uiso   1.00
H392   H     0.63608   0.45306   0.12944   0.00000  Uiso   1.00
H393   H     0.58945   0.52509   0.14283   0.00000  Uiso   1.00
H394   H     0.74953   0.50300   0.10770   0.00000  Uiso   1.00
H395   H     0.56336   0.33080   0.12973   0.00000  Uiso   1.00
H396   H     0.54712   0.60543   0.17037   0.00000  Uiso   1.00
H397   H     0.88466   0.55883   0.09628   0.00000  Uiso   1.00
H398   H     0.49208   0.19573   0.14275   0.00000  Uiso   1.00
H399   H     0.70814   0.45670   0.22725   0.00000  Uiso   1.00
H400   H     0.66546   0.52893   0.24601   0.00000  Uiso   1.00
H401   H     0.82554   0.50684   0.21088   0.00000  Uiso   1.00
H402   H     0.63937   0.33465   0.23291   0.00000  Uiso   1.00
H403   H     0.60882   0.60855   0.25412   0.00000  Uiso   1.00
H404   H     0.94636   0.56195   0.18003   0.00000  Uiso   1.00
H405   H     0.55378   0.19885   0.22649   0.00000  Uiso   1.00
O406   O     0.54862   0.65446   0.22282   0.00000  Uiso   1.00
O407   O     0.99145   0.59331   0.12562   0.00000  Uiso   1.00
O408   O     0.47639   0.11693   0.18658   0.00000  Uiso   1.00
N409   N     0.56749   0.59624   0.18751   0.00000  Uiso   1.00
N410   N     0.88307   0.55269   0.11824   0.00000  Uiso   1.00
N411   N     0.51605   0.21322   0.16168   0.00000  Uiso   1.00
N412   N     0.60069   0.59792   0.23257   0.00000  Uiso   1.00
N413   N     0.91626   0.55436   0.16330   0.00000  Uiso   1.00
N414   N     0.54925   0.21489   0.20674   0.00000  Uiso   1.00
C415   C     0.19869   0.65258   0.98518   0.00000  Uiso   1.00
C416   C     0.14371   0.63723   0.00602   0.00000  Uiso   1.00
C417   C     0.07992   0.60585   0.99845   0.00000  Uiso   1.00
C418   C     0.03693   0.59640   0.02070   0.00000  Uiso   1.00
C419   C     0.94850   0.56938   0.04868   0.00000  Uiso   1.00
C420   C     0.24268   0.72421   0.98693   0.00000  Uiso   1.00
C421   C     0.26212   0.76595   0.96330   0.00000  Uiso   1.00
C422   C     0.30245   0.82973   0.96948   0.00000  Uiso   1.00
C423   C     0.36771   0.93773   0.96782   0.00000  Uiso   1.00
C424   C     0.23508   0.62306   0.99891   0.00000  Uiso   1.00
C425   C     0.24814   0.57976   0.98534   0.00000  Uiso   1.00
C426   C     0.28208   0.55838   0.00160   0.00000  Uiso   1.00
C427   C     0.33554   0.50932   0.01852   0.00000  Uiso   1.00
C428   C     0.23576   0.69163   0.03818   0.00000  Uiso   1.00
C429   C     0.16385   0.65844   0.03481   0.00000  Uiso   1.00
C430   C     0.12094   0.64904   0.05708   0.00000  Uiso   1.00
C431   C     0.05710   0.61764   0.04953   0.00000  Uiso   1.00
C432   C     0.26282   0.74542   0.01572   0.00000  Uiso   1.00
C433   C     0.30313   0.80915   0.02193   0.00000  Uiso   1.00
C434   C     0.32262   0.85097   0.99832   0.00000  Uiso   1.00
C435   C     0.25521   0.64426   0.02769   0.00000  Uiso   1.00
C436   C     0.28915   0.62295   0.04397   0.00000  Uiso   1.00
C437   C     0.30226   0.57962   0.03043   0.00000  Uiso   1.00
H438   H     0.18301   0.63608   0.96277   0.00000  Uiso   1.00
H439   H     0.06436   0.58945   0.97617   0.00000  Uiso   1.00
H440   H     0.24653   0.74953   0.94103   0.00000  Uiso   1.00
H441   H     0.23255   0.56336   0.96306   0.00000  Uiso   1.00
H442   H     0.94169   0.54712   0.00371   0.00000  Uiso   1.00
H443   H     0.32583   0.88466   0.92962   0.00000  Uiso   1.00
H444   H     0.29635   0.49208   0.97608   0.00000  Uiso   1.00
H445   H     0.25144   0.70814   0.06059   0.00000  Uiso   1.00
H446   H     0.13653   0.66546   0.07935   0.00000  Uiso   1.00
H447   H     0.31871   0.82554   0.04421   0.00000  Uiso   1.00
H448   H     0.30472   0.63937   0.06624   0.00000  Uiso   1.00
H449   H     0.00027   0.60882   0.08745   0.00000  Uiso   1.00
H450   H     0.38441   0.94636   0.01336   0.00000  Uiso   1.00
H451   H     0.35493   0.55378   0.05983   0.00000  Uiso   1.00
O452   O     0.89416   0.54862   0.05616   0.00000  Uiso   1.00
O453   O     0.39814   0.99145   0.95895   0.00000  Uiso   1.00
O454   O     0.35946   0.47639   0.01991   0.00000  Uiso   1.00
N455   N     0.97125   0.56749   0.02084   0.00000  Uiso   1.00
N456   N     0.33038   0.88307   0.95157   0.00000  Uiso   1.00
N457   N     0.30284   0.51605   0.99501   0.00000  Uiso   1.00
N458   N     0.00277   0.60069   0.06591   0.00000  Uiso   1.00
N459   N     0.36190   0.91626   0.99664   0.00000  Uiso   1.00
N460   N     0.33436   0.54925   0.04007   0.00000  Uiso   1.00
C461   C     0.45389   0.80131   0.31852   0.00000  Uiso   1.00
C462   C     0.49353   0.85629   0.33936   0.00000  Uiso   1.00
C463   C     0.52592   0.92008   0.33178   0.00000  Uiso   1.00
C464   C     0.55947   0.96307   0.35403   0.00000  Uiso   1.00
C465   C     0.62088   0.05150   0.38201   0.00000  Uiso   1.00
C466   C     0.48153   0.75732   0.32027   0.00000  Uiso   1.00
C467   C     0.50384   0.73788   0.29663   0.00000  Uiso   1.00
C468   C     0.52728   0.69755   0.30282   0.00000  Uiso   1.00
C469   C     0.57002   0.63229   0.30115   0.00000  Uiso   1.00
C470   C     0.38798   0.76492   0.33224   0.00000  Uiso   1.00
C471   C     0.33162   0.75186   0.31867   0.00000  Uiso   1.00
C472   C     0.27629   0.71792   0.33493   0.00000  Uiso   1.00
C473   C     0.17377   0.66446   0.35186   0.00000  Uiso   1.00
C474   C     0.45587   0.76424   0.37151   0.00000  Uiso   1.00
C475   C     0.49460   0.83615   0.36814   0.00000  Uiso   1.00
C476   C     0.52811   0.87906   0.39041   0.00000  Uiso   1.00
C477   C     0.56054   0.94290   0.38286   0.00000  Uiso   1.00
C478   C     0.48261   0.73718   0.34905   0.00000  Uiso   1.00
C479   C     0.50602   0.69687   0.35527   0.00000  Uiso   1.00
C480   C     0.52836   0.67738   0.33165   0.00000  Uiso   1.00
C481   C     0.38905   0.74479   0.36102   0.00000  Uiso   1.00
C482   C     0.33380   0.71085   0.37730   0.00000  Uiso   1.00
C483   C     0.27737   0.69774   0.36377   0.00000  Uiso   1.00
H484   H     0.45306   0.81699   0.29611   0.00000  Uiso   1.00
H485   H     0.52509   0.93564   0.30950   0.00000  Uiso   1.00
H486   H     0.50300   0.75347   0.27436   0.00000  Uiso   1.00
H487   H     0.33080   0.76745   0.29640   0.00000  Uiso   1.00
H488   H     0.60543   0.05831   0.33704   0.00000  Uiso   1.00
H489   H     0.55883   0.67417   0.26295   0.00000  Uiso   1.00
H490   H     0.19573   0.70365   0.30941   0.00000  Uiso   1.00
H491   H     0.45670   0.74856   0.39392   0.00000  Uiso   1.00
H492   H     0.52893   0.86347   0.41268   0.00000  Uiso   1.00
H493   H     0.50684   0.68129   0.37754   0.00000  Uiso   1.00
H494   H     0.33465   0.69528   0.39958   0.00000  Uiso   1.00
H495   H     0.60855   0.99973   0.42079   0.00000  Uiso   1.00
H496   H     0.56195   0.61559   0.34669   0.00000  Uiso   1.00
H497   H     0.19885   0.64507   0.39316   0.00000  Uiso   1.00
O498   O     0.65446   0.10584   0.38949   0.00000  Uiso   1.00
O499   O     0.59331   0.60186   0.29228   0.00000  Uiso   1.00
O500   O     0.11693   0.64054   0.35324   0.00000  Uiso   1.00
N501   N     0.59624   0.02875   0.35418   0.00000  Uiso   1.00
N502   N     0.55269   0.66962   0.28491   0.00000  Uiso   1.00
N503   N     0.21322   0.69716   0.32834   0.00000  Uiso   1.00
N504   N     0.59792   0.99723   0.39924   0.00000  Uiso   1.00
N505   N     0.55436   0.63810   0.32997   0.00000  Uiso   1.00
N506   N     0.21489   0.66564   0.37341   0.00000  Uiso   1.00
C507   C     0.34742   0.54611   0.65185   0.00000  Uiso   1.00
C508   C     0.36277   0.50647   0.67269   0.00000  Uiso   1.00
C509   C     0.39415   0.47408   0.66511   0.00000  Uiso   1.00
C510   C     0.40360   0.44053   0.68736   0.00000  Uiso   1.00
C511   C     0.43062   0.37912   0.71534   0.00000  Uiso   1.00
C512   C     0.27579   0.51847   0.65360   0.00000  Uiso   1.00
C513   C     0.23405   0.49616   0.62997   0.00000  Uiso   1.00
C514   C     0.17027   0.47272   0.63615   0.00000  Uiso   1.00
C515   C     0.06227   0.42998   0.63449   0.00000  Uiso   1.00
C516   C     0.37694   0.61202   0.66557   0.00000  Uiso   1.00
C517   C     0.42024   0.66838   0.65201   0.00000  Uiso   1.00
C518   C     0.44162   0.72371   0.66826   0.00000  Uiso   1.00
C519   C     0.49068   0.82623   0.68519   0.00000  Uiso   1.00
C520   C     0.30837   0.54413   0.70484   0.00000  Uiso   1.00
C521   C     0.34156   0.50540   0.70147   0.00000  Uiso   1.00
C522   C     0.35096   0.47189   0.72374   0.00000  Uiso   1.00
C523   C     0.38236   0.43946   0.71620   0.00000  Uiso   1.00
C524   C     0.25458   0.51739   0.68238   0.00000  Uiso   1.00
C525   C     0.19085   0.49398   0.68860   0.00000  Uiso   1.00
C526   C     0.14903   0.47164   0.66498   0.00000  Uiso   1.00
C527   C     0.35574   0.61095   0.69436   0.00000  Uiso   1.00
C528   C     0.37705   0.66620   0.71064   0.00000  Uiso   1.00
C529   C     0.42038   0.72263   0.69710   0.00000  Uiso   1.00
H530   H     0.36392   0.54694   0.62944   0.00000  Uiso   1.00
H531   H     0.41055   0.47491   0.64283   0.00000  Uiso   1.00
H532   H     0.25047   0.49700   0.60770   0.00000  Uiso   1.00
H533   H     0.43664   0.66920   0.62973   0.00000  Uiso   1.00
H534   H     0.45288   0.39457   0.67037   0.00000  Uiso   1.00
H535   H     0.11534   0.44117   0.59628   0.00000  Uiso   1.00
H536   H     0.50792   0.80427   0.64275   0.00000  Uiso   1.00
H537   H     0.29186   0.54330   0.72725   0.00000  Uiso   1.00
H538   H     0.33454   0.47107   0.74601   0.00000  Uiso   1.00
H539   H     0.17446   0.49316   0.71088   0.00000  Uiso   1.00
H540   H     0.36063   0.66535   0.73291   0.00000  Uiso   1.00
H541   H     0.39118   0.39145   0.75412   0.00000  Uiso   1.00
H542   H     0.05364   0.43805   0.68003   0.00000  Uiso   1.00
H543   H     0.44622   0.80115   0.72649   0.00000  Uiso   1.00
O544   O     0.45138   0.34554   0.72282   0.00000  Uiso   1.00
O545   O     0.00855   0.40669   0.62562   0.00000  Uiso   1.00
O546   O     0.52361   0.88307   0.68658   0.00000  Uiso   1.00
N547   N     0.43251   0.40376   0.68751   0.00000  Uiso   1.00
N548   N     0.11693   0.44731   0.61824   0.00000  Uiso   1.00
N549   N     0.48395   0.78678   0.66168   0.00000  Uiso   1.00
N550   N     0.39931   0.40208   0.73257   0.00000  Uiso   1.00
N551   N     0.08374   0.44564   0.66330   0.00000  Uiso   1.00
N552   N     0.45075   0.78511   0.70674   0.00000  Uiso   1.00
