data_job_00359
_audit_creation_date              2018-12-19
_audit_creation_method            'Materials Studio'
_symmetry_space_group_name_H-M    'P1'
_symmetry_Int_Tables_number       1
_symmetry_cell_setting            triclinic
loop_
_symmetry_equiv_pos_as_xyz
  x,y,z
_cell_length_a                    17.6940
_cell_length_b                    25.1491
_cell_length_c                    12.2191
_cell_angle_alpha                 90.0000
_cell_angle_beta                  123.9030
_cell_angle_gamma                 90.0000
loop_
_atom_site_label
_atom_site_type_symbol
_atom_site_fract_x
_atom_site_fract_y
_atom_site_fract_z
_atom_site_U_iso_or_equiv
_atom_site_adp_type
_atom_site_occupancy
C1     C     0.97432   0.56267   0.62865   0.00000  Uiso   1.00
C2     C     0.00883   0.57332   0.77217   0.00000  Uiso   1.00
C3     C     0.05083   0.53648   0.87394   0.00000  Uiso   1.00
C4     C     0.07743   0.55403   0.99831   0.00000  Uiso   1.00
C5     C     0.13324   0.56257   0.21785   0.00000  Uiso   1.00
C6     C     0.87373   0.57773   0.54769   0.00000  Uiso   1.00
C7     C     0.80215   0.54460   0.46071   0.00000  Uiso   1.00
C8     C     0.71503   0.56586   0.39609   0.00000  Uiso   1.00
C9     C     0.56111   0.58126   0.26705   0.00000  Uiso   1.00
C10    C     0.02157   0.60321   0.59343   0.00000  Uiso   1.00
C11    C     0.07428   0.59150   0.54486   0.00000  Uiso   1.00
C12    C     0.11162   0.63422   0.51872   0.00000  Uiso   1.00
C13    C     0.18725   0.68917   0.46069   0.00000  Uiso   1.00
C14    C     0.94687   0.65934   0.66855   0.00000  Uiso   1.00
C15    C     0.99391   0.62583   0.79384   0.00000  Uiso   1.00
C16    C     0.02047   0.64344   0.91809   0.00000  Uiso   1.00
C17    C     0.06250   0.60663   0.02002   0.00000  Uiso   1.00
C18    C     0.85882   0.63023   0.56936   0.00000  Uiso   1.00
C19    C     0.77179   0.65155   0.50485   0.00000  Uiso   1.00
C20    C     0.70010   0.61846   0.41780   0.00000  Uiso   1.00
C21    C     0.00667   0.65571   0.61510   0.00000  Uiso   1.00
C22    C     0.04392   0.69845   0.58901   0.00000  Uiso   1.00
C23    C     0.09669   0.68682   0.54043   0.00000  Uiso   1.00
H24    H     0.98591   0.52179   0.61178   0.00000  Uiso   1.00
H25    H     0.06234   0.49585   0.85713   0.00000  Uiso   1.00
H26    H     0.81371   0.50397   0.44395   0.00000  Uiso   1.00
H27    H     0.08580   0.55087   0.52811   0.00000  Uiso   1.00
H28    H     0.14048   0.49024   0.13870   0.00000  Uiso   1.00
H29    H     0.61622   0.50737   0.26746   0.00000  Uiso   1.00
H30    H     0.18998   0.60626   0.44490   0.00000  Uiso   1.00
H31    H     0.93526   0.70022   0.68542   0.00000  Uiso   1.00
H32    H     0.00892   0.68407   0.93482   0.00000  Uiso   1.00
H33    H     0.76028   0.69219   0.52164   0.00000  Uiso   1.00
H34    H     0.03237   0.73908   0.60579   0.00000  Uiso   1.00
H35    H     0.09711   0.64301   0.20176   0.00000  Uiso   1.00
H36    H     0.57285   0.66013   0.33050   0.00000  Uiso   1.00
H37    H     0.14661   0.75902   0.50796   0.00000  Uiso   1.00
O38    O     0.16813   0.55278   0.33296   0.00000  Uiso   1.00
O39    O     0.48033   0.57525   0.18990   0.00000  Uiso   1.00
O40    O     0.23309   0.70498   0.42271   0.00000  Uiso   1.00
N41    N     0.12018   0.52842   0.11932   0.00000  Uiso   1.00
N42    N     0.63003   0.54442   0.30477   0.00000  Uiso   1.00
N43    N     0.16643   0.63687   0.47064   0.00000  Uiso   1.00
N44    N     0.09685   0.61062   0.15325   0.00000  Uiso   1.00
N45    N     0.60669   0.62662   0.33870   0.00000  Uiso   1.00
N46    N     0.14309   0.71907   0.50457   0.00000  Uiso   1.00
C47    C     0.49257   0.08253   0.71868   0.00000  Uiso   1.00
C48    C     0.54057   0.08552   0.86794   0.00000  Uiso   1.00
C49    C     0.56601   0.04238   0.95238   0.00000  Uiso   1.00
C50    C     0.60921   0.05345   0.08574   0.00000  Uiso   1.00
C51    C     0.68111   0.05013   0.31035   0.00000  Uiso   1.00
C52    C     0.40580   0.11535   0.66036   0.00000  Uiso   1.00
C53    C     0.31793   0.09730   0.57025   0.00000  Uiso   1.00
C54    C     0.24768   0.13349   0.52885   0.00000  Uiso   1.00
C55    C     0.11035   0.17649   0.43110   0.00000  Uiso   1.00
C56    C     0.55289   0.11277   0.68713   0.00000  Uiso   1.00
C57    C     0.58867   0.09255   0.61950   0.00000  Uiso   1.00
C58    C     0.64225   0.12657   0.60061   0.00000  Uiso   1.00
C59    C     0.73330   0.16556   0.54442   0.00000  Uiso   1.00
C60    C     0.52406   0.17890   0.80536   0.00000  Uiso   1.00
C61    C     0.55767   0.13786   0.91502   0.00000  Uiso   1.00
C62    C     0.60085   0.14900   0.04829   0.00000  Uiso   1.00
C63    C     0.62635   0.10589   0.13291   0.00000  Uiso   1.00
C64    C     0.42290   0.16769   0.70744   0.00000  Uiso   1.00
C65    C     0.35277   0.20392   0.66616   0.00000  Uiso   1.00
C66    C     0.26481   0.18593   0.57602   0.00000  Uiso   1.00
C67    C     0.57000   0.16511   0.73421   0.00000  Uiso   1.00
C68    C     0.62352   0.19917   0.71541   0.00000  Uiso   1.00
C69    C     0.65938   0.17901   0.64777   0.00000  Uiso   1.00
H70    H     0.47924   0.04178   0.68201   0.00000  Uiso   1.00
H71    H     0.55275   0.00188   0.91591   0.00000  Uiso   1.00
H72    H     0.30471   0.05679   0.53382   0.00000  Uiso   1.00
H73    H     0.57542   0.05204   0.58308   0.00000  Uiso   1.00
H74    H     0.64176   0.98073   0.19598   0.00000  Uiso   1.00
H75    H     0.11876   0.09651   0.39030   0.00000  Uiso   1.00
H76    H     0.68960   0.08650   0.49415   0.00000  Uiso   1.00
H77    H     0.53737   0.21965   0.84201   0.00000  Uiso   1.00
H78    H     0.61408   0.18951   0.08470   0.00000  Uiso   1.00
H79    H     0.36603   0.24442   0.70261   0.00000  Uiso   1.00
H80    H     0.63674   0.23967   0.75186   0.00000  Uiso   1.00
H81    H     0.69153   0.13302   0.33297   0.00000  Uiso   1.00
H82    H     0.16853   0.24880   0.52729   0.00000  Uiso   1.00
H83    H     0.73937   0.23879   0.63114   0.00000  Uiso   1.00
O84    O     0.71603   0.03384   0.42122   0.00000  Uiso   1.00
O85    O     0.02987   0.18574   0.36419   0.00000  Uiso   1.00
O86    O     0.77881   0.17260   0.50044   0.00000  Uiso   1.00
N87    N     0.64297   0.02071   0.19492   0.00000  Uiso   1.00
N88    N     0.15399   0.12895   0.44167   0.00000  Uiso   1.00
N89    N     0.68766   0.11960   0.53873   0.00000  Uiso   1.00
N90    N     0.66975   0.10265   0.26863   0.00000  Uiso   1.00
N91    N     0.18077   0.21090   0.51539   0.00000  Uiso   1.00
N92    N     0.71444   0.20154   0.61245   0.00000  Uiso   1.00
C93    C     0.02568   0.06267   0.87135   0.00000  Uiso   1.00
C94    C     0.99117   0.07332   0.72783   0.00000  Uiso   1.00
C95    C     0.94917   0.03648   0.62606   0.00000  Uiso   1.00
C96    C     0.92257   0.05403   0.50169   0.00000  Uiso   1.00
C97    C     0.86676   0.06257   0.28215   0.00000  Uiso   1.00
C98    C     0.12627   0.07773   0.95231   0.00000  Uiso   1.00
C99    C     0.19785   0.04460   0.03929   0.00000  Uiso   1.00
C100   C     0.28497   0.06586   0.10391   0.00000  Uiso   1.00
C101   C     0.43889   0.08126   0.23295   0.00000  Uiso   1.00
C102   C     0.97843   0.10321   0.90657   0.00000  Uiso   1.00
C103   C     0.92572   0.09150   0.95514   0.00000  Uiso   1.00
C104   C     0.88838   0.13422   0.98128   0.00000  Uiso   1.00
C105   C     0.81275   0.18917   0.03931   0.00000  Uiso   1.00
C106   C     0.05313   0.15934   0.83145   0.00000  Uiso   1.00
C107   C     0.00609   0.12583   0.70616   0.00000  Uiso   1.00
C108   C     0.97953   0.14344   0.58191   0.00000  Uiso   1.00
C109   C     0.93750   0.10663   0.47998   0.00000  Uiso   1.00
C110   C     0.14118   0.13023   0.93064   0.00000  Uiso   1.00
C111   C     0.22821   0.15155   0.99515   0.00000  Uiso   1.00
C112   C     0.29990   0.11846   0.08220   0.00000  Uiso   1.00
C113   C     0.99333   0.15571   0.88490   0.00000  Uiso   1.00
C114   C     0.95608   0.19845   0.91099   0.00000  Uiso   1.00
C115   C     0.90331   0.18682   0.95957   0.00000  Uiso   1.00
H116   H     0.01409   0.02179   0.88822   0.00000  Uiso   1.00
H117   H     0.93766   0.99585   0.64287   0.00000  Uiso   1.00
H118   H     0.18629   0.00397   0.05605   0.00000  Uiso   1.00
H119   H     0.91420   0.05087   0.97189   0.00000  Uiso   1.00
H120   H     0.85952   0.99024   0.36130   0.00000  Uiso   1.00
H121   H     0.38378   0.00737   0.23254   0.00000  Uiso   1.00
H122   H     0.81002   0.10626   0.05510   0.00000  Uiso   1.00
H123   H     0.06474   0.20022   0.81458   0.00000  Uiso   1.00
H124   H     0.99108   0.18407   0.56518   0.00000  Uiso   1.00
H125   H     0.23972   0.19219   0.97836   0.00000  Uiso   1.00
H126   H     0.96763   0.23908   0.89421   0.00000  Uiso   1.00
H127   H     0.90289   0.14301   0.29824   0.00000  Uiso   1.00
H128   H     0.42715   0.16013   0.16950   0.00000  Uiso   1.00
H129   H     0.85339   0.25902   0.99204   0.00000  Uiso   1.00
O130   O     0.83187   0.05278   0.16704   0.00000  Uiso   1.00
O131   O     0.51967   0.07525   0.31010   0.00000  Uiso   1.00
O132   O     0.76691   0.20498   0.07729   0.00000  Uiso   1.00
N133   N     0.87982   0.02842   0.38068   0.00000  Uiso   1.00
N134   N     0.36997   0.04442   0.19523   0.00000  Uiso   1.00
N135   N     0.83357   0.13687   0.02936   0.00000  Uiso   1.00
N136   N     0.90315   0.11062   0.34675   0.00000  Uiso   1.00
N137   N     0.39331   0.12662   0.16130   0.00000  Uiso   1.00
N138   N     0.85691   0.21907   0.99543   0.00000  Uiso   1.00
C139   C     0.50743   0.58253   0.78132   0.00000  Uiso   1.00
C140   C     0.45943   0.58552   0.63206   0.00000  Uiso   1.00
C141   C     0.43399   0.54238   0.54762   0.00000  Uiso   1.00
C142   C     0.39079   0.55345   0.41426   0.00000  Uiso   1.00
C143   C     0.31889   0.55013   0.18965   0.00000  Uiso   1.00
C144   C     0.59420   0.61535   0.83964   0.00000  Uiso   1.00
C145   C     0.68207   0.59730   0.92975   0.00000  Uiso   1.00
C146   C     0.75232   0.63349   0.97115   0.00000  Uiso   1.00
C147   C     0.88965   0.67649   0.06890   0.00000  Uiso   1.00
C148   C     0.44711   0.61277   0.81287   0.00000  Uiso   1.00
C149   C     0.41133   0.59255   0.88050   0.00000  Uiso   1.00
C150   C     0.35775   0.62657   0.89939   0.00000  Uiso   1.00
C151   C     0.26670   0.66556   0.95558   0.00000  Uiso   1.00
C152   C     0.47594   0.67890   0.69464   0.00000  Uiso   1.00
C153   C     0.44233   0.63786   0.58498   0.00000  Uiso   1.00
C154   C     0.39915   0.64900   0.45171   0.00000  Uiso   1.00
C155   C     0.37365   0.60589   0.36709   0.00000  Uiso   1.00
C156   C     0.57710   0.66769   0.79256   0.00000  Uiso   1.00
C157   C     0.64723   0.70392   0.83384   0.00000  Uiso   1.00
C158   C     0.73519   0.68593   0.92398   0.00000  Uiso   1.00
C159   C     0.43000   0.66511   0.76579   0.00000  Uiso   1.00
C160   C     0.37648   0.69917   0.78459   0.00000  Uiso   1.00
C161   C     0.34062   0.67901   0.85223   0.00000  Uiso   1.00
H162   H     0.52076   0.54178   0.81799   0.00000  Uiso   1.00
H163   H     0.44725   0.50188   0.58409   0.00000  Uiso   1.00
H164   H     0.69529   0.55679   0.96618   0.00000  Uiso   1.00
H165   H     0.42458   0.55204   0.91692   0.00000  Uiso   1.00
H166   H     0.35824   0.48073   0.30402   0.00000  Uiso   1.00
H167   H     0.88124   0.59651   0.10970   0.00000  Uiso   1.00
H168   H     0.31040   0.58650   0.00585   0.00000  Uiso   1.00
H169   H     0.46263   0.71965   0.65799   0.00000  Uiso   1.00
H170   H     0.38592   0.68951   0.41530   0.00000  Uiso   1.00
H171   H     0.63397   0.74442   0.79739   0.00000  Uiso   1.00
H172   H     0.36326   0.73967   0.74814   0.00000  Uiso   1.00
H173   H     0.30847   0.63302   0.16703   0.00000  Uiso   1.00
H174   H     0.83147   0.74880   0.97271   0.00000  Uiso   1.00
H175   H     0.26063   0.73879   0.86886   0.00000  Uiso   1.00
O176   O     0.28397   0.53384   0.07878   0.00000  Uiso   1.00
O177   O     0.97013   0.68574   0.13581   0.00000  Uiso   1.00
O178   O     0.22119   0.67260   0.99956   0.00000  Uiso   1.00
N179   N     0.35703   0.52071   0.30508   0.00000  Uiso   1.00
N180   N     0.84601   0.62895   0.05833   0.00000  Uiso   1.00
N181   N     0.31234   0.61960   0.96127   0.00000  Uiso   1.00
N182   N     0.33025   0.60265   0.23137   0.00000  Uiso   1.00
N183   N     0.81923   0.71090   0.98461   0.00000  Uiso   1.00
N184   N     0.28556   0.70154   0.88755   0.00000  Uiso   1.00
C185   C     0.02568   0.43733   0.37135   0.00000  Uiso   1.00
C186   C     0.99117   0.42668   0.22783   0.00000  Uiso   1.00
C187   C     0.94917   0.46352   0.12606   0.00000  Uiso   1.00
C188   C     0.92257   0.44597   0.00169   0.00000  Uiso   1.00
C189   C     0.86676   0.43743   0.78215   0.00000  Uiso   1.00
C190   C     0.12627   0.42227   0.45231   0.00000  Uiso   1.00
C191   C     0.19785   0.45540   0.53929   0.00000  Uiso   1.00
C192   C     0.28497   0.43414   0.60391   0.00000  Uiso   1.00
C193   C     0.43889   0.41874   0.73295   0.00000  Uiso   1.00
C194   C     0.97843   0.39679   0.40657   0.00000  Uiso   1.00
C195   C     0.92572   0.40850   0.45514   0.00000  Uiso   1.00
C196   C     0.88838   0.36578   0.48128   0.00000  Uiso   1.00
C197   C     0.81275   0.31083   0.53931   0.00000  Uiso   1.00
C198   C     0.05313   0.34066   0.33145   0.00000  Uiso   1.00
C199   C     0.00609   0.37417   0.20616   0.00000  Uiso   1.00
C200   C     0.97953   0.35656   0.08191   0.00000  Uiso   1.00
C201   C     0.93750   0.39337   0.97998   0.00000  Uiso   1.00
C202   C     0.14118   0.36977   0.43064   0.00000  Uiso   1.00
C203   C     0.22821   0.34845   0.49515   0.00000  Uiso   1.00
C204   C     0.29990   0.38154   0.58220   0.00000  Uiso   1.00
C205   C     0.99333   0.34429   0.38490   0.00000  Uiso   1.00
C206   C     0.95608   0.30155   0.41099   0.00000  Uiso   1.00
C207   C     0.90331   0.31318   0.45957   0.00000  Uiso   1.00
H208   H     0.01409   0.47821   0.38822   0.00000  Uiso   1.00
H209   H     0.93766   0.50415   0.14287   0.00000  Uiso   1.00
H210   H     0.18629   0.49603   0.55605   0.00000  Uiso   1.00
H211   H     0.91420   0.44913   0.47189   0.00000  Uiso   1.00
H212   H     0.85952   0.50976   0.86130   0.00000  Uiso   1.00
H213   H     0.38378   0.49263   0.73254   0.00000  Uiso   1.00
H214   H     0.81002   0.39374   0.55510   0.00000  Uiso   1.00
H215   H     0.06474   0.29978   0.31458   0.00000  Uiso   1.00
H216   H     0.99108   0.31593   0.06518   0.00000  Uiso   1.00
H217   H     0.23972   0.30781   0.47836   0.00000  Uiso   1.00
H218   H     0.96763   0.26092   0.39421   0.00000  Uiso   1.00
H219   H     0.90289   0.35699   0.79824   0.00000  Uiso   1.00
H220   H     0.42715   0.33987   0.66950   0.00000  Uiso   1.00
H221   H     0.85339   0.24098   0.49204   0.00000  Uiso   1.00
O222   O     0.83187   0.44722   0.66704   0.00000  Uiso   1.00
O223   O     0.51967   0.42475   0.81010   0.00000  Uiso   1.00
O224   O     0.76691   0.29502   0.57729   0.00000  Uiso   1.00
N225   N     0.87982   0.47158   0.88068   0.00000  Uiso   1.00
N226   N     0.36997   0.45558   0.69523   0.00000  Uiso   1.00
N227   N     0.83357   0.36313   0.52936   0.00000  Uiso   1.00
N228   N     0.90315   0.38938   0.84675   0.00000  Uiso   1.00
N229   N     0.39331   0.37338   0.66130   0.00000  Uiso   1.00
N230   N     0.85691   0.28093   0.49543   0.00000  Uiso   1.00
C231   C     0.50743   0.91747   0.28132   0.00000  Uiso   1.00
C232   C     0.45943   0.91448   0.13206   0.00000  Uiso   1.00
C233   C     0.43399   0.95762   0.04762   0.00000  Uiso   1.00
C234   C     0.39079   0.94655   0.91426   0.00000  Uiso   1.00
C235   C     0.31889   0.94987   0.68965   0.00000  Uiso   1.00
C236   C     0.59420   0.88465   0.33964   0.00000  Uiso   1.00
C237   C     0.68207   0.90270   0.42975   0.00000  Uiso   1.00
C238   C     0.75232   0.86651   0.47115   0.00000  Uiso   1.00
C239   C     0.88965   0.82351   0.56890   0.00000  Uiso   1.00
C240   C     0.44711   0.88723   0.31287   0.00000  Uiso   1.00
C241   C     0.41133   0.90745   0.38050   0.00000  Uiso   1.00
C242   C     0.35775   0.87343   0.39939   0.00000  Uiso   1.00
C243   C     0.26670   0.83444   0.45558   0.00000  Uiso   1.00
C244   C     0.47594   0.82110   0.19464   0.00000  Uiso   1.00
C245   C     0.44233   0.86214   0.08498   0.00000  Uiso   1.00
C246   C     0.39915   0.85100   0.95171   0.00000  Uiso   1.00
C247   C     0.37365   0.89411   0.86709   0.00000  Uiso   1.00
C248   C     0.57710   0.83231   0.29256   0.00000  Uiso   1.00
C249   C     0.64723   0.79608   0.33384   0.00000  Uiso   1.00
C250   C     0.73519   0.81407   0.42398   0.00000  Uiso   1.00
C251   C     0.43000   0.83489   0.26579   0.00000  Uiso   1.00
C252   C     0.37648   0.80083   0.28459   0.00000  Uiso   1.00
C253   C     0.34062   0.82099   0.35223   0.00000  Uiso   1.00
H254   H     0.52076   0.95822   0.31799   0.00000  Uiso   1.00
H255   H     0.44725   0.99812   0.08409   0.00000  Uiso   1.00
H256   H     0.69529   0.94321   0.46618   0.00000  Uiso   1.00
H257   H     0.42458   0.94796   0.41692   0.00000  Uiso   1.00
H258   H     0.35824   0.01927   0.80402   0.00000  Uiso   1.00
H259   H     0.88124   0.90349   0.60970   0.00000  Uiso   1.00
H260   H     0.31040   0.91350   0.50585   0.00000  Uiso   1.00
H261   H     0.46263   0.78035   0.15799   0.00000  Uiso   1.00
H262   H     0.38592   0.81049   0.91530   0.00000  Uiso   1.00
H263   H     0.63397   0.75558   0.29739   0.00000  Uiso   1.00
H264   H     0.36326   0.76033   0.24814   0.00000  Uiso   1.00
H265   H     0.30847   0.86698   0.66703   0.00000  Uiso   1.00
H266   H     0.83147   0.75120   0.47271   0.00000  Uiso   1.00
H267   H     0.26063   0.76121   0.36886   0.00000  Uiso   1.00
O268   O     0.28397   0.96616   0.57878   0.00000  Uiso   1.00
O269   O     0.97013   0.81426   0.63581   0.00000  Uiso   1.00
O270   O     0.22119   0.82740   0.49956   0.00000  Uiso   1.00
N271   N     0.35703   0.97929   0.80508   0.00000  Uiso   1.00
N272   N     0.84601   0.87105   0.55833   0.00000  Uiso   1.00
N273   N     0.31234   0.88040   0.46127   0.00000  Uiso   1.00
N274   N     0.33025   0.89735   0.73137   0.00000  Uiso   1.00
N275   N     0.81923   0.78910   0.48461   0.00000  Uiso   1.00
N276   N     0.28556   0.79846   0.38755   0.00000  Uiso   1.00
C277   C     0.97432   0.93733   0.12865   0.00000  Uiso   1.00
C278   C     0.00883   0.92668   0.27217   0.00000  Uiso   1.00
C279   C     0.05083   0.96352   0.37394   0.00000  Uiso   1.00
C280   C     0.07743   0.94597   0.49831   0.00000  Uiso   1.00
C281   C     0.13324   0.93743   0.71785   0.00000  Uiso   1.00
C282   C     0.87373   0.92227   0.04769   0.00000  Uiso   1.00
C283   C     0.80215   0.95540   0.96071   0.00000  Uiso   1.00
C284   C     0.71503   0.93414   0.89609   0.00000  Uiso   1.00
C285   C     0.56111   0.91874   0.76705   0.00000  Uiso   1.00
C286   C     0.02157   0.89679   0.09343   0.00000  Uiso   1.00
C287   C     0.07428   0.90850   0.04486   0.00000  Uiso   1.00
C288   C     0.11162   0.86578   0.01872   0.00000  Uiso   1.00
C289   C     0.18725   0.81083   0.96069   0.00000  Uiso   1.00
C290   C     0.94687   0.84066   0.16855   0.00000  Uiso   1.00
C291   C     0.99391   0.87417   0.29384   0.00000  Uiso   1.00
C292   C     0.02047   0.85656   0.41809   0.00000  Uiso   1.00
C293   C     0.06250   0.89337   0.52002   0.00000  Uiso   1.00
C294   C     0.85882   0.86977   0.06936   0.00000  Uiso   1.00
C295   C     0.77179   0.84845   0.00485   0.00000  Uiso   1.00
C296   C     0.70010   0.88154   0.91780   0.00000  Uiso   1.00
C297   C     0.00667   0.84429   0.11510   0.00000  Uiso   1.00
C298   C     0.04392   0.80155   0.08901   0.00000  Uiso   1.00
C299   C     0.09669   0.81318   0.04043   0.00000  Uiso   1.00
H300   H     0.98591   0.97821   0.11178   0.00000  Uiso   1.00
H301   H     0.06234   0.00415   0.35713   0.00000  Uiso   1.00
H302   H     0.81371   0.99603   0.94395   0.00000  Uiso   1.00
H303   H     0.08580   0.94913   0.02811   0.00000  Uiso   1.00
H304   H     0.14048   0.00976   0.63870   0.00000  Uiso   1.00
H305   H     0.61622   0.99263   0.76746   0.00000  Uiso   1.00
H306   H     0.18998   0.89374   0.94490   0.00000  Uiso   1.00
H307   H     0.93526   0.79978   0.18542   0.00000  Uiso   1.00
H308   H     0.00892   0.81593   0.43482   0.00000  Uiso   1.00
H309   H     0.76028   0.80781   0.02164   0.00000  Uiso   1.00
H310   H     0.03237   0.76092   0.10579   0.00000  Uiso   1.00
H311   H     0.09711   0.85699   0.70176   0.00000  Uiso   1.00
H312   H     0.57285   0.83987   0.83050   0.00000  Uiso   1.00
H313   H     0.14661   0.74098   0.00796   0.00000  Uiso   1.00
O314   O     0.16813   0.94722   0.83296   0.00000  Uiso   1.00
O315   O     0.48033   0.92475   0.68990   0.00000  Uiso   1.00
O316   O     0.23309   0.79502   0.92271   0.00000  Uiso   1.00
N317   N     0.12018   0.97158   0.61932   0.00000  Uiso   1.00
N318   N     0.63003   0.95558   0.80477   0.00000  Uiso   1.00
N319   N     0.16643   0.86313   0.97064   0.00000  Uiso   1.00
N320   N     0.09685   0.88938   0.65325   0.00000  Uiso   1.00
N321   N     0.60669   0.87338   0.83870   0.00000  Uiso   1.00
N322   N     0.14309   0.78093   0.00457   0.00000  Uiso   1.00
C323   C     0.49257   0.41747   0.21868   0.00000  Uiso   1.00
C324   C     0.54057   0.41448   0.36794   0.00000  Uiso   1.00
C325   C     0.56601   0.45762   0.45238   0.00000  Uiso   1.00
C326   C     0.60921   0.44655   0.58574   0.00000  Uiso   1.00
C327   C     0.68111   0.44987   0.81035   0.00000  Uiso   1.00
C328   C     0.40580   0.38465   0.16036   0.00000  Uiso   1.00
C329   C     0.31793   0.40270   0.07025   0.00000  Uiso   1.00
C330   C     0.24768   0.36651   0.02885   0.00000  Uiso   1.00
C331   C     0.11035   0.32351   0.93110   0.00000  Uiso   1.00
C332   C     0.55289   0.38723   0.18713   0.00000  Uiso   1.00
C333   C     0.58867   0.40745   0.11950   0.00000  Uiso   1.00
C334   C     0.64225   0.37343   0.10061   0.00000  Uiso   1.00
C335   C     0.73330   0.33444   0.04442   0.00000  Uiso   1.00
C336   C     0.52406   0.32110   0.30536   0.00000  Uiso   1.00
C337   C     0.55767   0.36214   0.41502   0.00000  Uiso   1.00
C338   C     0.60085   0.35100   0.54829   0.00000  Uiso   1.00
C339   C     0.62635   0.39411   0.63291   0.00000  Uiso   1.00
C340   C     0.42290   0.33231   0.20744   0.00000  Uiso   1.00
C341   C     0.35277   0.29608   0.16616   0.00000  Uiso   1.00
C342   C     0.26481   0.31407   0.07602   0.00000  Uiso   1.00
C343   C     0.57000   0.33489   0.23421   0.00000  Uiso   1.00
C344   C     0.62352   0.30083   0.21541   0.00000  Uiso   1.00
C345   C     0.65938   0.32099   0.14777   0.00000  Uiso   1.00
H346   H     0.47924   0.45822   0.18201   0.00000  Uiso   1.00
H347   H     0.55275   0.49812   0.41591   0.00000  Uiso   1.00
H348   H     0.30471   0.44321   0.03382   0.00000  Uiso   1.00
H349   H     0.57542   0.44796   0.08308   0.00000  Uiso   1.00
H350   H     0.64176   0.51927   0.69598   0.00000  Uiso   1.00
H351   H     0.11876   0.40349   0.89030   0.00000  Uiso   1.00
H352   H     0.68960   0.41350   0.99415   0.00000  Uiso   1.00
H353   H     0.53737   0.28035   0.34201   0.00000  Uiso   1.00
H354   H     0.61408   0.31049   0.58470   0.00000  Uiso   1.00
H355   H     0.36603   0.25558   0.20261   0.00000  Uiso   1.00
H356   H     0.63674   0.26033   0.25186   0.00000  Uiso   1.00
H357   H     0.69153   0.36698   0.83297   0.00000  Uiso   1.00
H358   H     0.16853   0.25120   0.02729   0.00000  Uiso   1.00
H359   H     0.73937   0.26121   0.13114   0.00000  Uiso   1.00
O360   O     0.71603   0.46616   0.92122   0.00000  Uiso   1.00
O361   O     0.02987   0.31426   0.86419   0.00000  Uiso   1.00
O362   O     0.77881   0.32740   0.00044   0.00000  Uiso   1.00
N363   N     0.64297   0.47929   0.69492   0.00000  Uiso   1.00
N364   N     0.15399   0.37105   0.94167   0.00000  Uiso   1.00
N365   N     0.68766   0.38040   0.03873   0.00000  Uiso   1.00
N366   N     0.66975   0.39735   0.76863   0.00000  Uiso   1.00
N367   N     0.18077   0.28910   0.01539   0.00000  Uiso   1.00
N368   N     0.71444   0.29846   0.11245   0.00000  Uiso   1.00
