data_job_01719
_audit_creation_date              2018-12-19
_audit_creation_method            'Materials Studio'
_symmetry_space_group_name_H-M    'P1'
_symmetry_Int_Tables_number       1
_symmetry_cell_setting            triclinic
loop_
_symmetry_equiv_pos_as_xyz
  x,y,z
_cell_length_a                    23.3828
_cell_length_b                    19.5627
_cell_length_c                    26.5617
_cell_angle_alpha                 90.0000
_cell_angle_beta                  121.9633
_cell_angle_gamma                 90.0000
loop_
_atom_site_label
_atom_site_type_symbol
_atom_site_fract_x
_atom_site_fract_y
_atom_site_fract_z
_atom_site_U_iso_or_equiv
_atom_site_adp_type
_atom_site_occupancy
C1     C     0.21694   0.91616   0.04079   0.00000  Uiso   1.00
C2     C     0.14685   0.88725   0.01827   0.00000  Uiso   1.00
C3     C     0.10724   0.85206   0.96541   0.00000  Uiso   1.00
C4     C     0.04461   0.82977   0.95281   0.00000  Uiso   1.00
C5     C     0.93914   0.78300   0.91190   0.00000  Uiso   1.00
C6     C     0.21290   0.99220   0.05120   0.00000  Uiso   1.00
C7     C     0.22883   0.04525   0.02604   0.00000  Uiso   1.00
C8     C     0.22182   0.11131   0.04116   0.00000  Uiso   1.00
C9     C     0.21894   0.22748   0.05141   0.00000  Uiso   1.00
C10    C     0.26311   0.88480   0.10197   0.00000  Uiso   1.00
C11    C     0.32126   0.84756   0.11950   0.00000  Uiso   1.00
C12    C     0.35652   0.82320   0.17738   0.00000  Uiso   1.00
C13    C     0.43159   0.77261   0.26646   0.00000  Uiso   1.00
C14    C     0.17616   0.93914   0.11239   0.00000  Uiso   1.00
C15    C     0.12470   0.89973   0.05716   0.00000  Uiso   1.00
C16    C     0.06212   0.87748   0.04463   0.00000  Uiso   1.00
C17    C     0.02242   0.84227   0.99176   0.00000  Uiso   1.00
C18    C     0.19075   0.00468   0.09008   0.00000  Uiso   1.00
C19    C     0.18372   0.07067   0.10525   0.00000  Uiso   1.00
C20    C     0.19963   0.12381   0.08012   0.00000  Uiso   1.00
C21    C     0.24096   0.89727   0.14086   0.00000  Uiso   1.00
C22    C     0.27614   0.87297   0.19871   0.00000  Uiso   1.00
C23    C     0.33433   0.83570   0.21633   0.00000  Uiso   1.00
H24    H     0.23418   0.90645   0.01052   0.00000  Uiso   1.00
H25    H     0.12440   0.84242   0.93533   0.00000  Uiso   1.00
H26    H     0.24598   0.03558   0.99595   0.00000  Uiso   1.00
H27    H     0.33838   0.83791   0.08940   0.00000  Uiso   1.00
H28    H     0.99290   0.77696   0.86911   0.00000  Uiso   1.00
H29    H     0.24928   0.18424   0.99694   0.00000  Uiso   1.00
H30    H     0.44414   0.76742   0.19400   0.00000  Uiso   1.00
H31    H     0.15891   0.94886   0.14267   0.00000  Uiso   1.00
H32    H     0.04499   0.88715   0.07473   0.00000  Uiso   1.00
H33    H     0.16658   0.08031   0.13535   0.00000  Uiso   1.00
H34    H     0.25898   0.88264   0.22880   0.00000  Uiso   1.00
H35    H     0.92845   0.81326   0.98225   0.00000  Uiso   1.00
H36    H     0.18484   0.22054   0.11009   0.00000  Uiso   1.00
H37    H     0.37970   0.80373   0.30714   0.00000  Uiso   1.00
O38    O     0.88709   0.75377   0.87860   0.00000  Uiso   1.00
O39    O     0.22347   0.28811   0.04632   0.00000  Uiso   1.00
O40    O     0.47911   0.74125   0.30485   0.00000  Uiso   1.00
N41    N     0.99337   0.79396   0.90507   0.00000  Uiso   1.00
N42    N     0.23307   0.17474   0.02458   0.00000  Uiso   1.00
N43    N     0.41525   0.78507   0.20881   0.00000  Uiso   1.00
N44    N     0.95869   0.81349   0.96595   0.00000  Uiso   1.00
N45    N     0.19839   0.19428   0.08546   0.00000  Uiso   1.00
N46    N     0.38057   0.80460   0.26970   0.00000  Uiso   1.00
C47    C     0.71694   0.41616   0.04079   0.00000  Uiso   1.00
C48    C     0.64685   0.38725   0.01827   0.00000  Uiso   1.00
C49    C     0.60724   0.35206   0.96541   0.00000  Uiso   1.00
C50    C     0.54461   0.32977   0.95281   0.00000  Uiso   1.00
C51    C     0.43914   0.28300   0.91190   0.00000  Uiso   1.00
C52    C     0.71290   0.49220   0.05120   0.00000  Uiso   1.00
C53    C     0.72883   0.54525   0.02604   0.00000  Uiso   1.00
C54    C     0.72182   0.61131   0.04116   0.00000  Uiso   1.00
C55    C     0.71894   0.72748   0.05141   0.00000  Uiso   1.00
C56    C     0.76311   0.38480   0.10197   0.00000  Uiso   1.00
C57    C     0.82126   0.34756   0.11950   0.00000  Uiso   1.00
C58    C     0.85652   0.32320   0.17738   0.00000  Uiso   1.00
C59    C     0.93159   0.27261   0.26646   0.00000  Uiso   1.00
C60    C     0.67616   0.43914   0.11239   0.00000  Uiso   1.00
C61    C     0.62470   0.39973   0.05716   0.00000  Uiso   1.00
C62    C     0.56212   0.37748   0.04463   0.00000  Uiso   1.00
C63    C     0.52242   0.34227   0.99176   0.00000  Uiso   1.00
C64    C     0.69075   0.50468   0.09008   0.00000  Uiso   1.00
C65    C     0.68372   0.57067   0.10525   0.00000  Uiso   1.00
C66    C     0.69963   0.62381   0.08012   0.00000  Uiso   1.00
C67    C     0.74096   0.39727   0.14086   0.00000  Uiso   1.00
C68    C     0.77614   0.37297   0.19871   0.00000  Uiso   1.00
C69    C     0.83433   0.33570   0.21633   0.00000  Uiso   1.00
H70    H     0.73418   0.40645   0.01052   0.00000  Uiso   1.00
H71    H     0.62440   0.34242   0.93533   0.00000  Uiso   1.00
H72    H     0.74598   0.53558   0.99595   0.00000  Uiso   1.00
H73    H     0.83838   0.33791   0.08940   0.00000  Uiso   1.00
H74    H     0.49290   0.27696   0.86911   0.00000  Uiso   1.00
H75    H     0.74928   0.68424   0.99694   0.00000  Uiso   1.00
H76    H     0.94414   0.26742   0.19400   0.00000  Uiso   1.00
H77    H     0.65891   0.44886   0.14267   0.00000  Uiso   1.00
H78    H     0.54499   0.38715   0.07473   0.00000  Uiso   1.00
H79    H     0.66658   0.58031   0.13535   0.00000  Uiso   1.00
H80    H     0.75898   0.38264   0.22880   0.00000  Uiso   1.00
H81    H     0.42845   0.31326   0.98225   0.00000  Uiso   1.00
H82    H     0.68484   0.72054   0.11009   0.00000  Uiso   1.00
H83    H     0.87970   0.30373   0.30714   0.00000  Uiso   1.00
O84    O     0.38709   0.25377   0.87860   0.00000  Uiso   1.00
O85    O     0.72347   0.78811   0.04632   0.00000  Uiso   1.00
O86    O     0.97911   0.24125   0.30485   0.00000  Uiso   1.00
N87    N     0.49337   0.29396   0.90507   0.00000  Uiso   1.00
N88    N     0.73307   0.67474   0.02458   0.00000  Uiso   1.00
N89    N     0.91525   0.28507   0.20881   0.00000  Uiso   1.00
N90    N     0.45869   0.31349   0.96595   0.00000  Uiso   1.00
N91    N     0.69839   0.69428   0.08546   0.00000  Uiso   1.00
N92    N     0.88057   0.30460   0.26970   0.00000  Uiso   1.00
C93    C     0.78306   0.91616   0.45921   0.00000  Uiso   1.00
C94    C     0.85315   0.88725   0.48173   0.00000  Uiso   1.00
C95    C     0.89276   0.85206   0.53459   0.00000  Uiso   1.00
C96    C     0.95539   0.82977   0.54719   0.00000  Uiso   1.00
C97    C     0.06086   0.78300   0.58810   0.00000  Uiso   1.00
C98    C     0.78710   0.99220   0.44880   0.00000  Uiso   1.00
C99    C     0.77117   0.04525   0.47396   0.00000  Uiso   1.00
C100   C     0.77818   0.11131   0.45884   0.00000  Uiso   1.00
C101   C     0.78106   0.22748   0.44859   0.00000  Uiso   1.00
C102   C     0.73689   0.88480   0.39803   0.00000  Uiso   1.00
C103   C     0.67874   0.84756   0.38050   0.00000  Uiso   1.00
C104   C     0.64348   0.82320   0.32262   0.00000  Uiso   1.00
C105   C     0.56841   0.77261   0.23354   0.00000  Uiso   1.00
C106   C     0.82384   0.93914   0.38761   0.00000  Uiso   1.00
C107   C     0.87530   0.89973   0.44284   0.00000  Uiso   1.00
C108   C     0.93788   0.87748   0.45537   0.00000  Uiso   1.00
C109   C     0.97758   0.84227   0.50824   0.00000  Uiso   1.00
C110   C     0.80925   0.00468   0.40992   0.00000  Uiso   1.00
C111   C     0.81628   0.07067   0.39475   0.00000  Uiso   1.00
C112   C     0.80037   0.12381   0.41988   0.00000  Uiso   1.00
C113   C     0.75904   0.89727   0.35914   0.00000  Uiso   1.00
C114   C     0.72386   0.87297   0.30129   0.00000  Uiso   1.00
C115   C     0.66567   0.83570   0.28367   0.00000  Uiso   1.00
H116   H     0.76582   0.90645   0.48948   0.00000  Uiso   1.00
H117   H     0.87560   0.84242   0.56467   0.00000  Uiso   1.00
H118   H     0.75402   0.03558   0.50405   0.00000  Uiso   1.00
H119   H     0.66162   0.83791   0.41060   0.00000  Uiso   1.00
H120   H     0.00710   0.77696   0.63089   0.00000  Uiso   1.00
H121   H     0.75072   0.18424   0.50306   0.00000  Uiso   1.00
H122   H     0.55586   0.76742   0.30600   0.00000  Uiso   1.00
H123   H     0.84109   0.94886   0.35733   0.00000  Uiso   1.00
H124   H     0.95501   0.88715   0.42527   0.00000  Uiso   1.00
H125   H     0.83342   0.08031   0.36465   0.00000  Uiso   1.00
H126   H     0.74102   0.88264   0.27120   0.00000  Uiso   1.00
H127   H     0.07155   0.81326   0.51775   0.00000  Uiso   1.00
H128   H     0.81516   0.22054   0.38991   0.00000  Uiso   1.00
H129   H     0.62030   0.80373   0.19286   0.00000  Uiso   1.00
O130   O     0.11291   0.75377   0.62140   0.00000  Uiso   1.00
O131   O     0.77653   0.28811   0.45368   0.00000  Uiso   1.00
O132   O     0.52089   0.74125   0.19515   0.00000  Uiso   1.00
N133   N     0.00663   0.79396   0.59493   0.00000  Uiso   1.00
N134   N     0.76693   0.17474   0.47542   0.00000  Uiso   1.00
N135   N     0.58475   0.78507   0.29119   0.00000  Uiso   1.00
N136   N     0.04131   0.81349   0.53405   0.00000  Uiso   1.00
N137   N     0.80161   0.19428   0.41454   0.00000  Uiso   1.00
N138   N     0.61943   0.80460   0.23030   0.00000  Uiso   1.00
C139   C     0.28306   0.41616   0.45921   0.00000  Uiso   1.00
C140   C     0.35315   0.38725   0.48173   0.00000  Uiso   1.00
C141   C     0.39276   0.35206   0.53459   0.00000  Uiso   1.00
C142   C     0.45539   0.32977   0.54719   0.00000  Uiso   1.00
C143   C     0.56086   0.28300   0.58810   0.00000  Uiso   1.00
C144   C     0.28710   0.49220   0.44880   0.00000  Uiso   1.00
C145   C     0.27117   0.54525   0.47396   0.00000  Uiso   1.00
C146   C     0.27818   0.61131   0.45884   0.00000  Uiso   1.00
C147   C     0.28106   0.72748   0.44859   0.00000  Uiso   1.00
C148   C     0.23689   0.38480   0.39803   0.00000  Uiso   1.00
C149   C     0.17874   0.34756   0.38050   0.00000  Uiso   1.00
C150   C     0.14348   0.32320   0.32262   0.00000  Uiso   1.00
C151   C     0.06841   0.27261   0.23354   0.00000  Uiso   1.00
C152   C     0.32384   0.43914   0.38761   0.00000  Uiso   1.00
C153   C     0.37530   0.39973   0.44284   0.00000  Uiso   1.00
C154   C     0.43788   0.37748   0.45537   0.00000  Uiso   1.00
C155   C     0.47758   0.34227   0.50824   0.00000  Uiso   1.00
C156   C     0.30925   0.50468   0.40992   0.00000  Uiso   1.00
C157   C     0.31628   0.57067   0.39475   0.00000  Uiso   1.00
C158   C     0.30037   0.62381   0.41988   0.00000  Uiso   1.00
C159   C     0.25904   0.39727   0.35914   0.00000  Uiso   1.00
C160   C     0.22386   0.37297   0.30129   0.00000  Uiso   1.00
C161   C     0.16567   0.33570   0.28367   0.00000  Uiso   1.00
H162   H     0.26582   0.40645   0.48948   0.00000  Uiso   1.00
H163   H     0.37560   0.34242   0.56467   0.00000  Uiso   1.00
H164   H     0.25402   0.53558   0.50405   0.00000  Uiso   1.00
H165   H     0.16162   0.33791   0.41060   0.00000  Uiso   1.00
H166   H     0.50710   0.27696   0.63089   0.00000  Uiso   1.00
H167   H     0.25072   0.68424   0.50306   0.00000  Uiso   1.00
H168   H     0.05586   0.26742   0.30600   0.00000  Uiso   1.00
H169   H     0.34109   0.44886   0.35733   0.00000  Uiso   1.00
H170   H     0.45501   0.38715   0.42527   0.00000  Uiso   1.00
H171   H     0.33342   0.58031   0.36465   0.00000  Uiso   1.00
H172   H     0.24102   0.38264   0.27120   0.00000  Uiso   1.00
H173   H     0.57155   0.31326   0.51775   0.00000  Uiso   1.00
H174   H     0.31516   0.72054   0.38991   0.00000  Uiso   1.00
H175   H     0.12030   0.30373   0.19286   0.00000  Uiso   1.00
O176   O     0.61291   0.25377   0.62140   0.00000  Uiso   1.00
O177   O     0.27653   0.78811   0.45368   0.00000  Uiso   1.00
O178   O     0.02089   0.24125   0.19515   0.00000  Uiso   1.00
N179   N     0.50663   0.29396   0.59493   0.00000  Uiso   1.00
N180   N     0.26693   0.67474   0.47542   0.00000  Uiso   1.00
N181   N     0.08475   0.28507   0.29119   0.00000  Uiso   1.00
N182   N     0.54131   0.31349   0.53405   0.00000  Uiso   1.00
N183   N     0.30161   0.69428   0.41454   0.00000  Uiso   1.00
N184   N     0.11943   0.30460   0.23030   0.00000  Uiso   1.00
C185   C     0.78306   0.08384   0.95921   0.00000  Uiso   1.00
C186   C     0.85315   0.11275   0.98173   0.00000  Uiso   1.00
C187   C     0.89276   0.14794   0.03459   0.00000  Uiso   1.00
C188   C     0.95539   0.17023   0.04719   0.00000  Uiso   1.00
C189   C     0.06086   0.21700   0.08810   0.00000  Uiso   1.00
C190   C     0.78710   0.00780   0.94880   0.00000  Uiso   1.00
C191   C     0.77117   0.95475   0.97396   0.00000  Uiso   1.00
C192   C     0.77818   0.88869   0.95884   0.00000  Uiso   1.00
C193   C     0.78106   0.77252   0.94859   0.00000  Uiso   1.00
C194   C     0.73689   0.11520   0.89803   0.00000  Uiso   1.00
C195   C     0.67874   0.15244   0.88050   0.00000  Uiso   1.00
C196   C     0.64348   0.17680   0.82262   0.00000  Uiso   1.00
C197   C     0.56841   0.22739   0.73354   0.00000  Uiso   1.00
C198   C     0.82384   0.06086   0.88761   0.00000  Uiso   1.00
C199   C     0.87530   0.10027   0.94284   0.00000  Uiso   1.00
C200   C     0.93788   0.12252   0.95537   0.00000  Uiso   1.00
C201   C     0.97758   0.15773   0.00824   0.00000  Uiso   1.00
C202   C     0.80925   0.99532   0.90992   0.00000  Uiso   1.00
C203   C     0.81628   0.92933   0.89475   0.00000  Uiso   1.00
C204   C     0.80037   0.87619   0.91988   0.00000  Uiso   1.00
C205   C     0.75904   0.10273   0.85914   0.00000  Uiso   1.00
C206   C     0.72386   0.12703   0.80129   0.00000  Uiso   1.00
C207   C     0.66567   0.16430   0.78367   0.00000  Uiso   1.00
H208   H     0.76582   0.09355   0.98948   0.00000  Uiso   1.00
H209   H     0.87560   0.15758   0.06467   0.00000  Uiso   1.00
H210   H     0.75402   0.96442   0.00405   0.00000  Uiso   1.00
H211   H     0.66162   0.16209   0.91060   0.00000  Uiso   1.00
H212   H     0.00710   0.22304   0.13089   0.00000  Uiso   1.00
H213   H     0.75072   0.81576   0.00306   0.00000  Uiso   1.00
H214   H     0.55586   0.23258   0.80600   0.00000  Uiso   1.00
H215   H     0.84109   0.05114   0.85733   0.00000  Uiso   1.00
H216   H     0.95501   0.11285   0.92527   0.00000  Uiso   1.00
H217   H     0.83342   0.91969   0.86465   0.00000  Uiso   1.00
H218   H     0.74102   0.11736   0.77120   0.00000  Uiso   1.00
H219   H     0.07155   0.18674   0.01775   0.00000  Uiso   1.00
H220   H     0.81516   0.77946   0.88991   0.00000  Uiso   1.00
H221   H     0.62030   0.19627   0.69286   0.00000  Uiso   1.00
O222   O     0.11291   0.24623   0.12140   0.00000  Uiso   1.00
O223   O     0.77653   0.71189   0.95368   0.00000  Uiso   1.00
O224   O     0.52089   0.25875   0.69515   0.00000  Uiso   1.00
N225   N     0.00663   0.20604   0.09493   0.00000  Uiso   1.00
N226   N     0.76693   0.82526   0.97542   0.00000  Uiso   1.00
N227   N     0.58475   0.21493   0.79119   0.00000  Uiso   1.00
N228   N     0.04131   0.18651   0.03405   0.00000  Uiso   1.00
N229   N     0.80161   0.80572   0.91454   0.00000  Uiso   1.00
N230   N     0.61943   0.19540   0.73030   0.00000  Uiso   1.00
C231   C     0.28306   0.58384   0.95921   0.00000  Uiso   1.00
C232   C     0.35315   0.61275   0.98173   0.00000  Uiso   1.00
C233   C     0.39276   0.64794   0.03459   0.00000  Uiso   1.00
C234   C     0.45539   0.67023   0.04719   0.00000  Uiso   1.00
C235   C     0.56086   0.71700   0.08810   0.00000  Uiso   1.00
C236   C     0.28710   0.50780   0.94880   0.00000  Uiso   1.00
C237   C     0.27117   0.45475   0.97396   0.00000  Uiso   1.00
C238   C     0.27818   0.38869   0.95884   0.00000  Uiso   1.00
C239   C     0.28106   0.27252   0.94859   0.00000  Uiso   1.00
C240   C     0.23689   0.61520   0.89803   0.00000  Uiso   1.00
C241   C     0.17874   0.65244   0.88050   0.00000  Uiso   1.00
C242   C     0.14348   0.67680   0.82262   0.00000  Uiso   1.00
C243   C     0.06841   0.72739   0.73354   0.00000  Uiso   1.00
C244   C     0.32384   0.56086   0.88761   0.00000  Uiso   1.00
C245   C     0.37530   0.60027   0.94284   0.00000  Uiso   1.00
C246   C     0.43788   0.62252   0.95537   0.00000  Uiso   1.00
C247   C     0.47758   0.65773   0.00824   0.00000  Uiso   1.00
C248   C     0.30925   0.49532   0.90992   0.00000  Uiso   1.00
C249   C     0.31628   0.42933   0.89475   0.00000  Uiso   1.00
C250   C     0.30037   0.37619   0.91988   0.00000  Uiso   1.00
C251   C     0.25904   0.60273   0.85914   0.00000  Uiso   1.00
C252   C     0.22386   0.62703   0.80129   0.00000  Uiso   1.00
C253   C     0.16567   0.66430   0.78367   0.00000  Uiso   1.00
H254   H     0.26582   0.59355   0.98948   0.00000  Uiso   1.00
H255   H     0.37560   0.65758   0.06467   0.00000  Uiso   1.00
H256   H     0.25402   0.46442   0.00405   0.00000  Uiso   1.00
H257   H     0.16162   0.66209   0.91060   0.00000  Uiso   1.00
H258   H     0.50710   0.72304   0.13089   0.00000  Uiso   1.00
H259   H     0.25072   0.31576   0.00306   0.00000  Uiso   1.00
H260   H     0.05586   0.73258   0.80600   0.00000  Uiso   1.00
H261   H     0.34109   0.55114   0.85733   0.00000  Uiso   1.00
H262   H     0.45501   0.61285   0.92527   0.00000  Uiso   1.00
H263   H     0.33342   0.41969   0.86465   0.00000  Uiso   1.00
H264   H     0.24102   0.61736   0.77120   0.00000  Uiso   1.00
H265   H     0.57155   0.68674   0.01775   0.00000  Uiso   1.00
H266   H     0.31516   0.27946   0.88991   0.00000  Uiso   1.00
H267   H     0.12030   0.69627   0.69286   0.00000  Uiso   1.00
O268   O     0.61291   0.74623   0.12140   0.00000  Uiso   1.00
O269   O     0.27653   0.21189   0.95368   0.00000  Uiso   1.00
O270   O     0.02089   0.75875   0.69515   0.00000  Uiso   1.00
N271   N     0.50663   0.70604   0.09493   0.00000  Uiso   1.00
N272   N     0.26693   0.32526   0.97542   0.00000  Uiso   1.00
N273   N     0.08475   0.71493   0.79119   0.00000  Uiso   1.00
N274   N     0.54131   0.68651   0.03405   0.00000  Uiso   1.00
N275   N     0.30161   0.30572   0.91454   0.00000  Uiso   1.00
N276   N     0.11943   0.69540   0.73030   0.00000  Uiso   1.00
C277   C     0.21694   0.08384   0.54079   0.00000  Uiso   1.00
C278   C     0.14685   0.11275   0.51827   0.00000  Uiso   1.00
C279   C     0.10724   0.14794   0.46541   0.00000  Uiso   1.00
C280   C     0.04461   0.17023   0.45281   0.00000  Uiso   1.00
C281   C     0.93914   0.21700   0.41190   0.00000  Uiso   1.00
C282   C     0.21290   0.00780   0.55120   0.00000  Uiso   1.00
C283   C     0.22883   0.95475   0.52604   0.00000  Uiso   1.00
C284   C     0.22182   0.88869   0.54116   0.00000  Uiso   1.00
C285   C     0.21894   0.77252   0.55141   0.00000  Uiso   1.00
C286   C     0.26311   0.11520   0.60197   0.00000  Uiso   1.00
C287   C     0.32126   0.15244   0.61950   0.00000  Uiso   1.00
C288   C     0.35652   0.17680   0.67738   0.00000  Uiso   1.00
C289   C     0.43159   0.22739   0.76646   0.00000  Uiso   1.00
C290   C     0.17616   0.06086   0.61239   0.00000  Uiso   1.00
C291   C     0.12470   0.10027   0.55716   0.00000  Uiso   1.00
C292   C     0.06212   0.12252   0.54463   0.00000  Uiso   1.00
C293   C     0.02242   0.15773   0.49176   0.00000  Uiso   1.00
C294   C     0.19075   0.99532   0.59008   0.00000  Uiso   1.00
C295   C     0.18372   0.92933   0.60525   0.00000  Uiso   1.00
C296   C     0.19963   0.87619   0.58012   0.00000  Uiso   1.00
C297   C     0.24096   0.10273   0.64086   0.00000  Uiso   1.00
C298   C     0.27614   0.12703   0.69871   0.00000  Uiso   1.00
C299   C     0.33433   0.16430   0.71633   0.00000  Uiso   1.00
H300   H     0.23418   0.09355   0.51052   0.00000  Uiso   1.00
H301   H     0.12440   0.15758   0.43533   0.00000  Uiso   1.00
H302   H     0.24598   0.96442   0.49595   0.00000  Uiso   1.00
H303   H     0.33838   0.16209   0.58940   0.00000  Uiso   1.00
H304   H     0.99290   0.22304   0.36911   0.00000  Uiso   1.00
H305   H     0.24928   0.81576   0.49694   0.00000  Uiso   1.00
H306   H     0.44414   0.23258   0.69400   0.00000  Uiso   1.00
H307   H     0.15891   0.05114   0.64267   0.00000  Uiso   1.00
H308   H     0.04499   0.11285   0.57473   0.00000  Uiso   1.00
H309   H     0.16658   0.91969   0.63535   0.00000  Uiso   1.00
H310   H     0.25898   0.11736   0.72880   0.00000  Uiso   1.00
H311   H     0.92845   0.18674   0.48225   0.00000  Uiso   1.00
H312   H     0.18484   0.77946   0.61009   0.00000  Uiso   1.00
H313   H     0.37970   0.19627   0.80714   0.00000  Uiso   1.00
O314   O     0.88709   0.24623   0.37860   0.00000  Uiso   1.00
O315   O     0.22347   0.71189   0.54632   0.00000  Uiso   1.00
O316   O     0.47911   0.25875   0.80485   0.00000  Uiso   1.00
N317   N     0.99337   0.20604   0.40507   0.00000  Uiso   1.00
N318   N     0.23307   0.82526   0.52458   0.00000  Uiso   1.00
N319   N     0.41525   0.21493   0.70881   0.00000  Uiso   1.00
N320   N     0.95869   0.18651   0.46595   0.00000  Uiso   1.00
N321   N     0.19839   0.80572   0.58546   0.00000  Uiso   1.00
N322   N     0.38057   0.19540   0.76970   0.00000  Uiso   1.00
C323   C     0.71694   0.58384   0.54079   0.00000  Uiso   1.00
C324   C     0.64685   0.61275   0.51827   0.00000  Uiso   1.00
C325   C     0.60724   0.64794   0.46541   0.00000  Uiso   1.00
C326   C     0.54461   0.67023   0.45281   0.00000  Uiso   1.00
C327   C     0.43914   0.71700   0.41190   0.00000  Uiso   1.00
C328   C     0.71290   0.50780   0.55120   0.00000  Uiso   1.00
C329   C     0.72883   0.45475   0.52604   0.00000  Uiso   1.00
C330   C     0.72182   0.38869   0.54116   0.00000  Uiso   1.00
C331   C     0.71894   0.27252   0.55141   0.00000  Uiso   1.00
C332   C     0.76311   0.61520   0.60197   0.00000  Uiso   1.00
C333   C     0.82126   0.65244   0.61950   0.00000  Uiso   1.00
C334   C     0.85652   0.67680   0.67738   0.00000  Uiso   1.00
C335   C     0.93159   0.72739   0.76646   0.00000  Uiso   1.00
C336   C     0.67616   0.56086   0.61239   0.00000  Uiso   1.00
C337   C     0.62470   0.60027   0.55716   0.00000  Uiso   1.00
C338   C     0.56212   0.62252   0.54463   0.00000  Uiso   1.00
C339   C     0.52242   0.65773   0.49176   0.00000  Uiso   1.00
C340   C     0.69075   0.49532   0.59008   0.00000  Uiso   1.00
C341   C     0.68372   0.42933   0.60525   0.00000  Uiso   1.00
C342   C     0.69963   0.37619   0.58012   0.00000  Uiso   1.00
C343   C     0.74096   0.60273   0.64086   0.00000  Uiso   1.00
C344   C     0.77614   0.62703   0.69871   0.00000  Uiso   1.00
C345   C     0.83433   0.66430   0.71633   0.00000  Uiso   1.00
H346   H     0.73418   0.59355   0.51052   0.00000  Uiso   1.00
H347   H     0.62440   0.65758   0.43533   0.00000  Uiso   1.00
H348   H     0.74598   0.46442   0.49595   0.00000  Uiso   1.00
H349   H     0.83838   0.66209   0.58940   0.00000  Uiso   1.00
H350   H     0.49290   0.72304   0.36911   0.00000  Uiso   1.00
H351   H     0.74928   0.31576   0.49694   0.00000  Uiso   1.00
H352   H     0.94414   0.73258   0.69400   0.00000  Uiso   1.00
H353   H     0.65891   0.55114   0.64267   0.00000  Uiso   1.00
H354   H     0.54499   0.61285   0.57473   0.00000  Uiso   1.00
H355   H     0.66658   0.41969   0.63535   0.00000  Uiso   1.00
H356   H     0.75898   0.61736   0.72880   0.00000  Uiso   1.00
H357   H     0.42845   0.68674   0.48225   0.00000  Uiso   1.00
H358   H     0.68484   0.27946   0.61009   0.00000  Uiso   1.00
H359   H     0.87970   0.69627   0.80714   0.00000  Uiso   1.00
O360   O     0.38709   0.74623   0.37860   0.00000  Uiso   1.00
O361   O     0.72347   0.21189   0.54632   0.00000  Uiso   1.00
O362   O     0.97911   0.75875   0.80485   0.00000  Uiso   1.00
N363   N     0.49337   0.70604   0.40507   0.00000  Uiso   1.00
N364   N     0.73307   0.32526   0.52458   0.00000  Uiso   1.00
N365   N     0.91525   0.71493   0.70881   0.00000  Uiso   1.00
N366   N     0.45869   0.68651   0.46595   0.00000  Uiso   1.00
N367   N     0.69839   0.30572   0.58546   0.00000  Uiso   1.00
N368   N     0.88057   0.69540   0.76970   0.00000  Uiso   1.00
