data_job_06507
_audit_creation_date              2018-12-19
_audit_creation_method            'Materials Studio'
_symmetry_space_group_name_H-M    'P1'
_symmetry_Int_Tables_number       1
_symmetry_cell_setting            triclinic
loop_
_symmetry_equiv_pos_as_xyz
  x,y,z
_cell_length_a                    14.8958
_cell_length_b                    21.8953
_cell_length_c                    24.4460
_cell_angle_alpha                 76.1919
_cell_angle_beta                  72.5622
_cell_angle_gamma                 89.5705
loop_
_atom_site_label
_atom_site_type_symbol
_atom_site_fract_x
_atom_site_fract_y
_atom_site_fract_z
_atom_site_U_iso_or_equiv
_atom_site_adp_type
_atom_site_occupancy
C1     C     0.39810   0.99183   0.38192   0.00000  Uiso   1.00
C2     C     0.39287   0.06127   0.38248   0.00000  Uiso   1.00
C3     C     0.32819   0.08568   0.42439   0.00000  Uiso   1.00
C4     C     0.33508   0.15051   0.41709   0.00000  Uiso   1.00
C5     C     0.31643   0.25241   0.42517   0.00000  Uiso   1.00
C6     C     0.39061   0.98788   0.32198   0.00000  Uiso   1.00
C7     C     0.32403   0.95058   0.31303   0.00000  Uiso   1.00
C8     C     0.32903   0.95363   0.25480   0.00000  Uiso   1.00
C9     C     0.30690   0.94156   0.16895   0.00000  Uiso   1.00
C10    C     0.49802   0.97549   0.38133   0.00000  Uiso   1.00
C11    C     0.52175   0.92776   0.42227   0.00000  Uiso   1.00
C12    C     0.61719   0.92037   0.41399   0.00000  Uiso   1.00
C13    C     0.76183   0.88906   0.42030   0.00000  Uiso   1.00
C14    C     0.52538   0.06356   0.29441   0.00000  Uiso   1.00
C15    C     0.46201   0.10023   0.33495   0.00000  Uiso   1.00
C16    C     0.46901   0.16504   0.32758   0.00000  Uiso   1.00
C17    C     0.40434   0.18954   0.36948   0.00000  Uiso   1.00
C18    C     0.45974   0.02684   0.27445   0.00000  Uiso   1.00
C19    C     0.46485   0.02994   0.21622   0.00000  Uiso   1.00
C20    C     0.39829   0.99266   0.20718   0.00000  Uiso   1.00
C21    C     0.56716   0.01446   0.33380   0.00000  Uiso   1.00
C22    C     0.66257   0.00713   0.32545   0.00000  Uiso   1.00
C23    C     0.68644   0.95940   0.36638   0.00000  Uiso   1.00
H24    H     0.34427   0.96149   0.41892   0.00000  Uiso   1.00
H25    H     0.27469   0.05551   0.46117   0.00000  Uiso   1.00
H26    H     0.27054   0.92043   0.34982   0.00000  Uiso   1.00
H27    H     0.46823   0.89762   0.45904   0.00000  Uiso   1.00
H28    H     0.22801   0.17693   0.48703   0.00000  Uiso   1.00
H29    H     0.21928   0.89209   0.25225   0.00000  Uiso   1.00
H30    H     0.63616   0.84399   0.48257   0.00000  Uiso   1.00
H31    H     0.57920   0.09389   0.25741   0.00000  Uiso   1.00
H32    H     0.52252   0.19518   0.29079   0.00000  Uiso   1.00
H33    H     0.51836   0.06010   0.17945   0.00000  Uiso   1.00
H34    H     0.71605   0.03729   0.28867   0.00000  Uiso   1.00
H35    H     0.42915   0.29029   0.34875   0.00000  Uiso   1.00
H36    H     0.42042   0.00545   0.11397   0.00000  Uiso   1.00
H37    H     0.83730   0.95735   0.34429   0.00000  Uiso   1.00
O38    O     0.28703   0.29785   0.44276   0.00000  Uiso   1.00
O39    O     0.27559   0.92414   0.13473   0.00000  Uiso   1.00
O40    O     0.82251   0.86104   0.43691   0.00000  Uiso   1.00
N41    N     0.28314   0.18971   0.44991   0.00000  Uiso   1.00
N42    N     0.27497   0.92340   0.23041   0.00000  Uiso   1.00
N43    N     0.66471   0.87843   0.44573   0.00000  Uiso   1.00
N44    N     0.39138   0.25071   0.37551   0.00000  Uiso   1.00
N45    N     0.38320   0.98440   0.15600   0.00000  Uiso   1.00
N46    N     0.77294   0.93942   0.37132   0.00000  Uiso   1.00
C47    C     0.95168   0.70114   0.90909   0.00000  Uiso   1.00
C48    C     0.92577   0.64235   0.96039   0.00000  Uiso   1.00
C49    C     0.89774   0.58315   0.95762   0.00000  Uiso   1.00
C50    C     0.87709   0.53549   0.00941   0.00000  Uiso   1.00
C51    C     0.83573   0.44251   0.08107   0.00000  Uiso   1.00
C52    C     0.88718   0.75097   0.92976   0.00000  Uiso   1.00
C53    C     0.82671   0.78312   0.90122   0.00000  Uiso   1.00
C54    C     0.77358   0.82690   0.92723   0.00000  Uiso   1.00
C55    C     0.67236   0.90260   0.95130   0.00000  Uiso   1.00
C56    C     0.05109   0.72422   0.90355   0.00000  Uiso   1.00
C57    C     0.12844   0.73389   0.85297   0.00000  Uiso   1.00
C58    C     0.21331   0.75517   0.85691   0.00000  Uiso   1.00
C59    C     0.36659   0.78934   0.84029   0.00000  Uiso   1.00
C60    C     0.96485   0.72176   0.00602   0.00000  Uiso   1.00
C61    C     0.93293   0.65355   0.01304   0.00000  Uiso   1.00
C62    C     0.91232   0.60596   0.06486   0.00000  Uiso   1.00
C63    C     0.88426   0.54671   0.06216   0.00000  Uiso   1.00
C64    C     0.89433   0.76217   0.98241   0.00000  Uiso   1.00
C65    C     0.84129   0.80593   0.00846   0.00000  Uiso   1.00
C66    C     0.78075   0.83812   0.97997   0.00000  Uiso   1.00
C67    C     0.05825   0.73542   0.95620   0.00000  Uiso   1.00
C68    C     0.14302   0.75670   0.96022   0.00000  Uiso   1.00
C69    C     0.22048   0.76639   0.90966   0.00000  Uiso   1.00
H70    H     0.94610   0.69242   0.86810   0.00000  Uiso   1.00
H71    H     0.89220   0.57451   0.91686   0.00000  Uiso   1.00
H72    H     0.82120   0.77444   0.86048   0.00000  Uiso   1.00
H73    H     0.12288   0.72522   0.81224   0.00000  Uiso   1.00
H74    H     0.83557   0.44872   0.99415   0.00000  Uiso   1.00
H75    H     0.68587   0.87031   0.87524   0.00000  Uiso   1.00
H76    H     0.32202   0.76652   0.77352   0.00000  Uiso   1.00
H77    H     0.97042   0.73048   0.04701   0.00000  Uiso   1.00
H78    H     0.91786   0.61465   0.10559   0.00000  Uiso   1.00
H79    H     0.84685   0.81458   0.04920   0.00000  Uiso   1.00
H80    H     0.14853   0.76536   0.00097   0.00000  Uiso   1.00
H81    H     0.85639   0.48130   0.14733   0.00000  Uiso   1.00
H82    H     0.70669   0.90289   0.02841   0.00000  Uiso   1.00
H83    H     0.34284   0.79910   0.92670   0.00000  Uiso   1.00
O84    O     0.81093   0.38813   0.10605   0.00000  Uiso   1.00
O85    O     0.61455   0.94125   0.95004   0.00000  Uiso   1.00
O86    O     0.44916   0.80508   0.81659   0.00000  Uiso   1.00
N87    N     0.84770   0.47228   0.02216   0.00000  Uiso   1.00
N88    N     0.70773   0.86644   0.91099   0.00000  Uiso   1.00
N89    N     0.30247   0.76942   0.81588   0.00000  Uiso   1.00
N90    N     0.85891   0.48981   0.10458   0.00000  Uiso   1.00
N91    N     0.71893   0.88397   0.99341   0.00000  Uiso   1.00
N92    N     0.31368   0.78695   0.89831   0.00000  Uiso   1.00
C93    C     0.82714   0.41356   0.65843   0.00000  Uiso   1.00
C94    C     0.87488   0.38996   0.60356   0.00000  Uiso   1.00
C95    C     0.86816   0.41500   0.54727   0.00000  Uiso   1.00
C96    C     0.91712   0.38671   0.50298   0.00000  Uiso   1.00
C97    C     0.98304   0.35788   0.41602   0.00000  Uiso   1.00
C98    C     0.76843   0.35696   0.70438   0.00000  Uiso   1.00
C99    C     0.67220   0.35425   0.73285   0.00000  Uiso   1.00
C100   C     0.63155   0.29818   0.77344   0.00000  Uiso   1.00
C101   C     0.53221   0.21812   0.84302   0.00000  Uiso   1.00
C102   C     0.90589   0.42882   0.68206   0.00000  Uiso   1.00
C103   C     0.92524   0.48652   0.69179   0.00000  Uiso   1.00
C104   C     0.00031   0.49095   0.71360   0.00000  Uiso   1.00
C105   C     0.11440   0.52247   0.74853   0.00000  Uiso   1.00
C106   C     0.92605   0.31880   0.67988   0.00000  Uiso   1.00
C107   C     0.92860   0.33849   0.61522   0.00000  Uiso   1.00
C108   C     0.97759   0.31017   0.57100   0.00000  Uiso   1.00
C109   C     0.97094   0.33516   0.51465   0.00000  Uiso   1.00
C110   C     0.82215   0.30549   0.71603   0.00000  Uiso   1.00
C111   C     0.78163   0.24941   0.75658   0.00000  Uiso   1.00
C112   C     0.68537   0.24662   0.78511   0.00000  Uiso   1.00
C113   C     0.95962   0.37735   0.69371   0.00000  Uiso   1.00
C114   C     0.03467   0.38169   0.71552   0.00000  Uiso   1.00
C115   C     0.05413   0.43939   0.72527   0.00000  Uiso   1.00
H116   H     0.78531   0.45362   0.64937   0.00000  Uiso   1.00
H117   H     0.82657   0.45482   0.53827   0.00000  Uiso   1.00
H118   H     0.63065   0.39408   0.72383   0.00000  Uiso   1.00
H119   H     0.88365   0.52634   0.68277   0.00000  Uiso   1.00
H120   H     0.89598   0.43344   0.42025   0.00000  Uiso   1.00
H121   H     0.48287   0.30538   0.81152   0.00000  Uiso   1.00
H122   H     0.01636   0.58427   0.72493   0.00000  Uiso   1.00
H123   H     0.96787   0.27873   0.68896   0.00000  Uiso   1.00
H124   H     0.01916   0.27034   0.58003   0.00000  Uiso   1.00
H125   H     0.82323   0.20960   0.76559   0.00000  Uiso   1.00
H126   H     0.07622   0.34185   0.72453   0.00000  Uiso   1.00
H127   H     0.05228   0.28371   0.45414   0.00000  Uiso   1.00
H128   H     0.63917   0.15564   0.84542   0.00000  Uiso   1.00
H129   H     0.17267   0.43453   0.75883   0.00000  Uiso   1.00
O130   O     0.00454   0.35619   0.36483   0.00000  Uiso   1.00
O131   O     0.46257   0.18818   0.87818   0.00000  Uiso   1.00
O132   O     0.16250   0.55408   0.76457   0.00000  Uiso   1.00
N133   N     0.92574   0.39936   0.44317   0.00000  Uiso   1.00
N134   N     0.53951   0.27963   0.80898   0.00000  Uiso   1.00
N135   N     0.03826   0.54036   0.72804   0.00000  Uiso   1.00
N136   N     0.00985   0.31879   0.46141   0.00000  Uiso   1.00
N137   N     0.62361   0.19905   0.82722   0.00000  Uiso   1.00
N138   N     0.12237   0.45979   0.74628   0.00000  Uiso   1.00
C139   C     0.35769   0.33617   0.57270   0.00000  Uiso   1.00
C140   C     0.34703   0.39995   0.58799   0.00000  Uiso   1.00
C141   C     0.33931   0.45665   0.55008   0.00000  Uiso   1.00
C142   C     0.33008   0.50977   0.57247   0.00000  Uiso   1.00
C143   C     0.31369   0.60933   0.58737   0.00000  Uiso   1.00
C144   C     0.27664   0.29235   0.61848   0.00000  Uiso   1.00
C145   C     0.20975   0.25858   0.60619   0.00000  Uiso   1.00
C146   C     0.14127   0.22112   0.65425   0.00000  Uiso   1.00
C147   C     0.01565   0.15360   0.71646   0.00000  Uiso   1.00
C148   C     0.44758   0.31175   0.58510   0.00000  Uiso   1.00
C149   C     0.52441   0.29427   0.54475   0.00000  Uiso   1.00
C150   C     0.59984   0.27313   0.56471   0.00000  Uiso   1.00
C151   C     0.73961   0.23573   0.57511   0.00000  Uiso   1.00
C152   C     0.35502   0.32968   0.67989   0.00000  Uiso   1.00
C153   C     0.34557   0.39642   0.64622   0.00000  Uiso   1.00
C154   C     0.33635   0.44947   0.66867   0.00000  Uiso   1.00
C155   C     0.32863   0.50624   0.63080   0.00000  Uiso   1.00
C156   C     0.27519   0.28883   0.67670   0.00000  Uiso   1.00
C157   C     0.20680   0.25140   0.72478   0.00000  Uiso   1.00
C158   C     0.13982   0.21758   0.71257   0.00000  Uiso   1.00
C159   C     0.44613   0.30823   0.64332   0.00000  Uiso   1.00
C160   C     0.52145   0.28710   0.66335   0.00000  Uiso   1.00
C161   C     0.59838   0.26959   0.62304   0.00000  Uiso   1.00
H162   H     0.35882   0.33891   0.52738   0.00000  Uiso   1.00
H163   H     0.34043   0.45935   0.50503   0.00000  Uiso   1.00
H164   H     0.21090   0.26131   0.56113   0.00000  Uiso   1.00
H165   H     0.52550   0.29701   0.49971   0.00000  Uiso   1.00
H166   H     0.31936   0.59133   0.50593   0.00000  Uiso   1.00
H167   H     0.04626   0.17374   0.62422   0.00000  Uiso   1.00
H168   H     0.70967   0.24900   0.49470   0.00000  Uiso   1.00
H169   H     0.35389   0.32693   0.72522   0.00000  Uiso   1.00
H170   H     0.33523   0.44672   0.71373   0.00000  Uiso   1.00
H171   H     0.20570   0.24868   0.76983   0.00000  Uiso   1.00
H172   H     0.52030   0.28437   0.70840   0.00000  Uiso   1.00
H173   H     0.31514   0.58108   0.67532   0.00000  Uiso   1.00
H174   H     0.04204   0.16348   0.79361   0.00000  Uiso   1.00
H175   H     0.70545   0.23875   0.66408   0.00000  Uiso   1.00
O176   O     0.30503   0.66522   0.57950   0.00000  Uiso   1.00
O177   O     0.94675   0.11734   0.73469   0.00000  Uiso   1.00
O178   O     0.81712   0.21609   0.56476   0.00000  Uiso   1.00
N179   N     0.32095   0.57248   0.54737   0.00000  Uiso   1.00
N180   N     0.06560   0.18206   0.65797   0.00000  Uiso   1.00
N181   N     0.68582   0.25241   0.53687   0.00000  Uiso   1.00
N182   N     0.31868   0.56697   0.63852   0.00000  Uiso   1.00
N183   N     0.06333   0.17654   0.74911   0.00000  Uiso   1.00
N184   N     0.68355   0.24689   0.62802   0.00000  Uiso   1.00
C185   C     0.36416   0.61758   0.07442   0.00000  Uiso   1.00
C186   C     0.39263   0.61510   0.00968   0.00000  Uiso   1.00
C187   C     0.36975   0.56571   0.98865   0.00000  Uiso   1.00
C188   C     0.40248   0.57250   0.92789   0.00000  Uiso   1.00
C189   C     0.43848   0.56041   0.83320   0.00000  Uiso   1.00
C190   C     0.31184   0.67736   0.07777   0.00000  Uiso   1.00
C191   C     0.22103   0.68033   0.11399   0.00000  Uiso   1.00
C192   C     0.18576   0.73953   0.11055   0.00000  Uiso   1.00
C193   C     0.09636   0.82412   0.12159   0.00000  Uiso   1.00
C194   C     0.45573   0.62871   0.08749   0.00000  Uiso   1.00
C195   C     0.48589   0.59078   0.13188   0.00000  Uiso   1.00
C196   C     0.57176   0.60903   0.13663   0.00000  Uiso   1.00
C197   C     0.70576   0.61808   0.16277   0.00000  Uiso   1.00
C198   C     0.46299   0.71745   0.00392   0.00000  Uiso   1.00
C199   C     0.44631   0.66934   0.97139   0.00000  Uiso   1.00
C200   C     0.47909   0.67620   0.91065   0.00000  Uiso   1.00
C201   C     0.45626   0.62684   0.88953   0.00000  Uiso   1.00
C202   C     0.36552   0.73161   0.03948   0.00000  Uiso   1.00
C203   C     0.33038   0.79082   0.03599   0.00000  Uiso   1.00
C204   C     0.23954   0.79388   0.07219   0.00000  Uiso   1.00
C205   C     0.50941   0.68296   0.04919   0.00000  Uiso   1.00
C206   C     0.59524   0.70127   0.05388   0.00000  Uiso   1.00
C207   C     0.62553   0.66337   0.09828   0.00000  Uiso   1.00
H208   H     0.32237   0.57535   0.10423   0.00000  Uiso   1.00
H209   H     0.32819   0.52374   0.01829   0.00000  Uiso   1.00
H210   H     0.17951   0.63834   0.14362   0.00000  Uiso   1.00
H211   H     0.44433   0.54881   0.16151   0.00000  Uiso   1.00
H212   H     0.35830   0.49046   0.90613   0.00000  Uiso   1.00
H213   H     0.04481   0.73211   0.17040   0.00000  Uiso   1.00
H214   H     0.60323   0.54330   0.20812   0.00000  Uiso   1.00
H215   H     0.50478   0.75968   0.97411   0.00000  Uiso   1.00
H216   H     0.52063   0.71819   0.88103   0.00000  Uiso   1.00
H217   H     0.37194   0.83279   0.00635   0.00000  Uiso   1.00
H218   H     0.63676   0.74325   0.02424   0.00000  Uiso   1.00
H219   H     0.51448   0.64828   0.79472   0.00000  Uiso   1.00
H220   H     0.20099   0.88993   0.05899   0.00000  Uiso   1.00
H221   H     0.75941   0.70112   0.09671   0.00000  Uiso   1.00
O222   O     0.44350   0.53876   0.79154   0.00000  Uiso   1.00
O223   O     0.03221   0.85579   0.13826   0.00000  Uiso   1.00
O224   O     0.76485   0.60808   0.18775   0.00000  Uiso   1.00
N225   N     0.39290   0.53329   0.89269   0.00000  Uiso   1.00
N226   N     0.09980   0.75922   0.13975   0.00000  Uiso   1.00
N227   N     0.62186   0.58271   0.17503   0.00000  Uiso   1.00
N228   N     0.47694   0.61821   0.83274   0.00000  Uiso   1.00
N229   N     0.18384   0.84414   0.07980   0.00000  Uiso   1.00
N230   N     0.70590   0.66763   0.11509   0.00000  Uiso   1.00
C231   C     0.98110   0.09580   0.32744   0.00000  Uiso   1.00
C232   C     0.99123   0.03178   0.36594   0.00000  Uiso   1.00
C233   C     0.93782   0.00690   0.42440   0.00000  Uiso   1.00
C234   C     0.95794   0.94757   0.45191   0.00000  Uiso   1.00
C235   C     0.96283   0.85320   0.51623   0.00000  Uiso   1.00
C236   C     0.96359   0.08268   0.27283   0.00000  Uiso   1.00
C237   C     0.88695   0.10061   0.25302   0.00000  Uiso   1.00
C238   C     0.88381   0.08414   0.20215   0.00000  Uiso   1.00
C239   C     0.84583   0.06884   0.12190   0.00000  Uiso   1.00
C240   C     0.07806   0.13104   0.30579   0.00000  Uiso   1.00
C241   C     0.09767   0.18965   0.31366   0.00000  Uiso   1.00
C242   C     0.19091   0.21390   0.29052   0.00000  Uiso   1.00
C243   C     0.33066   0.27369   0.26144   0.00000  Uiso   1.00
C244   C     0.11183   0.03467   0.27233   0.00000  Uiso   1.00
C245   C     0.06223   0.99858   0.33600   0.00000  Uiso   1.00
C246   C     0.08244   0.93927   0.36343   0.00000  Uiso   1.00
C247   C     0.02907   0.91431   0.42193   0.00000  Uiso   1.00
C248   C     0.03459   0.04948   0.24290   0.00000  Uiso   1.00
C249   C     0.03158   0.03298   0.19204   0.00000  Uiso   1.00
C250   C     0.95494   0.05087   0.17216   0.00000  Uiso   1.00
C251   C     0.14907   0.09784   0.27585   0.00000  Uiso   1.00
C252   C     0.24230   0.12201   0.25269   0.00000  Uiso   1.00
C253   C     0.26204   0.18064   0.26053   0.00000  Uiso   1.00
H254   H     0.92582   0.12165   0.35074   0.00000  Uiso   1.00
H255   H     0.88287   0.03261   0.44755   0.00000  Uiso   1.00
H256   H     0.83202   0.12631   0.27619   0.00000  Uiso   1.00
H257   H     0.04270   0.21533   0.33683   0.00000  Uiso   1.00
H258   H     0.86653   0.91924   0.54167   0.00000  Uiso   1.00
H259   H     0.75933   0.11683   0.18034   0.00000  Uiso   1.00
H260   H     0.20360   0.30454   0.30821   0.00000  Uiso   1.00
H261   H     0.16711   0.00882   0.24902   0.00000  Uiso   1.00
H262   H     0.13739   0.91359   0.34025   0.00000  Uiso   1.00
H263   H     0.08654   0.00729   0.16889   0.00000  Uiso   1.00
H264   H     0.29722   0.09630   0.22953   0.00000  Uiso   1.00
H265   H     0.07311   0.82263   0.45458   0.00000  Uiso   1.00
H266   H     0.96590   0.02023   0.09325   0.00000  Uiso   1.00
H267   H     0.41018   0.20794   0.22111   0.00000  Uiso   1.00
O268   O     0.94590   0.81031   0.55997   0.00000  Uiso   1.00
O269   O     0.80526   0.06956   0.08591   0.00000  Uiso   1.00
O270   O     0.38813   0.31583   0.25367   0.00000  Uiso   1.00
N271   N     0.91924   0.90958   0.50866   0.00000  Uiso   1.00
N272   N     0.81900   0.09431   0.17084   0.00000  Uiso   1.00
N273   N     0.23436   0.26981   0.29037   0.00000  Uiso   1.00
N274   N     0.03040   0.85759   0.46180   0.00000  Uiso   1.00
N275   N     0.93016   0.04233   0.12398   0.00000  Uiso   1.00
N276   N     0.34552   0.21783   0.24351   0.00000  Uiso   1.00
C277   C     0.60190   0.00817   0.61808   0.00000  Uiso   1.00
C278   C     0.60713   0.93873   0.61752   0.00000  Uiso   1.00
C279   C     0.67181   0.91432   0.57561   0.00000  Uiso   1.00
C280   C     0.66492   0.84949   0.58291   0.00000  Uiso   1.00
C281   C     0.68357   0.74759   0.57483   0.00000  Uiso   1.00
C282   C     0.60939   0.01212   0.67802   0.00000  Uiso   1.00
C283   C     0.67597   0.04942   0.68697   0.00000  Uiso   1.00
C284   C     0.67097   0.04637   0.74520   0.00000  Uiso   1.00
C285   C     0.69310   0.05844   0.83105   0.00000  Uiso   1.00
C286   C     0.50198   0.02451   0.61867   0.00000  Uiso   1.00
C287   C     0.47825   0.07224   0.57773   0.00000  Uiso   1.00
C288   C     0.38281   0.07963   0.58601   0.00000  Uiso   1.00
C289   C     0.23817   0.11094   0.57970   0.00000  Uiso   1.00
C290   C     0.47462   0.93644   0.70559   0.00000  Uiso   1.00
C291   C     0.53799   0.89977   0.66505   0.00000  Uiso   1.00
C292   C     0.53099   0.83496   0.67242   0.00000  Uiso   1.00
C293   C     0.59566   0.81046   0.63052   0.00000  Uiso   1.00
C294   C     0.54026   0.97316   0.72555   0.00000  Uiso   1.00
C295   C     0.53515   0.97006   0.78378   0.00000  Uiso   1.00
C296   C     0.60171   0.00734   0.79282   0.00000  Uiso   1.00
C297   C     0.43284   0.98554   0.66620   0.00000  Uiso   1.00
C298   C     0.33743   0.99287   0.67455   0.00000  Uiso   1.00
C299   C     0.31356   0.04060   0.63362   0.00000  Uiso   1.00
H300   H     0.65573   0.03851   0.58108   0.00000  Uiso   1.00
H301   H     0.72531   0.94449   0.53883   0.00000  Uiso   1.00
H302   H     0.72946   0.07957   0.65018   0.00000  Uiso   1.00
H303   H     0.53177   0.10238   0.54096   0.00000  Uiso   1.00
H304   H     0.77199   0.82307   0.51297   0.00000  Uiso   1.00
H305   H     0.78072   0.10791   0.74775   0.00000  Uiso   1.00
H306   H     0.36384   0.15601   0.51743   0.00000  Uiso   1.00
H307   H     0.42080   0.90611   0.74259   0.00000  Uiso   1.00
H308   H     0.47748   0.80482   0.70921   0.00000  Uiso   1.00
H309   H     0.48164   0.93990   0.82055   0.00000  Uiso   1.00
H310   H     0.28395   0.96271   0.71133   0.00000  Uiso   1.00
H311   H     0.57085   0.70971   0.65125   0.00000  Uiso   1.00
H312   H     0.57958   0.99455   0.88603   0.00000  Uiso   1.00
H313   H     0.16270   0.04265   0.65571   0.00000  Uiso   1.00
O314   O     0.71297   0.70215   0.55724   0.00000  Uiso   1.00
O315   O     0.72441   0.07586   0.86527   0.00000  Uiso   1.00
O316   O     0.17749   0.13896   0.56309   0.00000  Uiso   1.00
N317   N     0.71686   0.81029   0.55009   0.00000  Uiso   1.00
N318   N     0.72503   0.07660   0.76959   0.00000  Uiso   1.00
N319   N     0.33529   0.12157   0.55427   0.00000  Uiso   1.00
N320   N     0.60862   0.74929   0.62449   0.00000  Uiso   1.00
N321   N     0.61680   0.01560   0.84400   0.00000  Uiso   1.00
N322   N     0.22706   0.06058   0.62868   0.00000  Uiso   1.00
C323   C     0.04832   0.29886   0.09091   0.00000  Uiso   1.00
C324   C     0.07423   0.35765   0.03961   0.00000  Uiso   1.00
C325   C     0.10226   0.41685   0.04238   0.00000  Uiso   1.00
C326   C     0.12291   0.46451   0.99059   0.00000  Uiso   1.00
C327   C     0.16427   0.55749   0.91893   0.00000  Uiso   1.00
C328   C     0.11282   0.24903   0.07024   0.00000  Uiso   1.00
C329   C     0.17329   0.21688   0.09878   0.00000  Uiso   1.00
C330   C     0.22642   0.17310   0.07277   0.00000  Uiso   1.00
C331   C     0.32764   0.09740   0.04870   0.00000  Uiso   1.00
C332   C     0.94891   0.27578   0.09645   0.00000  Uiso   1.00
C333   C     0.87156   0.26611   0.14703   0.00000  Uiso   1.00
C334   C     0.78669   0.24483   0.14309   0.00000  Uiso   1.00
C335   C     0.63341   0.21066   0.15971   0.00000  Uiso   1.00
C336   C     0.03515   0.27824   0.99398   0.00000  Uiso   1.00
C337   C     0.06707   0.34645   0.98696   0.00000  Uiso   1.00
C338   C     0.08768   0.39404   0.93514   0.00000  Uiso   1.00
C339   C     0.11574   0.45329   0.93784   0.00000  Uiso   1.00
C340   C     0.10567   0.23783   0.01759   0.00000  Uiso   1.00
C341   C     0.15871   0.19407   0.99154   0.00000  Uiso   1.00
C342   C     0.21925   0.16188   0.02003   0.00000  Uiso   1.00
C343   C     0.94175   0.26458   0.04380   0.00000  Uiso   1.00
C344   C     0.85698   0.24330   0.03978   0.00000  Uiso   1.00
C345   C     0.77952   0.23361   0.09034   0.00000  Uiso   1.00
H346   H     0.05390   0.30758   0.13190   0.00000  Uiso   1.00
H347   H     0.10780   0.42549   0.08314   0.00000  Uiso   1.00
H348   H     0.17880   0.22556   0.13952   0.00000  Uiso   1.00
H349   H     0.87712   0.27478   0.18776   0.00000  Uiso   1.00
H350   H     0.16443   0.55128   0.00585   0.00000  Uiso   1.00
H351   H     0.31413   0.12969   0.12476   0.00000  Uiso   1.00
H352   H     0.67798   0.23348   0.22648   0.00000  Uiso   1.00
H353   H     0.02958   0.26952   0.95299   0.00000  Uiso   1.00
H354   H     0.08214   0.38535   0.89441   0.00000  Uiso   1.00
H355   H     0.15315   0.18542   0.95080   0.00000  Uiso   1.00
H356   H     0.85147   0.23464   0.99903   0.00000  Uiso   1.00
H357   H     0.14361   0.51870   0.85267   0.00000  Uiso   1.00
H358   H     0.29331   0.09711   0.97159   0.00000  Uiso   1.00
H359   H     0.65716   0.20090   0.07330   0.00000  Uiso   1.00
O360   O     0.18907   0.61187   0.89395   0.00000  Uiso   1.00
O361   O     0.38545   0.05875   0.04996   0.00000  Uiso   1.00
O362   O     0.55084   0.19492   0.18341   0.00000  Uiso   1.00
N363   N     0.15230   0.52772   0.97784   0.00000  Uiso   1.00
N364   N     0.29227   0.13356   0.08901   0.00000  Uiso   1.00
N365   N     0.69753   0.23058   0.18412   0.00000  Uiso   1.00
N366   N     0.14109   0.51019   0.89542   0.00000  Uiso   1.00
N367   N     0.28107   0.11603   0.00659   0.00000  Uiso   1.00
N368   N     0.68632   0.21305   0.10169   0.00000  Uiso   1.00
C369   C     0.17286   0.58644   0.34157   0.00000  Uiso   1.00
C370   C     0.12512   0.61004   0.39644   0.00000  Uiso   1.00
C371   C     0.13184   0.58500   0.45273   0.00000  Uiso   1.00
C372   C     0.08288   0.61329   0.49702   0.00000  Uiso   1.00
C373   C     0.01696   0.64212   0.58398   0.00000  Uiso   1.00
C374   C     0.23157   0.64304   0.29562   0.00000  Uiso   1.00
C375   C     0.32780   0.64575   0.26715   0.00000  Uiso   1.00
C376   C     0.36845   0.70182   0.22656   0.00000  Uiso   1.00
C377   C     0.46779   0.78188   0.15698   0.00000  Uiso   1.00
C378   C     0.09411   0.57118   0.31794   0.00000  Uiso   1.00
C379   C     0.07476   0.51348   0.30821   0.00000  Uiso   1.00
C380   C     0.99969   0.50905   0.28640   0.00000  Uiso   1.00
C381   C     0.88560   0.47753   0.25147   0.00000  Uiso   1.00
C382   C     0.07395   0.68120   0.32012   0.00000  Uiso   1.00
C383   C     0.07140   0.66151   0.38478   0.00000  Uiso   1.00
C384   C     0.02241   0.68983   0.42900   0.00000  Uiso   1.00
C385   C     0.02906   0.66484   0.48535   0.00000  Uiso   1.00
C386   C     0.17785   0.69451   0.28397   0.00000  Uiso   1.00
C387   C     0.21837   0.75059   0.24342   0.00000  Uiso   1.00
C388   C     0.31463   0.75338   0.21489   0.00000  Uiso   1.00
C389   C     0.04038   0.62265   0.30629   0.00000  Uiso   1.00
C390   C     0.96533   0.61831   0.28448   0.00000  Uiso   1.00
C391   C     0.94587   0.56061   0.27473   0.00000  Uiso   1.00
H392   H     0.21469   0.54638   0.35063   0.00000  Uiso   1.00
H393   H     0.17343   0.54518   0.46173   0.00000  Uiso   1.00
H394   H     0.36935   0.60592   0.27617   0.00000  Uiso   1.00
H395   H     0.11635   0.47366   0.31723   0.00000  Uiso   1.00
H396   H     0.10402   0.56656   0.57975   0.00000  Uiso   1.00
H397   H     0.51713   0.69462   0.18848   0.00000  Uiso   1.00
H398   H     0.98364   0.41573   0.27507   0.00000  Uiso   1.00
H399   H     0.03213   0.72127   0.31104   0.00000  Uiso   1.00
H400   H     0.98084   0.72966   0.41997   0.00000  Uiso   1.00
H401   H     0.17677   0.79040   0.23441   0.00000  Uiso   1.00
H402   H     0.92378   0.65815   0.27547   0.00000  Uiso   1.00
H403   H     0.94772   0.71629   0.54586   0.00000  Uiso   1.00
H404   H     0.36083   0.84436   0.15458   0.00000  Uiso   1.00
H405   H     0.82733   0.56547   0.24117   0.00000  Uiso   1.00
O406   O     0.99546   0.64381   0.63517   0.00000  Uiso   1.00
O407   O     0.53743   0.81182   0.12182   0.00000  Uiso   1.00
O408   O     0.83750   0.44592   0.23543   0.00000  Uiso   1.00
N409   N     0.07426   0.60064   0.55683   0.00000  Uiso   1.00
N410   N     0.46049   0.72037   0.19102   0.00000  Uiso   1.00
N411   N     0.96174   0.45964   0.27196   0.00000  Uiso   1.00
N412   N     0.99015   0.68121   0.53859   0.00000  Uiso   1.00
N413   N     0.37639   0.80095   0.17278   0.00000  Uiso   1.00
N414   N     0.87763   0.54021   0.25372   0.00000  Uiso   1.00
C415   C     0.64231   0.66383   0.42730   0.00000  Uiso   1.00
C416   C     0.65297   0.60005   0.41201   0.00000  Uiso   1.00
C417   C     0.66069   0.54335   0.44992   0.00000  Uiso   1.00
C418   C     0.66992   0.49023   0.42753   0.00000  Uiso   1.00
C419   C     0.68631   0.39067   0.41263   0.00000  Uiso   1.00
C420   C     0.72336   0.70765   0.38152   0.00000  Uiso   1.00
C421   C     0.79025   0.74142   0.39381   0.00000  Uiso   1.00
C422   C     0.85873   0.77888   0.34575   0.00000  Uiso   1.00
C423   C     0.98435   0.84640   0.28354   0.00000  Uiso   1.00
C424   C     0.55242   0.68825   0.41490   0.00000  Uiso   1.00
C425   C     0.47559   0.70573   0.45525   0.00000  Uiso   1.00
C426   C     0.40016   0.72687   0.43529   0.00000  Uiso   1.00
C427   C     0.26039   0.76427   0.42489   0.00000  Uiso   1.00
C428   C     0.64498   0.67032   0.32011   0.00000  Uiso   1.00
C429   C     0.65443   0.60358   0.35378   0.00000  Uiso   1.00
C430   C     0.66365   0.55053   0.33133   0.00000  Uiso   1.00
C431   C     0.67137   0.49376   0.36920   0.00000  Uiso   1.00
C432   C     0.72481   0.71117   0.32330   0.00000  Uiso   1.00
C433   C     0.79320   0.74860   0.27522   0.00000  Uiso   1.00
C434   C     0.86018   0.78242   0.28743   0.00000  Uiso   1.00
C435   C     0.55387   0.69177   0.35668   0.00000  Uiso   1.00
C436   C     0.47855   0.71290   0.33665   0.00000  Uiso   1.00
C437   C     0.40162   0.73041   0.37696   0.00000  Uiso   1.00
H438   H     0.64118   0.66109   0.47262   0.00000  Uiso   1.00
H439   H     0.65957   0.54065   0.49497   0.00000  Uiso   1.00
H440   H     0.78910   0.73869   0.43887   0.00000  Uiso   1.00
H441   H     0.47450   0.70299   0.50029   0.00000  Uiso   1.00
H442   H     0.68064   0.40867   0.49407   0.00000  Uiso   1.00
H443   H     0.95374   0.82626   0.37578   0.00000  Uiso   1.00
H444   H     0.29033   0.75100   0.50530   0.00000  Uiso   1.00
H445   H     0.64611   0.67307   0.27478   0.00000  Uiso   1.00
H446   H     0.66477   0.55328   0.28627   0.00000  Uiso   1.00
H447   H     0.79430   0.75132   0.23017   0.00000  Uiso   1.00
H448   H     0.47970   0.71563   0.29160   0.00000  Uiso   1.00
H449   H     0.68486   0.41892   0.32468   0.00000  Uiso   1.00
H450   H     0.95796   0.83652   0.20639   0.00000  Uiso   1.00
H451   H     0.29455   0.76125   0.33592   0.00000  Uiso   1.00
O452   O     0.69497   0.33478   0.42050   0.00000  Uiso   1.00
O453   O     0.05325   0.88266   0.26531   0.00000  Uiso   1.00
O454   O     0.18288   0.78391   0.43524   0.00000  Uiso   1.00
N455   N     0.67905   0.42752   0.45263   0.00000  Uiso   1.00
N456   N     0.93440   0.81794   0.34203   0.00000  Uiso   1.00
N457   N     0.31418   0.74759   0.46313   0.00000  Uiso   1.00
N458   N     0.68132   0.43303   0.36148   0.00000  Uiso   1.00
N459   N     0.93667   0.82346   0.25089   0.00000  Uiso   1.00
N460   N     0.31645   0.75311   0.37198   0.00000  Uiso   1.00
C461   C     0.63584   0.38242   0.92558   0.00000  Uiso   1.00
C462   C     0.60737   0.38490   0.99032   0.00000  Uiso   1.00
C463   C     0.63025   0.43429   0.01135   0.00000  Uiso   1.00
C464   C     0.59752   0.42750   0.07211   0.00000  Uiso   1.00
C465   C     0.56152   0.43959   0.16680   0.00000  Uiso   1.00
C466   C     0.68816   0.32264   0.92223   0.00000  Uiso   1.00
C467   C     0.77897   0.31967   0.88601   0.00000  Uiso   1.00
C468   C     0.81424   0.26047   0.88945   0.00000  Uiso   1.00
C469   C     0.90364   0.17588   0.87841   0.00000  Uiso   1.00
C470   C     0.54427   0.37129   0.91251   0.00000  Uiso   1.00
C471   C     0.51411   0.40922   0.86812   0.00000  Uiso   1.00
C472   C     0.42824   0.39097   0.86337   0.00000  Uiso   1.00
C473   C     0.29424   0.38192   0.83723   0.00000  Uiso   1.00
C474   C     0.53701   0.28255   0.99608   0.00000  Uiso   1.00
C475   C     0.55369   0.33066   0.02861   0.00000  Uiso   1.00
C476   C     0.52091   0.32380   0.08935   0.00000  Uiso   1.00
C477   C     0.54374   0.37316   0.11047   0.00000  Uiso   1.00
C478   C     0.63448   0.26839   0.96052   0.00000  Uiso   1.00
C479   C     0.66962   0.20918   0.96401   0.00000  Uiso   1.00
C480   C     0.76046   0.20612   0.92781   0.00000  Uiso   1.00
C481   C     0.49059   0.31704   0.95081   0.00000  Uiso   1.00
C482   C     0.40476   0.29873   0.94612   0.00000  Uiso   1.00
C483   C     0.37447   0.33663   0.90172   0.00000  Uiso   1.00
H484   H     0.67763   0.42465   0.89577   0.00000  Uiso   1.00
H485   H     0.67181   0.47626   0.98171   0.00000  Uiso   1.00
H486   H     0.82049   0.36166   0.85638   0.00000  Uiso   1.00
H487   H     0.55567   0.45119   0.83849   0.00000  Uiso   1.00
H488   H     0.64170   0.50954   0.09387   0.00000  Uiso   1.00
H489   H     0.95519   0.26789   0.82960   0.00000  Uiso   1.00
H490   H     0.39677   0.45670   0.79188   0.00000  Uiso   1.00
H491   H     0.49522   0.24032   0.02589   0.00000  Uiso   1.00
H492   H     0.47937   0.28181   0.11897   0.00000  Uiso   1.00
H493   H     0.62806   0.16721   0.99365   0.00000  Uiso   1.00
H494   H     0.36324   0.25675   0.97576   0.00000  Uiso   1.00
H495   H     0.48552   0.35172   0.20528   0.00000  Uiso   1.00
H496   H     0.79901   0.11007   0.94101   0.00000  Uiso   1.00
H497   H     0.24059   0.29888   0.90329   0.00000  Uiso   1.00
O498   O     0.55650   0.46124   0.20846   0.00000  Uiso   1.00
O499   O     0.96779   0.14421   0.86174   0.00000  Uiso   1.00
O500   O     0.23515   0.39192   0.81225   0.00000  Uiso   1.00
N501   N     0.60710   0.46671   0.10731   0.00000  Uiso   1.00
N502   N     0.90020   0.24078   0.86025   0.00000  Uiso   1.00
N503   N     0.37814   0.41729   0.82497   0.00000  Uiso   1.00
N504   N     0.52306   0.38179   0.16726   0.00000  Uiso   1.00
N505   N     0.81616   0.15586   0.92020   0.00000  Uiso   1.00
N506   N     0.29410   0.33237   0.88491   0.00000  Uiso   1.00
C507   C     0.01890   0.90420   0.67256   0.00000  Uiso   1.00
C508   C     0.00877   0.96822   0.63406   0.00000  Uiso   1.00
C509   C     0.06218   0.99310   0.57560   0.00000  Uiso   1.00
C510   C     0.04206   0.05243   0.54809   0.00000  Uiso   1.00
C511   C     0.03717   0.14680   0.48377   0.00000  Uiso   1.00
C512   C     0.03641   0.91732   0.72717   0.00000  Uiso   1.00
C513   C     0.11305   0.89939   0.74698   0.00000  Uiso   1.00
C514   C     0.11619   0.91586   0.79785   0.00000  Uiso   1.00
C515   C     0.15417   0.93116   0.87810   0.00000  Uiso   1.00
C516   C     0.92194   0.86896   0.69421   0.00000  Uiso   1.00
C517   C     0.90233   0.81035   0.68634   0.00000  Uiso   1.00
C518   C     0.80909   0.78610   0.70948   0.00000  Uiso   1.00
C519   C     0.66934   0.72631   0.73856   0.00000  Uiso   1.00
C520   C     0.88817   0.96533   0.72767   0.00000  Uiso   1.00
C521   C     0.93777   0.00142   0.66400   0.00000  Uiso   1.00
C522   C     0.91756   0.06073   0.63657   0.00000  Uiso   1.00
C523   C     0.97093   0.08569   0.57807   0.00000  Uiso   1.00
C524   C     0.96541   0.95052   0.75710   0.00000  Uiso   1.00
C525   C     0.96842   0.96702   0.80796   0.00000  Uiso   1.00
C526   C     0.04506   0.94913   0.82784   0.00000  Uiso   1.00
C527   C     0.85093   0.90216   0.72415   0.00000  Uiso   1.00
C528   C     0.75770   0.87799   0.74731   0.00000  Uiso   1.00
C529   C     0.73796   0.81936   0.73947   0.00000  Uiso   1.00
H530   H     0.07418   0.87835   0.64926   0.00000  Uiso   1.00
H531   H     0.11713   0.96739   0.55245   0.00000  Uiso   1.00
H532   H     0.16798   0.87369   0.72381   0.00000  Uiso   1.00
H533   H     0.95730   0.78467   0.66317   0.00000  Uiso   1.00
H534   H     0.13347   0.08076   0.45833   0.00000  Uiso   1.00
H535   H     0.24067   0.88317   0.81966   0.00000  Uiso   1.00
H536   H     0.79640   0.69546   0.69179   0.00000  Uiso   1.00
H537   H     0.83289   0.99118   0.75098   0.00000  Uiso   1.00
H538   H     0.86261   0.08641   0.65975   0.00000  Uiso   1.00
H539   H     0.91346   0.99271   0.83111   0.00000  Uiso   1.00
H540   H     0.70278   0.90370   0.77047   0.00000  Uiso   1.00
H541   H     0.92689   0.17737   0.54542   0.00000  Uiso   1.00
H542   H     0.03410   0.97977   0.90675   0.00000  Uiso   1.00
H543   H     0.58982   0.79206   0.77889   0.00000  Uiso   1.00
O544   O     0.05410   0.18969   0.44003   0.00000  Uiso   1.00
O545   O     0.19474   0.93044   0.91409   0.00000  Uiso   1.00
O546   O     0.61187   0.68417   0.74633   0.00000  Uiso   1.00
N547   N     0.08076   0.09042   0.49134   0.00000  Uiso   1.00
N548   N     0.18100   0.90569   0.82916   0.00000  Uiso   1.00
N549   N     0.76564   0.73019   0.70963   0.00000  Uiso   1.00
N550   N     0.96960   0.14241   0.53820   0.00000  Uiso   1.00
N551   N     0.06984   0.95767   0.87602   0.00000  Uiso   1.00
N552   N     0.65448   0.78217   0.75649   0.00000  Uiso   1.00
