data_job_00820
_audit_creation_date              2018-12-19
_audit_creation_method            'Materials Studio'
_symmetry_space_group_name_H-M    'P1'
_symmetry_Int_Tables_number       1
_symmetry_cell_setting            triclinic
loop_
_symmetry_equiv_pos_as_xyz
  x,y,z
_cell_length_a                    42.7448
_cell_length_b                    12.3000
_cell_length_c                    13.4973
_cell_angle_alpha                 90.0000
_cell_angle_beta                  90.0000
_cell_angle_gamma                 90.0000
loop_
_atom_site_label
_atom_site_type_symbol
_atom_site_fract_x
_atom_site_fract_y
_atom_site_fract_z
_atom_site_U_iso_or_equiv
_atom_site_adp_type
_atom_site_occupancy
C1     C     0.65871   0.13188   0.69944   0.00000  Uiso   1.00
C2     C     0.67657   0.04640   0.75860   0.00000  Uiso   1.00
C3     C     0.68634   0.94604   0.72327   0.00000  Uiso   1.00
C4     C     0.70235   0.87942   0.78903   0.00000  Uiso   1.00
C5     C     0.72915   0.74171   0.86606   0.00000  Uiso   1.00
C6     C     0.62890   0.15499   0.75782   0.00000  Uiso   1.00
C7     C     0.59860   0.14593   0.72182   0.00000  Uiso   1.00
C8     C     0.57448   0.17073   0.78692   0.00000  Uiso   1.00
C9     C     0.52728   0.20167   0.86272   0.00000  Uiso   1.00
C10    C     0.67823   0.23546   0.70500   0.00000  Uiso   1.00
C11    C     0.68941   0.29409   0.62459   0.00000  Uiso   1.00
C12    C     0.70682   0.38665   0.64522   0.00000  Uiso   1.00
C13    C     0.73622   0.54253   0.63900   0.00000  Uiso   1.00
C14    C     0.66976   0.19203   0.87906   0.00000  Uiso   1.00
C15    C     0.68257   0.07908   0.85616   0.00000  Uiso   1.00
C16    C     0.69857   0.01259   0.92199   0.00000  Uiso   1.00
C17    C     0.70837   0.91215   0.88676   0.00000  Uiso   1.00
C18    C     0.63490   0.18766   0.85538   0.00000  Uiso   1.00
C19    C     0.61082   0.21248   0.92054   0.00000  Uiso   1.00
C20    C     0.58049   0.20346   0.88466   0.00000  Uiso   1.00
C21    C     0.68424   0.26813   0.80256   0.00000  Uiso   1.00
C22    C     0.70163   0.36063   0.82331   0.00000  Uiso   1.00
C23    C     0.71283   0.41938   0.74295   0.00000  Uiso   1.00
H24    H     0.65403   0.10644   0.62349   0.00000  Uiso   1.00
H25    H     0.68169   0.92079   0.64777   0.00000  Uiso   1.00
H26    H     0.59396   0.12066   0.64632   0.00000  Uiso   1.00
H27    H     0.68476   0.26878   0.54910   0.00000  Uiso   1.00
H28    H     0.71499   0.72934   0.71771   0.00000  Uiso   1.00
H29    H     0.53000   0.15081   0.71465   0.00000  Uiso   1.00
H30    H     0.72147   0.46316   0.50965   0.00000  Uiso   1.00
H31    H     0.67443   0.21746   0.95501   0.00000  Uiso   1.00
H32    H     0.70321   0.03789   0.99748   0.00000  Uiso   1.00
H33    H     0.61548   0.23776   0.99603   0.00000  Uiso   1.00
H34    H     0.70627   0.38588   0.89882   0.00000  Uiso   1.00
H35    H     0.73245   0.82439   0.00156   0.00000  Uiso   1.00
H36    H     0.54746   0.24587   0.99849   0.00000  Uiso   1.00
H37    H     0.73893   0.55821   0.79349   0.00000  Uiso   1.00
O38    O     0.74227   0.65672   0.88160   0.00000  Uiso   1.00
O39    O     0.49958   0.20970   0.87758   0.00000  Uiso   1.00
O40    O     0.75078   0.61948   0.60862   0.00000  Uiso   1.00
N41    N     0.71515   0.77636   0.77868   0.00000  Uiso   1.00
N42    N     0.54220   0.17040   0.77582   0.00000  Uiso   1.00
N43    N     0.72120   0.46243   0.58416   0.00000  Uiso   1.00
N44    N     0.72455   0.82751   0.93142   0.00000  Uiso   1.00
N45    N     0.55160   0.22154   0.92856   0.00000  Uiso   1.00
N46    N     0.73060   0.51358   0.73690   0.00000  Uiso   1.00
C47    C     0.84129   0.36812   0.19944   0.00000  Uiso   1.00
C48    C     0.82343   0.45360   0.25860   0.00000  Uiso   1.00
C49    C     0.81366   0.55396   0.22327   0.00000  Uiso   1.00
C50    C     0.79765   0.62058   0.28903   0.00000  Uiso   1.00
C51    C     0.77085   0.75829   0.36606   0.00000  Uiso   1.00
C52    C     0.87110   0.34501   0.25782   0.00000  Uiso   1.00
C53    C     0.90140   0.35407   0.22182   0.00000  Uiso   1.00
C54    C     0.92552   0.32927   0.28692   0.00000  Uiso   1.00
C55    C     0.97272   0.29833   0.36272   0.00000  Uiso   1.00
C56    C     0.82177   0.26454   0.20500   0.00000  Uiso   1.00
C57    C     0.81059   0.20591   0.12459   0.00000  Uiso   1.00
C58    C     0.79318   0.11335   0.14522   0.00000  Uiso   1.00
C59    C     0.76378   0.95747   0.13900   0.00000  Uiso   1.00
C60    C     0.83024   0.30797   0.37906   0.00000  Uiso   1.00
C61    C     0.81743   0.42092   0.35616   0.00000  Uiso   1.00
C62    C     0.80143   0.48741   0.42199   0.00000  Uiso   1.00
C63    C     0.79163   0.58785   0.38676   0.00000  Uiso   1.00
C64    C     0.86510   0.31234   0.35538   0.00000  Uiso   1.00
C65    C     0.88918   0.28752   0.42054   0.00000  Uiso   1.00
C66    C     0.91951   0.29654   0.38466   0.00000  Uiso   1.00
C67    C     0.81576   0.23187   0.30256   0.00000  Uiso   1.00
C68    C     0.79837   0.13937   0.32331   0.00000  Uiso   1.00
C69    C     0.78717   0.08062   0.24295   0.00000  Uiso   1.00
H70    H     0.84597   0.39356   0.12349   0.00000  Uiso   1.00
H71    H     0.81831   0.57921   0.14777   0.00000  Uiso   1.00
H72    H     0.90604   0.37934   0.14632   0.00000  Uiso   1.00
H73    H     0.81524   0.23122   0.04910   0.00000  Uiso   1.00
H74    H     0.78501   0.77066   0.21771   0.00000  Uiso   1.00
H75    H     0.97000   0.34919   0.21465   0.00000  Uiso   1.00
H76    H     0.77853   0.03684   0.00965   0.00000  Uiso   1.00
H77    H     0.82557   0.28254   0.45501   0.00000  Uiso   1.00
H78    H     0.79679   0.46211   0.49748   0.00000  Uiso   1.00
H79    H     0.88452   0.26224   0.49603   0.00000  Uiso   1.00
H80    H     0.79373   0.11412   0.39882   0.00000  Uiso   1.00
H81    H     0.76755   0.67561   0.50156   0.00000  Uiso   1.00
H82    H     0.95254   0.25413   0.49849   0.00000  Uiso   1.00
H83    H     0.76107   0.94179   0.29349   0.00000  Uiso   1.00
O84    O     0.75773   0.84328   0.38160   0.00000  Uiso   1.00
O85    O     0.00042   0.29030   0.37758   0.00000  Uiso   1.00
O86    O     0.74922   0.88052   0.10862   0.00000  Uiso   1.00
N87    N     0.78485   0.72364   0.27868   0.00000  Uiso   1.00
N88    N     0.95780   0.32960   0.27582   0.00000  Uiso   1.00
N89    N     0.77880   0.03757   0.08416   0.00000  Uiso   1.00
N90    N     0.77545   0.67249   0.43142   0.00000  Uiso   1.00
N91    N     0.94840   0.27846   0.42856   0.00000  Uiso   1.00
N92    N     0.76940   0.98642   0.23690   0.00000  Uiso   1.00
C93    C     0.34129   0.13188   0.80056   0.00000  Uiso   1.00
C94    C     0.32343   0.04640   0.74140   0.00000  Uiso   1.00
C95    C     0.31366   0.94604   0.77673   0.00000  Uiso   1.00
C96    C     0.29765   0.87942   0.71097   0.00000  Uiso   1.00
C97    C     0.27085   0.74171   0.63394   0.00000  Uiso   1.00
C98    C     0.37110   0.15499   0.74218   0.00000  Uiso   1.00
C99    C     0.40140   0.14593   0.77818   0.00000  Uiso   1.00
C100   C     0.42552   0.17073   0.71308   0.00000  Uiso   1.00
C101   C     0.47272   0.20167   0.63728   0.00000  Uiso   1.00
C102   C     0.32177   0.23546   0.79500   0.00000  Uiso   1.00
C103   C     0.31059   0.29409   0.87541   0.00000  Uiso   1.00
C104   C     0.29318   0.38665   0.85478   0.00000  Uiso   1.00
C105   C     0.26378   0.54253   0.86100   0.00000  Uiso   1.00
C106   C     0.33024   0.19203   0.62094   0.00000  Uiso   1.00
C107   C     0.31743   0.07908   0.64384   0.00000  Uiso   1.00
C108   C     0.30143   0.01259   0.57801   0.00000  Uiso   1.00
C109   C     0.29163   0.91215   0.61324   0.00000  Uiso   1.00
C110   C     0.36510   0.18766   0.64462   0.00000  Uiso   1.00
C111   C     0.38918   0.21248   0.57946   0.00000  Uiso   1.00
C112   C     0.41951   0.20346   0.61534   0.00000  Uiso   1.00
C113   C     0.31576   0.26813   0.69744   0.00000  Uiso   1.00
C114   C     0.29837   0.36063   0.67669   0.00000  Uiso   1.00
C115   C     0.28717   0.41938   0.75705   0.00000  Uiso   1.00
H116   H     0.34597   0.10644   0.87651   0.00000  Uiso   1.00
H117   H     0.31831   0.92079   0.85223   0.00000  Uiso   1.00
H118   H     0.40604   0.12066   0.85368   0.00000  Uiso   1.00
H119   H     0.31524   0.26878   0.95090   0.00000  Uiso   1.00
H120   H     0.28501   0.72934   0.78229   0.00000  Uiso   1.00
H121   H     0.47000   0.15081   0.78535   0.00000  Uiso   1.00
H122   H     0.27853   0.46316   0.99035   0.00000  Uiso   1.00
H123   H     0.32557   0.21746   0.54499   0.00000  Uiso   1.00
H124   H     0.29679   0.03789   0.50252   0.00000  Uiso   1.00
H125   H     0.38452   0.23776   0.50397   0.00000  Uiso   1.00
H126   H     0.29373   0.38588   0.60118   0.00000  Uiso   1.00
H127   H     0.26755   0.82439   0.49844   0.00000  Uiso   1.00
H128   H     0.45254   0.24587   0.50151   0.00000  Uiso   1.00
H129   H     0.26107   0.55821   0.70651   0.00000  Uiso   1.00
O130   O     0.25773   0.65672   0.61840   0.00000  Uiso   1.00
O131   O     0.50042   0.20970   0.62242   0.00000  Uiso   1.00
O132   O     0.24922   0.61948   0.89138   0.00000  Uiso   1.00
N133   N     0.28485   0.77636   0.72132   0.00000  Uiso   1.00
N134   N     0.45780   0.17040   0.72418   0.00000  Uiso   1.00
N135   N     0.27880   0.46243   0.91584   0.00000  Uiso   1.00
N136   N     0.27545   0.82751   0.56858   0.00000  Uiso   1.00
N137   N     0.44840   0.22154   0.57144   0.00000  Uiso   1.00
N138   N     0.26940   0.51358   0.76310   0.00000  Uiso   1.00
C139   C     0.15871   0.36812   0.30056   0.00000  Uiso   1.00
C140   C     0.17657   0.45360   0.24140   0.00000  Uiso   1.00
C141   C     0.18634   0.55396   0.27673   0.00000  Uiso   1.00
C142   C     0.20235   0.62058   0.21097   0.00000  Uiso   1.00
C143   C     0.22915   0.75829   0.13394   0.00000  Uiso   1.00
C144   C     0.12890   0.34501   0.24218   0.00000  Uiso   1.00
C145   C     0.09860   0.35407   0.27818   0.00000  Uiso   1.00
C146   C     0.07448   0.32927   0.21308   0.00000  Uiso   1.00
C147   C     0.02728   0.29833   0.13728   0.00000  Uiso   1.00
C148   C     0.17823   0.26454   0.29500   0.00000  Uiso   1.00
C149   C     0.18941   0.20591   0.37541   0.00000  Uiso   1.00
C150   C     0.20682   0.11335   0.35478   0.00000  Uiso   1.00
C151   C     0.23622   0.95747   0.36100   0.00000  Uiso   1.00
C152   C     0.16976   0.30797   0.12094   0.00000  Uiso   1.00
C153   C     0.18257   0.42092   0.14384   0.00000  Uiso   1.00
C154   C     0.19857   0.48741   0.07801   0.00000  Uiso   1.00
C155   C     0.20837   0.58785   0.11324   0.00000  Uiso   1.00
C156   C     0.13490   0.31234   0.14462   0.00000  Uiso   1.00
C157   C     0.11082   0.28752   0.07946   0.00000  Uiso   1.00
C158   C     0.08049   0.29654   0.11534   0.00000  Uiso   1.00
C159   C     0.18424   0.23187   0.19744   0.00000  Uiso   1.00
C160   C     0.20163   0.13937   0.17669   0.00000  Uiso   1.00
C161   C     0.21283   0.08062   0.25705   0.00000  Uiso   1.00
H162   H     0.15403   0.39356   0.37651   0.00000  Uiso   1.00
H163   H     0.18169   0.57921   0.35223   0.00000  Uiso   1.00
H164   H     0.09396   0.37934   0.35368   0.00000  Uiso   1.00
H165   H     0.18476   0.23122   0.45090   0.00000  Uiso   1.00
H166   H     0.21499   0.77066   0.28229   0.00000  Uiso   1.00
H167   H     0.03000   0.34919   0.28535   0.00000  Uiso   1.00
H168   H     0.22147   0.03684   0.49035   0.00000  Uiso   1.00
H169   H     0.17443   0.28254   0.04499   0.00000  Uiso   1.00
H170   H     0.20321   0.46211   0.00252   0.00000  Uiso   1.00
H171   H     0.11548   0.26224   0.00397   0.00000  Uiso   1.00
H172   H     0.20627   0.11412   0.10118   0.00000  Uiso   1.00
H173   H     0.23245   0.67561   0.99844   0.00000  Uiso   1.00
H174   H     0.04746   0.25413   0.00151   0.00000  Uiso   1.00
H175   H     0.23893   0.94179   0.20651   0.00000  Uiso   1.00
O176   O     0.24227   0.84328   0.11840   0.00000  Uiso   1.00
O177   O     0.99958   0.29030   0.12242   0.00000  Uiso   1.00
O178   O     0.25078   0.88052   0.39138   0.00000  Uiso   1.00
N179   N     0.21515   0.72364   0.22132   0.00000  Uiso   1.00
N180   N     0.04220   0.32960   0.22418   0.00000  Uiso   1.00
N181   N     0.22120   0.03757   0.41584   0.00000  Uiso   1.00
N182   N     0.22455   0.67249   0.06858   0.00000  Uiso   1.00
N183   N     0.05160   0.27846   0.07144   0.00000  Uiso   1.00
N184   N     0.23060   0.98642   0.26310   0.00000  Uiso   1.00
C185   C     0.34129   0.86812   0.30056   0.00000  Uiso   1.00
C186   C     0.32343   0.95360   0.24140   0.00000  Uiso   1.00
C187   C     0.31366   0.05396   0.27673   0.00000  Uiso   1.00
C188   C     0.29765   0.12058   0.21097   0.00000  Uiso   1.00
C189   C     0.27085   0.25829   0.13394   0.00000  Uiso   1.00
C190   C     0.37110   0.84501   0.24218   0.00000  Uiso   1.00
C191   C     0.40140   0.85407   0.27818   0.00000  Uiso   1.00
C192   C     0.42552   0.82927   0.21308   0.00000  Uiso   1.00
C193   C     0.47272   0.79833   0.13728   0.00000  Uiso   1.00
C194   C     0.32177   0.76454   0.29500   0.00000  Uiso   1.00
C195   C     0.31059   0.70591   0.37541   0.00000  Uiso   1.00
C196   C     0.29318   0.61335   0.35478   0.00000  Uiso   1.00
C197   C     0.26378   0.45747   0.36100   0.00000  Uiso   1.00
C198   C     0.33024   0.80797   0.12094   0.00000  Uiso   1.00
C199   C     0.31743   0.92092   0.14384   0.00000  Uiso   1.00
C200   C     0.30143   0.98741   0.07801   0.00000  Uiso   1.00
C201   C     0.29163   0.08785   0.11324   0.00000  Uiso   1.00
C202   C     0.36510   0.81234   0.14462   0.00000  Uiso   1.00
C203   C     0.38918   0.78752   0.07946   0.00000  Uiso   1.00
C204   C     0.41951   0.79654   0.11534   0.00000  Uiso   1.00
C205   C     0.31576   0.73187   0.19744   0.00000  Uiso   1.00
C206   C     0.29837   0.63937   0.17669   0.00000  Uiso   1.00
C207   C     0.28717   0.58062   0.25705   0.00000  Uiso   1.00
H208   H     0.34597   0.89356   0.37651   0.00000  Uiso   1.00
H209   H     0.31831   0.07921   0.35223   0.00000  Uiso   1.00
H210   H     0.40604   0.87934   0.35368   0.00000  Uiso   1.00
H211   H     0.31524   0.73122   0.45090   0.00000  Uiso   1.00
H212   H     0.28501   0.27066   0.28229   0.00000  Uiso   1.00
H213   H     0.47000   0.84919   0.28535   0.00000  Uiso   1.00
H214   H     0.27853   0.53684   0.49035   0.00000  Uiso   1.00
H215   H     0.32557   0.78254   0.04499   0.00000  Uiso   1.00
H216   H     0.29679   0.96211   0.00252   0.00000  Uiso   1.00
H217   H     0.38452   0.76224   0.00397   0.00000  Uiso   1.00
H218   H     0.29373   0.61412   0.10118   0.00000  Uiso   1.00
H219   H     0.26755   0.17561   0.99844   0.00000  Uiso   1.00
H220   H     0.45254   0.75413   0.00151   0.00000  Uiso   1.00
H221   H     0.26107   0.44179   0.20651   0.00000  Uiso   1.00
O222   O     0.25773   0.34328   0.11840   0.00000  Uiso   1.00
O223   O     0.50042   0.79030   0.12242   0.00000  Uiso   1.00
O224   O     0.24922   0.38052   0.39138   0.00000  Uiso   1.00
N225   N     0.28485   0.22364   0.22132   0.00000  Uiso   1.00
N226   N     0.45780   0.82960   0.22418   0.00000  Uiso   1.00
N227   N     0.27880   0.53757   0.41584   0.00000  Uiso   1.00
N228   N     0.27545   0.17249   0.06858   0.00000  Uiso   1.00
N229   N     0.44840   0.77846   0.07144   0.00000  Uiso   1.00
N230   N     0.26940   0.48642   0.26310   0.00000  Uiso   1.00
C231   C     0.15871   0.63188   0.80056   0.00000  Uiso   1.00
C232   C     0.17657   0.54640   0.74140   0.00000  Uiso   1.00
C233   C     0.18634   0.44604   0.77673   0.00000  Uiso   1.00
C234   C     0.20235   0.37942   0.71097   0.00000  Uiso   1.00
C235   C     0.22915   0.24171   0.63394   0.00000  Uiso   1.00
C236   C     0.12890   0.65499   0.74218   0.00000  Uiso   1.00
C237   C     0.09860   0.64593   0.77818   0.00000  Uiso   1.00
C238   C     0.07448   0.67073   0.71308   0.00000  Uiso   1.00
C239   C     0.02728   0.70167   0.63728   0.00000  Uiso   1.00
C240   C     0.17823   0.73546   0.79500   0.00000  Uiso   1.00
C241   C     0.18941   0.79409   0.87541   0.00000  Uiso   1.00
C242   C     0.20682   0.88665   0.85478   0.00000  Uiso   1.00
C243   C     0.23622   0.04253   0.86100   0.00000  Uiso   1.00
C244   C     0.16976   0.69203   0.62094   0.00000  Uiso   1.00
C245   C     0.18257   0.57908   0.64384   0.00000  Uiso   1.00
C246   C     0.19857   0.51259   0.57801   0.00000  Uiso   1.00
C247   C     0.20837   0.41215   0.61324   0.00000  Uiso   1.00
C248   C     0.13490   0.68766   0.64462   0.00000  Uiso   1.00
C249   C     0.11082   0.71248   0.57946   0.00000  Uiso   1.00
C250   C     0.08049   0.70346   0.61534   0.00000  Uiso   1.00
C251   C     0.18424   0.76813   0.69744   0.00000  Uiso   1.00
C252   C     0.20163   0.86063   0.67669   0.00000  Uiso   1.00
C253   C     0.21283   0.91938   0.75705   0.00000  Uiso   1.00
H254   H     0.15403   0.60644   0.87651   0.00000  Uiso   1.00
H255   H     0.18169   0.42079   0.85223   0.00000  Uiso   1.00
H256   H     0.09396   0.62066   0.85368   0.00000  Uiso   1.00
H257   H     0.18476   0.76878   0.95090   0.00000  Uiso   1.00
H258   H     0.21499   0.22934   0.78229   0.00000  Uiso   1.00
H259   H     0.03000   0.65081   0.78535   0.00000  Uiso   1.00
H260   H     0.22147   0.96316   0.99035   0.00000  Uiso   1.00
H261   H     0.17443   0.71746   0.54499   0.00000  Uiso   1.00
H262   H     0.20321   0.53789   0.50252   0.00000  Uiso   1.00
H263   H     0.11548   0.73776   0.50397   0.00000  Uiso   1.00
H264   H     0.20627   0.88588   0.60118   0.00000  Uiso   1.00
H265   H     0.23245   0.32439   0.49844   0.00000  Uiso   1.00
H266   H     0.04746   0.74587   0.50151   0.00000  Uiso   1.00
H267   H     0.23893   0.05821   0.70651   0.00000  Uiso   1.00
O268   O     0.24227   0.15672   0.61840   0.00000  Uiso   1.00
O269   O     0.99958   0.70970   0.62242   0.00000  Uiso   1.00
O270   O     0.25078   0.11948   0.89138   0.00000  Uiso   1.00
N271   N     0.21515   0.27636   0.72132   0.00000  Uiso   1.00
N272   N     0.04220   0.67040   0.72418   0.00000  Uiso   1.00
N273   N     0.22120   0.96243   0.91584   0.00000  Uiso   1.00
N274   N     0.22455   0.32751   0.56858   0.00000  Uiso   1.00
N275   N     0.05160   0.72154   0.57144   0.00000  Uiso   1.00
N276   N     0.23060   0.01358   0.76310   0.00000  Uiso   1.00
C277   C     0.65871   0.86812   0.19944   0.00000  Uiso   1.00
C278   C     0.67657   0.95360   0.25860   0.00000  Uiso   1.00
C279   C     0.68634   0.05396   0.22327   0.00000  Uiso   1.00
C280   C     0.70235   0.12058   0.28903   0.00000  Uiso   1.00
C281   C     0.72915   0.25829   0.36606   0.00000  Uiso   1.00
C282   C     0.62890   0.84501   0.25782   0.00000  Uiso   1.00
C283   C     0.59860   0.85407   0.22182   0.00000  Uiso   1.00
C284   C     0.57448   0.82927   0.28692   0.00000  Uiso   1.00
C285   C     0.52728   0.79833   0.36272   0.00000  Uiso   1.00
C286   C     0.67823   0.76454   0.20500   0.00000  Uiso   1.00
C287   C     0.68941   0.70591   0.12459   0.00000  Uiso   1.00
C288   C     0.70682   0.61335   0.14522   0.00000  Uiso   1.00
C289   C     0.73622   0.45747   0.13900   0.00000  Uiso   1.00
C290   C     0.66976   0.80797   0.37906   0.00000  Uiso   1.00
C291   C     0.68257   0.92092   0.35616   0.00000  Uiso   1.00
C292   C     0.69857   0.98741   0.42199   0.00000  Uiso   1.00
C293   C     0.70837   0.08785   0.38676   0.00000  Uiso   1.00
C294   C     0.63490   0.81234   0.35538   0.00000  Uiso   1.00
C295   C     0.61082   0.78752   0.42054   0.00000  Uiso   1.00
C296   C     0.58049   0.79654   0.38466   0.00000  Uiso   1.00
C297   C     0.68424   0.73187   0.30256   0.00000  Uiso   1.00
C298   C     0.70163   0.63937   0.32331   0.00000  Uiso   1.00
C299   C     0.71283   0.58062   0.24295   0.00000  Uiso   1.00
H300   H     0.65403   0.89356   0.12349   0.00000  Uiso   1.00
H301   H     0.68169   0.07921   0.14777   0.00000  Uiso   1.00
H302   H     0.59396   0.87934   0.14632   0.00000  Uiso   1.00
H303   H     0.68476   0.73122   0.04910   0.00000  Uiso   1.00
H304   H     0.71499   0.27066   0.21771   0.00000  Uiso   1.00
H305   H     0.53000   0.84919   0.21465   0.00000  Uiso   1.00
H306   H     0.72147   0.53684   0.00965   0.00000  Uiso   1.00
H307   H     0.67443   0.78254   0.45501   0.00000  Uiso   1.00
H308   H     0.70321   0.96211   0.49748   0.00000  Uiso   1.00
H309   H     0.61548   0.76224   0.49603   0.00000  Uiso   1.00
H310   H     0.70627   0.61412   0.39882   0.00000  Uiso   1.00
H311   H     0.73245   0.17561   0.50156   0.00000  Uiso   1.00
H312   H     0.54746   0.75413   0.49849   0.00000  Uiso   1.00
H313   H     0.73893   0.44179   0.29349   0.00000  Uiso   1.00
O314   O     0.74227   0.34328   0.38160   0.00000  Uiso   1.00
O315   O     0.49958   0.79030   0.37758   0.00000  Uiso   1.00
O316   O     0.75078   0.38052   0.10862   0.00000  Uiso   1.00
N317   N     0.71515   0.22364   0.27868   0.00000  Uiso   1.00
N318   N     0.54220   0.82960   0.27582   0.00000  Uiso   1.00
N319   N     0.72120   0.53757   0.08416   0.00000  Uiso   1.00
N320   N     0.72455   0.17249   0.43142   0.00000  Uiso   1.00
N321   N     0.55160   0.77846   0.42856   0.00000  Uiso   1.00
N322   N     0.73060   0.48642   0.23690   0.00000  Uiso   1.00
C323   C     0.84129   0.63188   0.69944   0.00000  Uiso   1.00
C324   C     0.82343   0.54640   0.75860   0.00000  Uiso   1.00
C325   C     0.81366   0.44604   0.72327   0.00000  Uiso   1.00
C326   C     0.79765   0.37942   0.78903   0.00000  Uiso   1.00
C327   C     0.77085   0.24171   0.86606   0.00000  Uiso   1.00
C328   C     0.87110   0.65499   0.75782   0.00000  Uiso   1.00
C329   C     0.90140   0.64593   0.72182   0.00000  Uiso   1.00
C330   C     0.92552   0.67073   0.78692   0.00000  Uiso   1.00
C331   C     0.97272   0.70167   0.86272   0.00000  Uiso   1.00
C332   C     0.82177   0.73546   0.70500   0.00000  Uiso   1.00
C333   C     0.81059   0.79409   0.62459   0.00000  Uiso   1.00
C334   C     0.79318   0.88665   0.64522   0.00000  Uiso   1.00
C335   C     0.76378   0.04253   0.63900   0.00000  Uiso   1.00
C336   C     0.83024   0.69203   0.87906   0.00000  Uiso   1.00
C337   C     0.81743   0.57908   0.85616   0.00000  Uiso   1.00
C338   C     0.80143   0.51259   0.92199   0.00000  Uiso   1.00
C339   C     0.79163   0.41215   0.88676   0.00000  Uiso   1.00
C340   C     0.86510   0.68766   0.85538   0.00000  Uiso   1.00
C341   C     0.88918   0.71248   0.92054   0.00000  Uiso   1.00
C342   C     0.91951   0.70346   0.88466   0.00000  Uiso   1.00
C343   C     0.81576   0.76813   0.80256   0.00000  Uiso   1.00
C344   C     0.79837   0.86063   0.82331   0.00000  Uiso   1.00
C345   C     0.78717   0.91938   0.74295   0.00000  Uiso   1.00
H346   H     0.84597   0.60644   0.62349   0.00000  Uiso   1.00
H347   H     0.81831   0.42079   0.64777   0.00000  Uiso   1.00
H348   H     0.90604   0.62066   0.64632   0.00000  Uiso   1.00
H349   H     0.81524   0.76878   0.54910   0.00000  Uiso   1.00
H350   H     0.78501   0.22934   0.71771   0.00000  Uiso   1.00
H351   H     0.97000   0.65081   0.71465   0.00000  Uiso   1.00
H352   H     0.77853   0.96316   0.50965   0.00000  Uiso   1.00
H353   H     0.82557   0.71746   0.95501   0.00000  Uiso   1.00
H354   H     0.79679   0.53789   0.99748   0.00000  Uiso   1.00
H355   H     0.88452   0.73776   0.99603   0.00000  Uiso   1.00
H356   H     0.79373   0.88588   0.89882   0.00000  Uiso   1.00
H357   H     0.76755   0.32439   0.00156   0.00000  Uiso   1.00
H358   H     0.95254   0.74587   0.99849   0.00000  Uiso   1.00
H359   H     0.76107   0.05821   0.79349   0.00000  Uiso   1.00
O360   O     0.75773   0.15672   0.88160   0.00000  Uiso   1.00
O361   O     0.00042   0.70970   0.87758   0.00000  Uiso   1.00
O362   O     0.74922   0.11948   0.60862   0.00000  Uiso   1.00
N363   N     0.78485   0.27636   0.77868   0.00000  Uiso   1.00
N364   N     0.95780   0.67040   0.77582   0.00000  Uiso   1.00
N365   N     0.77880   0.96243   0.58416   0.00000  Uiso   1.00
N366   N     0.77545   0.32751   0.93142   0.00000  Uiso   1.00
N367   N     0.94840   0.72154   0.92856   0.00000  Uiso   1.00
N368   N     0.76940   0.01358   0.73690   0.00000  Uiso   1.00
