data_job_03589
_audit_creation_date              2018-12-19
_audit_creation_method            'Materials Studio'
_symmetry_space_group_name_H-M    'P1'
_symmetry_Int_Tables_number       1
_symmetry_cell_setting            triclinic
loop_
_symmetry_equiv_pos_as_xyz
  x,y,z
_cell_length_a                    13.8794
_cell_length_b                    15.2435
_cell_length_c                    22.6489
_cell_angle_alpha                 90.0000
_cell_angle_beta                  135.6013
_cell_angle_gamma                 90.0000
loop_
_atom_site_label
_atom_site_type_symbol
_atom_site_fract_x
_atom_site_fract_y
_atom_site_fract_z
_atom_site_U_iso_or_equiv
_atom_site_adp_type
_atom_site_occupancy
C1     C     0.19572   0.34712   0.25277   0.00000  Uiso   1.00
C2     C     0.13040   0.43583   0.21060   0.00000  Uiso   1.00
C3     C     0.01998   0.47287   0.19211   0.00000  Uiso   1.00
C4     C     0.97537   0.55458   0.15342   0.00000  Uiso   1.00
C5     C     0.86421   0.68576   0.09087   0.00000  Uiso   1.00
C6     C     0.18905   0.29464   0.19259   0.00000  Uiso   1.00
C7     C     0.12796   0.21296   0.15898   0.00000  Uiso   1.00
C8     C     0.13274   0.17582   0.10514   0.00000  Uiso   1.00
C9     C     0.11272   0.08777   0.01468   0.00000  Uiso   1.00
C10    C     0.34798   0.36519   0.33053   0.00000  Uiso   1.00
C11    C     0.42054   0.34282   0.41290   0.00000  Uiso   1.00
C12    C     0.55915   0.36506   0.47519   0.00000  Uiso   1.00
C13    C     0.78591   0.38656   0.59891   0.00000  Uiso   1.00
C14    C     0.31285   0.42637   0.21692   0.00000  Uiso   1.00
C15    C     0.19402   0.47887   0.19113   0.00000  Uiso   1.00
C16    C     0.14957   0.56056   0.15246   0.00000  Uiso   1.00
C17    C     0.03911   0.59771   0.13392   0.00000  Uiso   1.00
C18    C     0.25266   0.33768   0.17312   0.00000  Uiso   1.00
C19    C     0.25755   0.30065   0.11932   0.00000  Uiso   1.00
C20    C     0.19647   0.21895   0.08563   0.00000  Uiso   1.00
C21    C     0.41160   0.40824   0.31106   0.00000  Uiso   1.00
C22    C     0.55013   0.43051   0.37324   0.00000  Uiso   1.00
C23    C     0.62288   0.40818   0.45568   0.00000  Uiso   1.00
H24    H     0.14619   0.31360   0.26792   0.00000  Uiso   1.00
H25    H     0.97076   0.43953   0.20718   0.00000  Uiso   1.00
H26    H     0.07874   0.17966   0.17406   0.00000  Uiso   1.00
H27    H     0.37128   0.30951   0.42794   0.00000  Uiso   1.00
H28    H     0.80430   0.59812   0.13123   0.00000  Uiso   1.00
H29    H     0.03201   0.05017   0.06142   0.00000  Uiso   1.00
H30    H     0.64888   0.32396   0.59677   0.00000  Uiso   1.00
H31    H     0.36239   0.45989   0.20176   0.00000  Uiso   1.00
H32    H     0.19882   0.59385   0.13740   0.00000  Uiso   1.00
H33    H     0.30679   0.33398   0.10427   0.00000  Uiso   1.00
H34    H     0.59933   0.46383   0.35815   0.00000  Uiso   1.00
H35    H     0.98939   0.72337   0.07459   0.00000  Uiso   1.00
H36    H     0.21711   0.17541   0.00477   0.00000  Uiso   1.00
H37    H     0.83397   0.44921   0.54012   0.00000  Uiso   1.00
O38    O     0.78531   0.74622   0.06173   0.00000  Uiso   1.00
O39    O     0.08409   0.02732   0.97016   0.00000  Uiso   1.00
O40    O     0.89340   0.38653   0.67252   0.00000  Uiso   1.00
N41    N     0.87032   0.60922   0.12675   0.00000  Uiso   1.00
N42    N     0.08320   0.09692   0.06147   0.00000  Uiso   1.00
N43    N     0.65993   0.35287   0.56197   0.00000  Uiso   1.00
N44    N     0.96992   0.67662   0.09627   0.00000  Uiso   1.00
N45    N     0.18280   0.16432   0.03099   0.00000  Uiso   1.00
N46    N     0.75953   0.42027   0.53149   0.00000  Uiso   1.00
C47    C     0.80428   0.84712   0.24723   0.00000  Uiso   1.00
C48    C     0.86960   0.93583   0.28940   0.00000  Uiso   1.00
C49    C     0.98002   0.97287   0.30789   0.00000  Uiso   1.00
C50    C     0.02463   0.05458   0.34658   0.00000  Uiso   1.00
C51    C     0.13579   0.18576   0.40913   0.00000  Uiso   1.00
C52    C     0.81095   0.79464   0.30741   0.00000  Uiso   1.00
C53    C     0.87204   0.71296   0.34102   0.00000  Uiso   1.00
C54    C     0.86726   0.67582   0.39486   0.00000  Uiso   1.00
C55    C     0.88728   0.58777   0.48532   0.00000  Uiso   1.00
C56    C     0.65202   0.86519   0.16947   0.00000  Uiso   1.00
C57    C     0.57946   0.84282   0.08710   0.00000  Uiso   1.00
C58    C     0.44085   0.86506   0.02481   0.00000  Uiso   1.00
C59    C     0.21409   0.88656   0.90109   0.00000  Uiso   1.00
C60    C     0.68715   0.92637   0.28308   0.00000  Uiso   1.00
C61    C     0.80598   0.97887   0.30887   0.00000  Uiso   1.00
C62    C     0.85043   0.06056   0.34754   0.00000  Uiso   1.00
C63    C     0.96089   0.09771   0.36608   0.00000  Uiso   1.00
C64    C     0.74734   0.83768   0.32688   0.00000  Uiso   1.00
C65    C     0.74245   0.80065   0.38068   0.00000  Uiso   1.00
C66    C     0.80353   0.71895   0.41437   0.00000  Uiso   1.00
C67    C     0.58840   0.90824   0.18894   0.00000  Uiso   1.00
C68    C     0.44987   0.93051   0.12676   0.00000  Uiso   1.00
C69    C     0.37712   0.90818   0.04432   0.00000  Uiso   1.00
H70    H     0.85381   0.81360   0.23208   0.00000  Uiso   1.00
H71    H     0.02924   0.93953   0.29282   0.00000  Uiso   1.00
H72    H     0.92126   0.67966   0.32594   0.00000  Uiso   1.00
H73    H     0.62872   0.80951   0.07206   0.00000  Uiso   1.00
H74    H     0.19570   0.09812   0.36877   0.00000  Uiso   1.00
H75    H     0.96799   0.55017   0.43858   0.00000  Uiso   1.00
H76    H     0.35112   0.82396   0.90323   0.00000  Uiso   1.00
H77    H     0.63761   0.95989   0.29824   0.00000  Uiso   1.00
H78    H     0.80118   0.09385   0.36260   0.00000  Uiso   1.00
H79    H     0.69321   0.83398   0.39573   0.00000  Uiso   1.00
H80    H     0.40067   0.96383   0.14185   0.00000  Uiso   1.00
H81    H     0.01061   0.22337   0.42541   0.00000  Uiso   1.00
H82    H     0.78289   0.67541   0.49523   0.00000  Uiso   1.00
H83    H     0.16603   0.94921   0.95988   0.00000  Uiso   1.00
O84    O     0.21469   0.24622   0.43827   0.00000  Uiso   1.00
O85    O     0.91591   0.52732   0.52984   0.00000  Uiso   1.00
O86    O     0.10660   0.88653   0.82748   0.00000  Uiso   1.00
N87    N     0.12968   0.10922   0.37325   0.00000  Uiso   1.00
N88    N     0.91680   0.59692   0.43853   0.00000  Uiso   1.00
N89    N     0.34007   0.85287   0.93803   0.00000  Uiso   1.00
N90    N     0.03008   0.17662   0.40373   0.00000  Uiso   1.00
N91    N     0.81720   0.66432   0.46901   0.00000  Uiso   1.00
N92    N     0.24047   0.92027   0.96851   0.00000  Uiso   1.00
C93    C     0.80428   0.65288   0.74723   0.00000  Uiso   1.00
C94    C     0.86960   0.56417   0.78940   0.00000  Uiso   1.00
C95    C     0.98002   0.52713   0.80789   0.00000  Uiso   1.00
C96    C     0.02463   0.44542   0.84658   0.00000  Uiso   1.00
C97    C     0.13579   0.31424   0.90913   0.00000  Uiso   1.00
C98    C     0.81095   0.70536   0.80741   0.00000  Uiso   1.00
C99    C     0.87204   0.78704   0.84102   0.00000  Uiso   1.00
C100   C     0.86726   0.82418   0.89486   0.00000  Uiso   1.00
C101   C     0.88728   0.91223   0.98532   0.00000  Uiso   1.00
C102   C     0.65202   0.63481   0.66947   0.00000  Uiso   1.00
C103   C     0.57946   0.65718   0.58710   0.00000  Uiso   1.00
C104   C     0.44085   0.63494   0.52481   0.00000  Uiso   1.00
C105   C     0.21409   0.61344   0.40109   0.00000  Uiso   1.00
C106   C     0.68715   0.57363   0.78308   0.00000  Uiso   1.00
C107   C     0.80598   0.52113   0.80887   0.00000  Uiso   1.00
C108   C     0.85043   0.43944   0.84754   0.00000  Uiso   1.00
C109   C     0.96089   0.40229   0.86608   0.00000  Uiso   1.00
C110   C     0.74734   0.66232   0.82688   0.00000  Uiso   1.00
C111   C     0.74245   0.69935   0.88068   0.00000  Uiso   1.00
C112   C     0.80353   0.78105   0.91437   0.00000  Uiso   1.00
C113   C     0.58840   0.59176   0.68894   0.00000  Uiso   1.00
C114   C     0.44987   0.56949   0.62676   0.00000  Uiso   1.00
C115   C     0.37712   0.59182   0.54432   0.00000  Uiso   1.00
H116   H     0.85381   0.68640   0.73208   0.00000  Uiso   1.00
H117   H     0.02924   0.56047   0.79282   0.00000  Uiso   1.00
H118   H     0.92126   0.82034   0.82594   0.00000  Uiso   1.00
H119   H     0.62872   0.69049   0.57206   0.00000  Uiso   1.00
H120   H     0.19570   0.40188   0.86877   0.00000  Uiso   1.00
H121   H     0.96799   0.94983   0.93858   0.00000  Uiso   1.00
H122   H     0.35112   0.67604   0.40323   0.00000  Uiso   1.00
H123   H     0.63761   0.54011   0.79824   0.00000  Uiso   1.00
H124   H     0.80118   0.40615   0.86260   0.00000  Uiso   1.00
H125   H     0.69321   0.66602   0.89573   0.00000  Uiso   1.00
H126   H     0.40067   0.53617   0.64185   0.00000  Uiso   1.00
H127   H     0.01061   0.27663   0.92541   0.00000  Uiso   1.00
H128   H     0.78289   0.82459   0.99523   0.00000  Uiso   1.00
H129   H     0.16603   0.55079   0.45988   0.00000  Uiso   1.00
O130   O     0.21469   0.25378   0.93827   0.00000  Uiso   1.00
O131   O     0.91591   0.97268   0.02984   0.00000  Uiso   1.00
O132   O     0.10660   0.61347   0.32748   0.00000  Uiso   1.00
N133   N     0.12968   0.39078   0.87325   0.00000  Uiso   1.00
N134   N     0.91680   0.90308   0.93853   0.00000  Uiso   1.00
N135   N     0.34007   0.64713   0.43803   0.00000  Uiso   1.00
N136   N     0.03008   0.32338   0.90373   0.00000  Uiso   1.00
N137   N     0.81720   0.83568   0.96901   0.00000  Uiso   1.00
N138   N     0.24047   0.57973   0.46851   0.00000  Uiso   1.00
C139   C     0.19572   0.15288   0.75277   0.00000  Uiso   1.00
C140   C     0.13040   0.06417   0.71060   0.00000  Uiso   1.00
C141   C     0.01998   0.02713   0.69211   0.00000  Uiso   1.00
C142   C     0.97537   0.94542   0.65342   0.00000  Uiso   1.00
C143   C     0.86421   0.81424   0.59087   0.00000  Uiso   1.00
C144   C     0.18905   0.20536   0.69259   0.00000  Uiso   1.00
C145   C     0.12796   0.28704   0.65898   0.00000  Uiso   1.00
C146   C     0.13274   0.32418   0.60514   0.00000  Uiso   1.00
C147   C     0.11272   0.41223   0.51468   0.00000  Uiso   1.00
C148   C     0.34798   0.13481   0.83053   0.00000  Uiso   1.00
C149   C     0.42054   0.15718   0.91290   0.00000  Uiso   1.00
C150   C     0.55915   0.13494   0.97519   0.00000  Uiso   1.00
C151   C     0.78591   0.11344   0.09891   0.00000  Uiso   1.00
C152   C     0.31285   0.07363   0.71692   0.00000  Uiso   1.00
C153   C     0.19402   0.02113   0.69113   0.00000  Uiso   1.00
C154   C     0.14957   0.93944   0.65246   0.00000  Uiso   1.00
C155   C     0.03911   0.90229   0.63392   0.00000  Uiso   1.00
C156   C     0.25266   0.16232   0.67312   0.00000  Uiso   1.00
C157   C     0.25755   0.19935   0.61932   0.00000  Uiso   1.00
C158   C     0.19647   0.28105   0.58563   0.00000  Uiso   1.00
C159   C     0.41160   0.09176   0.81106   0.00000  Uiso   1.00
C160   C     0.55013   0.06949   0.87324   0.00000  Uiso   1.00
C161   C     0.62288   0.09182   0.95568   0.00000  Uiso   1.00
H162   H     0.14619   0.18640   0.76792   0.00000  Uiso   1.00
H163   H     0.97076   0.06047   0.70718   0.00000  Uiso   1.00
H164   H     0.07874   0.32034   0.67406   0.00000  Uiso   1.00
H165   H     0.37128   0.19049   0.92794   0.00000  Uiso   1.00
H166   H     0.80430   0.90188   0.63123   0.00000  Uiso   1.00
H167   H     0.03201   0.44983   0.56142   0.00000  Uiso   1.00
H168   H     0.64888   0.17604   0.09677   0.00000  Uiso   1.00
H169   H     0.36239   0.04011   0.70176   0.00000  Uiso   1.00
H170   H     0.19882   0.90615   0.63740   0.00000  Uiso   1.00
H171   H     0.30679   0.16602   0.60427   0.00000  Uiso   1.00
H172   H     0.59933   0.03617   0.85815   0.00000  Uiso   1.00
H173   H     0.98939   0.77663   0.57459   0.00000  Uiso   1.00
H174   H     0.21711   0.32459   0.50477   0.00000  Uiso   1.00
H175   H     0.83397   0.05079   0.04012   0.00000  Uiso   1.00
O176   O     0.78531   0.75378   0.56173   0.00000  Uiso   1.00
O177   O     0.08409   0.47268   0.47016   0.00000  Uiso   1.00
O178   O     0.89340   0.11347   0.17252   0.00000  Uiso   1.00
N179   N     0.87032   0.89078   0.62675   0.00000  Uiso   1.00
N180   N     0.08320   0.40308   0.56147   0.00000  Uiso   1.00
N181   N     0.65993   0.14713   0.06197   0.00000  Uiso   1.00
N182   N     0.96992   0.82338   0.59627   0.00000  Uiso   1.00
N183   N     0.18280   0.33568   0.53099   0.00000  Uiso   1.00
N184   N     0.75953   0.07973   0.03149   0.00000  Uiso   1.00
