data_job_02763
_audit_creation_date              2018-12-19
_audit_creation_method            'Materials Studio'
_symmetry_space_group_name_H-M    'P1'
_symmetry_Int_Tables_number       1
_symmetry_cell_setting            triclinic
loop_
_symmetry_equiv_pos_as_xyz
  x,y,z
_cell_length_a                    12.2874
_cell_length_b                    12.2874
_cell_length_c                    27.4581
_cell_angle_alpha                 90.0000
_cell_angle_beta                  90.0000
_cell_angle_gamma                 120.0000
loop_
_atom_site_label
_atom_site_type_symbol
_atom_site_fract_x
_atom_site_fract_y
_atom_site_fract_z
_atom_site_U_iso_or_equiv
_atom_site_adp_type
_atom_site_occupancy
C1     C     0.45865   0.06176   0.50500   0.00000  Uiso   1.00
C2     C     0.32992   0.00552   0.52913   0.00000  Uiso   1.00
C3     C     0.30381   0.97022   0.57764   0.00000  Uiso   1.00
C4     C     0.18004   0.92059   0.59266   0.00000  Uiso   1.00
C5     C     0.99447   0.83529   0.63505   0.00000  Uiso   1.00
C6     C     0.44268   0.97607   0.46214   0.00000  Uiso   1.00
C7     C     0.51139   0.91602   0.45432   0.00000  Uiso   1.00
C8     C     0.48255   0.84162   0.41295   0.00000  Uiso   1.00
C9     C     0.47211   0.71068   0.35132   0.00000  Uiso   1.00
C10    C     0.48452   0.18632   0.48289   0.00000  Uiso   1.00
C11    C     0.58843   0.30306   0.49251   0.00000  Uiso   1.00
C12    C     0.59483   0.40568   0.46860   0.00000  Uiso   1.00
C13    C     0.64936   0.60118   0.43919   0.00000  Uiso   1.00
C14    C     0.28527   0.03641   0.44542   0.00000  Uiso   1.00
C15    C     0.23575   0.99174   0.49677   0.00000  Uiso   1.00
C16    C     0.11198   0.94217   0.51173   0.00000  Uiso   1.00
C17    C     0.08570   0.90680   0.56025   0.00000  Uiso   1.00
C18    C     0.34851   0.96229   0.42978   0.00000  Uiso   1.00
C19    C     0.31957   0.88797   0.38841   0.00000  Uiso   1.00
C20    C     0.38821   0.82783   0.38053   0.00000  Uiso   1.00
C21    C     0.39035   0.17255   0.45053   0.00000  Uiso   1.00
C22    C     0.39660   0.27501   0.42660   0.00000  Uiso   1.00
C23    C     0.50049   0.39188   0.43618   0.00000  Uiso   1.00
H24    H     0.53196   0.07248   0.53018   0.00000  Uiso   1.00
H25    H     0.37671   0.98088   0.60267   0.00000  Uiso   1.00
H26    H     0.58427   0.92671   0.47936   0.00000  Uiso   1.00
H27    H     0.66129   0.31368   0.51755   0.00000  Uiso   1.00
H28    H     0.16305   0.87320   0.66875   0.00000  Uiso   1.00
H29    H     0.60072   0.75901   0.40876   0.00000  Uiso   1.00
H30    H     0.76313   0.57503   0.48928   0.00000  Uiso   1.00
H31    H     0.21195   0.02569   0.42023   0.00000  Uiso   1.00
H32    H     0.03913   0.93152   0.48668   0.00000  Uiso   1.00
H33    H     0.24669   0.87735   0.36338   0.00000  Uiso   1.00
H34    H     0.32371   0.26432   0.40156   0.00000  Uiso   1.00
H35    H     0.88905   0.83314   0.57461   0.00000  Uiso   1.00
H36    H     0.32673   0.71895   0.31461   0.00000  Uiso   1.00
H37    H     0.48914   0.53496   0.39514   0.00000  Uiso   1.00
O38    O     0.91813   0.79203   0.66737   0.00000  Uiso   1.00
O39    O     0.49236   0.64224   0.32627   0.00000  Uiso   1.00
O40    O     0.70544   0.71282   0.43191   0.00000  Uiso   1.00
N41    N     0.12228   0.87672   0.63748   0.00000  Uiso   1.00
N42    N     0.53147   0.76994   0.39440   0.00000  Uiso   1.00
N43    N     0.68333   0.53284   0.46967   0.00000  Uiso   1.00
N44    N     0.97485   0.85516   0.58682   0.00000  Uiso   1.00
N45    N     0.38404   0.74839   0.34375   0.00000  Uiso   1.00
N46    N     0.53589   0.51128   0.41902   0.00000  Uiso   1.00
C47    C     0.93824   0.39688   0.17166   0.00000  Uiso   1.00
C48    C     0.99448   0.32440   0.19580   0.00000  Uiso   1.00
C49    C     0.02978   0.33359   0.24430   0.00000  Uiso   1.00
C50    C     0.07941   0.25945   0.25933   0.00000  Uiso   1.00
C51    C     0.16471   0.15918   0.30172   0.00000  Uiso   1.00
C52    C     0.02393   0.46661   0.12881   0.00000  Uiso   1.00
C53    C     0.08398   0.59537   0.12099   0.00000  Uiso   1.00
C54    C     0.15838   0.64093   0.07962   0.00000  Uiso   1.00
C55    C     0.28932   0.76144   0.01798   0.00000  Uiso   1.00
C56    C     0.81368   0.29820   0.14956   0.00000  Uiso   1.00
C57    C     0.69694   0.28537   0.15918   0.00000  Uiso   1.00
C58    C     0.59432   0.18915   0.13527   0.00000  Uiso   1.00
C59    C     0.39882   0.04818   0.10586   0.00000  Uiso   1.00
C60    C     0.96359   0.24886   0.11209   0.00000  Uiso   1.00
C61    C     0.00826   0.24400   0.16344   0.00000  Uiso   1.00
C62    C     0.05783   0.16982   0.17839   0.00000  Uiso   1.00
C63    C     0.09320   0.17889   0.22691   0.00000  Uiso   1.00
C64    C     0.03771   0.38622   0.09645   0.00000  Uiso   1.00
C65    C     0.11203   0.43159   0.05508   0.00000  Uiso   1.00
C66    C     0.17217   0.56038   0.04720   0.00000  Uiso   1.00
C67    C     0.82745   0.21779   0.11720   0.00000  Uiso   1.00
C68    C     0.72499   0.12159   0.09327   0.00000  Uiso   1.00
C69    C     0.60812   0.10861   0.10285   0.00000  Uiso   1.00
H70    H     0.92752   0.45949   0.19685   0.00000  Uiso   1.00
H71    H     0.01912   0.39584   0.26933   0.00000  Uiso   1.00
H72    H     0.07329   0.65756   0.14603   0.00000  Uiso   1.00
H73    H     0.68632   0.34761   0.18422   0.00000  Uiso   1.00
H74    H     0.12680   0.28985   0.33542   0.00000  Uiso   1.00
H75    H     0.24099   0.84171   0.07542   0.00000  Uiso   1.00
H76    H     0.42497   0.18811   0.15595   0.00000  Uiso   1.00
H77    H     0.97431   0.18626   0.08690   0.00000  Uiso   1.00
H78    H     0.06848   0.10761   0.15334   0.00000  Uiso   1.00
H79    H     0.12265   0.36934   0.03004   0.00000  Uiso   1.00
H80    H     0.73568   0.05939   0.06823   0.00000  Uiso   1.00
H81    H     0.16686   0.05591   0.24128   0.00000  Uiso   1.00
H82    H     0.28105   0.60778   0.98128   0.00000  Uiso   1.00
H83    H     0.46504   0.95418   0.06180   0.00000  Uiso   1.00
O84    O     0.20797   0.12610   0.33404   0.00000  Uiso   1.00
O85    O     0.35776   0.85012   0.99293   0.00000  Uiso   1.00
O86    O     0.28718   0.99261   0.09858   0.00000  Uiso   1.00
N87    N     0.12328   0.24556   0.30414   0.00000  Uiso   1.00
N88    N     0.23006   0.76153   0.06107   0.00000  Uiso   1.00
N89    N     0.46716   0.15049   0.13634   0.00000  Uiso   1.00
N90    N     0.14484   0.11969   0.25349   0.00000  Uiso   1.00
N91    N     0.25161   0.63565   0.01041   0.00000  Uiso   1.00
N92    N     0.48872   0.02461   0.08569   0.00000  Uiso   1.00
C93    C     0.60312   0.54135   0.83833   0.00000  Uiso   1.00
C94    C     0.67560   0.67008   0.86246   0.00000  Uiso   1.00
C95    C     0.66641   0.69619   0.91097   0.00000  Uiso   1.00
C96    C     0.74055   0.81996   0.92600   0.00000  Uiso   1.00
C97    C     0.84082   0.00553   0.96839   0.00000  Uiso   1.00
C98    C     0.53339   0.55732   0.79547   0.00000  Uiso   1.00
C99    C     0.40463   0.48861   0.78765   0.00000  Uiso   1.00
C100   C     0.35907   0.51745   0.74628   0.00000  Uiso   1.00
C101   C     0.23856   0.52789   0.68465   0.00000  Uiso   1.00
C102   C     0.70180   0.51548   0.81622   0.00000  Uiso   1.00
C103   C     0.71463   0.41157   0.82584   0.00000  Uiso   1.00
C104   C     0.81085   0.40517   0.80193   0.00000  Uiso   1.00
C105   C     0.95182   0.35064   0.77252   0.00000  Uiso   1.00
C106   C     0.75114   0.71473   0.77876   0.00000  Uiso   1.00
C107   C     0.75600   0.76425   0.83010   0.00000  Uiso   1.00
C108   C     0.83018   0.88802   0.84506   0.00000  Uiso   1.00
C109   C     0.82111   0.91430   0.89358   0.00000  Uiso   1.00
C110   C     0.61378   0.65149   0.76312   0.00000  Uiso   1.00
C111   C     0.56841   0.68043   0.72174   0.00000  Uiso   1.00
C112   C     0.43962   0.61179   0.71387   0.00000  Uiso   1.00
C113   C     0.78221   0.60965   0.78387   0.00000  Uiso   1.00
C114   C     0.87841   0.60340   0.75994   0.00000  Uiso   1.00
C115   C     0.89139   0.49951   0.76952   0.00000  Uiso   1.00
H116   H     0.54051   0.46804   0.86352   0.00000  Uiso   1.00
H117   H     0.60416   0.62329   0.93600   0.00000  Uiso   1.00
H118   H     0.34244   0.41573   0.81270   0.00000  Uiso   1.00
H119   H     0.65239   0.33871   0.85089   0.00000  Uiso   1.00
H120   H     0.71015   0.83695   0.00208   0.00000  Uiso   1.00
H121   H     0.15829   0.39928   0.74209   0.00000  Uiso   1.00
H122   H     0.81189   0.23687   0.82261   0.00000  Uiso   1.00
H123   H     0.81374   0.78805   0.75356   0.00000  Uiso   1.00
H124   H     0.89239   0.96087   0.82001   0.00000  Uiso   1.00
H125   H     0.63066   0.75331   0.69671   0.00000  Uiso   1.00
H126   H     0.94061   0.67629   0.73490   0.00000  Uiso   1.00
H127   H     0.94409   0.11095   0.90794   0.00000  Uiso   1.00
H128   H     0.39222   0.67327   0.64795   0.00000  Uiso   1.00
H129   H     0.04582   0.51086   0.72847   0.00000  Uiso   1.00
O130   O     0.87390   0.08187   0.00070   0.00000  Uiso   1.00
O131   O     0.14988   0.50764   0.65960   0.00000  Uiso   1.00
O132   O     0.00739   0.29456   0.76525   0.00000  Uiso   1.00
N133   N     0.75444   0.87772   0.97081   0.00000  Uiso   1.00
N134   N     0.23847   0.46853   0.72774   0.00000  Uiso   1.00
N135   N     0.84951   0.31667   0.80301   0.00000  Uiso   1.00
N136   N     0.88031   0.02515   0.92015   0.00000  Uiso   1.00
N137   N     0.36435   0.61596   0.67708   0.00000  Uiso   1.00
N138   N     0.97539   0.46411   0.75235   0.00000  Uiso   1.00
C139   C     0.06176   0.45865   0.49500   0.00000  Uiso   1.00
C140   C     0.00552   0.32992   0.47087   0.00000  Uiso   1.00
C141   C     0.97022   0.30381   0.42236   0.00000  Uiso   1.00
C142   C     0.92059   0.18004   0.40734   0.00000  Uiso   1.00
C143   C     0.83529   0.99447   0.36495   0.00000  Uiso   1.00
C144   C     0.97607   0.44268   0.53786   0.00000  Uiso   1.00
C145   C     0.91602   0.51139   0.54568   0.00000  Uiso   1.00
C146   C     0.84162   0.48255   0.58705   0.00000  Uiso   1.00
C147   C     0.71068   0.47211   0.64868   0.00000  Uiso   1.00
C148   C     0.18632   0.48452   0.51711   0.00000  Uiso   1.00
C149   C     0.30306   0.58843   0.50749   0.00000  Uiso   1.00
C150   C     0.40568   0.59483   0.53140   0.00000  Uiso   1.00
C151   C     0.60118   0.64936   0.56081   0.00000  Uiso   1.00
C152   C     0.03641   0.28527   0.55458   0.00000  Uiso   1.00
C153   C     0.99174   0.23575   0.50323   0.00000  Uiso   1.00
C154   C     0.94217   0.11198   0.48827   0.00000  Uiso   1.00
C155   C     0.90680   0.08570   0.43975   0.00000  Uiso   1.00
C156   C     0.96229   0.34851   0.57022   0.00000  Uiso   1.00
C157   C     0.88797   0.31957   0.61159   0.00000  Uiso   1.00
C158   C     0.82783   0.38821   0.61947   0.00000  Uiso   1.00
C159   C     0.17255   0.39035   0.54947   0.00000  Uiso   1.00
C160   C     0.27501   0.39660   0.57340   0.00000  Uiso   1.00
C161   C     0.39188   0.50049   0.56382   0.00000  Uiso   1.00
H162   H     0.07248   0.53196   0.46982   0.00000  Uiso   1.00
H163   H     0.98088   0.37671   0.39733   0.00000  Uiso   1.00
H164   H     0.92671   0.58427   0.52064   0.00000  Uiso   1.00
H165   H     0.31368   0.66129   0.48245   0.00000  Uiso   1.00
H166   H     0.87320   0.16305   0.33125   0.00000  Uiso   1.00
H167   H     0.75901   0.60072   0.59124   0.00000  Uiso   1.00
H168   H     0.57503   0.76313   0.51072   0.00000  Uiso   1.00
H169   H     0.02569   0.21195   0.57977   0.00000  Uiso   1.00
H170   H     0.93152   0.03913   0.51332   0.00000  Uiso   1.00
H171   H     0.87735   0.24669   0.63662   0.00000  Uiso   1.00
H172   H     0.26432   0.32371   0.59844   0.00000  Uiso   1.00
H173   H     0.83314   0.88905   0.42539   0.00000  Uiso   1.00
H174   H     0.71895   0.32673   0.68539   0.00000  Uiso   1.00
H175   H     0.53496   0.48914   0.60486   0.00000  Uiso   1.00
O176   O     0.79203   0.91813   0.33263   0.00000  Uiso   1.00
O177   O     0.64224   0.49236   0.67373   0.00000  Uiso   1.00
O178   O     0.71282   0.70544   0.56809   0.00000  Uiso   1.00
N179   N     0.87672   0.12228   0.36252   0.00000  Uiso   1.00
N180   N     0.76994   0.53147   0.60560   0.00000  Uiso   1.00
N181   N     0.53284   0.68333   0.53033   0.00000  Uiso   1.00
N182   N     0.85516   0.97485   0.41318   0.00000  Uiso   1.00
N183   N     0.74839   0.38404   0.65625   0.00000  Uiso   1.00
N184   N     0.51128   0.53589   0.58098   0.00000  Uiso   1.00
C185   C     0.39688   0.93824   0.82834   0.00000  Uiso   1.00
C186   C     0.32440   0.99448   0.80420   0.00000  Uiso   1.00
C187   C     0.33359   0.02978   0.75570   0.00000  Uiso   1.00
C188   C     0.25945   0.07941   0.74067   0.00000  Uiso   1.00
C189   C     0.15918   0.16471   0.69828   0.00000  Uiso   1.00
C190   C     0.46661   0.02393   0.87119   0.00000  Uiso   1.00
C191   C     0.59537   0.08398   0.87901   0.00000  Uiso   1.00
C192   C     0.64093   0.15838   0.92038   0.00000  Uiso   1.00
C193   C     0.76144   0.28932   0.98202   0.00000  Uiso   1.00
C194   C     0.29820   0.81368   0.85044   0.00000  Uiso   1.00
C195   C     0.28537   0.69694   0.84082   0.00000  Uiso   1.00
C196   C     0.18915   0.59432   0.86473   0.00000  Uiso   1.00
C197   C     0.04818   0.39882   0.89414   0.00000  Uiso   1.00
C198   C     0.24886   0.96359   0.88791   0.00000  Uiso   1.00
C199   C     0.24400   0.00826   0.83656   0.00000  Uiso   1.00
C200   C     0.16982   0.05783   0.82161   0.00000  Uiso   1.00
C201   C     0.17889   0.09320   0.77309   0.00000  Uiso   1.00
C202   C     0.38622   0.03771   0.90355   0.00000  Uiso   1.00
C203   C     0.43159   0.11203   0.94492   0.00000  Uiso   1.00
C204   C     0.56038   0.17217   0.95280   0.00000  Uiso   1.00
C205   C     0.21779   0.82745   0.88280   0.00000  Uiso   1.00
C206   C     0.12159   0.72499   0.90673   0.00000  Uiso   1.00
C207   C     0.10861   0.60812   0.89715   0.00000  Uiso   1.00
H208   H     0.45949   0.92752   0.80315   0.00000  Uiso   1.00
H209   H     0.39584   0.01912   0.73067   0.00000  Uiso   1.00
H210   H     0.65756   0.07329   0.85397   0.00000  Uiso   1.00
H211   H     0.34761   0.68632   0.81578   0.00000  Uiso   1.00
H212   H     0.28985   0.12680   0.66458   0.00000  Uiso   1.00
H213   H     0.84171   0.24099   0.92458   0.00000  Uiso   1.00
H214   H     0.18811   0.42497   0.84405   0.00000  Uiso   1.00
H215   H     0.18626   0.97431   0.91310   0.00000  Uiso   1.00
H216   H     0.10761   0.06848   0.84666   0.00000  Uiso   1.00
H217   H     0.36934   0.12265   0.96996   0.00000  Uiso   1.00
H218   H     0.05939   0.73568   0.93177   0.00000  Uiso   1.00
H219   H     0.05591   0.16686   0.75872   0.00000  Uiso   1.00
H220   H     0.60778   0.28105   0.01872   0.00000  Uiso   1.00
H221   H     0.95418   0.46504   0.93820   0.00000  Uiso   1.00
O222   O     0.12610   0.20797   0.66596   0.00000  Uiso   1.00
O223   O     0.85012   0.35776   0.00707   0.00000  Uiso   1.00
O224   O     0.99261   0.28718   0.90142   0.00000  Uiso   1.00
N225   N     0.24556   0.12328   0.69586   0.00000  Uiso   1.00
N226   N     0.76153   0.23006   0.93893   0.00000  Uiso   1.00
N227   N     0.15049   0.46716   0.86366   0.00000  Uiso   1.00
N228   N     0.11969   0.14484   0.74651   0.00000  Uiso   1.00
N229   N     0.63565   0.25161   0.98959   0.00000  Uiso   1.00
N230   N     0.02461   0.48872   0.91431   0.00000  Uiso   1.00
C231   C     0.54135   0.60312   0.16167   0.00000  Uiso   1.00
C232   C     0.67008   0.67560   0.13754   0.00000  Uiso   1.00
C233   C     0.69619   0.66641   0.08903   0.00000  Uiso   1.00
C234   C     0.81996   0.74055   0.07400   0.00000  Uiso   1.00
C235   C     0.00553   0.84082   0.03161   0.00000  Uiso   1.00
C236   C     0.55732   0.53339   0.20453   0.00000  Uiso   1.00
C237   C     0.48861   0.40463   0.21235   0.00000  Uiso   1.00
C238   C     0.51745   0.35907   0.25372   0.00000  Uiso   1.00
C239   C     0.52789   0.23856   0.31535   0.00000  Uiso   1.00
C240   C     0.51548   0.70180   0.18378   0.00000  Uiso   1.00
C241   C     0.41157   0.71463   0.17416   0.00000  Uiso   1.00
C242   C     0.40517   0.81085   0.19807   0.00000  Uiso   1.00
C243   C     0.35064   0.95182   0.22748   0.00000  Uiso   1.00
C244   C     0.71473   0.75114   0.22124   0.00000  Uiso   1.00
C245   C     0.76425   0.75600   0.16990   0.00000  Uiso   1.00
C246   C     0.88802   0.83018   0.15494   0.00000  Uiso   1.00
C247   C     0.91430   0.82111   0.10642   0.00000  Uiso   1.00
C248   C     0.65149   0.61378   0.23688   0.00000  Uiso   1.00
C249   C     0.68043   0.56841   0.27826   0.00000  Uiso   1.00
C250   C     0.61179   0.43962   0.28613   0.00000  Uiso   1.00
C251   C     0.60965   0.78221   0.21613   0.00000  Uiso   1.00
C252   C     0.60340   0.87841   0.24006   0.00000  Uiso   1.00
C253   C     0.49951   0.89139   0.23048   0.00000  Uiso   1.00
H254   H     0.46804   0.54051   0.13648   0.00000  Uiso   1.00
H255   H     0.62329   0.60416   0.06400   0.00000  Uiso   1.00
H256   H     0.41573   0.34244   0.18730   0.00000  Uiso   1.00
H257   H     0.33871   0.65239   0.14911   0.00000  Uiso   1.00
H258   H     0.83695   0.71015   0.99792   0.00000  Uiso   1.00
H259   H     0.39928   0.15829   0.25791   0.00000  Uiso   1.00
H260   H     0.23687   0.81189   0.17739   0.00000  Uiso   1.00
H261   H     0.78805   0.81374   0.24644   0.00000  Uiso   1.00
H262   H     0.96087   0.89239   0.17999   0.00000  Uiso   1.00
H263   H     0.75331   0.63066   0.30329   0.00000  Uiso   1.00
H264   H     0.67629   0.94061   0.26510   0.00000  Uiso   1.00
H265   H     0.11095   0.94409   0.09206   0.00000  Uiso   1.00
H266   H     0.67327   0.39222   0.35205   0.00000  Uiso   1.00
H267   H     0.51086   0.04582   0.27153   0.00000  Uiso   1.00
O268   O     0.08187   0.87390   0.99930   0.00000  Uiso   1.00
O269   O     0.50764   0.14988   0.34040   0.00000  Uiso   1.00
O270   O     0.29456   0.00739   0.23475   0.00000  Uiso   1.00
N271   N     0.87772   0.75444   0.02919   0.00000  Uiso   1.00
N272   N     0.46853   0.23847   0.27226   0.00000  Uiso   1.00
N273   N     0.31667   0.84951   0.19699   0.00000  Uiso   1.00
N274   N     0.02515   0.88031   0.07985   0.00000  Uiso   1.00
N275   N     0.61596   0.36435   0.32292   0.00000  Uiso   1.00
N276   N     0.46411   0.97539   0.24765   0.00000  Uiso   1.00
