data_job_03243
_audit_creation_date              2018-12-19
_audit_creation_method            'Materials Studio'
_symmetry_space_group_name_H-M    'P1'
_symmetry_Int_Tables_number       1
_symmetry_cell_setting            triclinic
loop_
_symmetry_equiv_pos_as_xyz
  x,y,z
_cell_length_a                    26.8817
_cell_length_b                    16.2718
_cell_length_c                    10.6754
_cell_angle_alpha                 90.0000
_cell_angle_beta                  90.0000
_cell_angle_gamma                 90.0000
loop_
_atom_site_label
_atom_site_type_symbol
_atom_site_fract_x
_atom_site_fract_y
_atom_site_fract_z
_atom_site_U_iso_or_equiv
_atom_site_adp_type
_atom_site_occupancy
C1     C     0.58339   0.95308   0.08921   0.00000  Uiso   1.00
C2     C     0.62373   0.00364   0.02480   0.00000  Uiso   1.00
C3     C     0.61719   0.08029   0.97024   0.00000  Uiso   1.00
C4     C     0.65874   0.11644   0.91607   0.00000  Uiso   1.00
C5     C     0.71431   0.20088   0.81593   0.00000  Uiso   1.00
C6     C     0.58250   0.87032   0.02224   0.00000  Uiso   1.00
C7     C     0.54129   0.83487   0.96554   0.00000  Uiso   1.00
C8     C     0.54812   0.75879   0.90923   0.00000  Uiso   1.00
C9     C     0.53967   0.63622   0.80520   0.00000  Uiso   1.00
C10    C     0.60247   0.93587   0.22115   0.00000  Uiso   1.00
C11    C     0.57805   0.95553   0.33170   0.00000  Uiso   1.00
C12    C     0.60170   0.93463   0.44285   0.00000  Uiso   1.00
C13    C     0.62426   0.91385   0.64765   0.00000  Uiso   1.00
C14    C     0.66880   0.88098   0.09004   0.00000  Uiso   1.00
C15    C     0.67012   0.96447   0.02525   0.00000  Uiso   1.00
C16    C     0.71169   0.00052   0.97115   0.00000  Uiso   1.00
C17    C     0.70521   0.07721   0.91652   0.00000  Uiso   1.00
C18    C     0.62889   0.83115   0.02269   0.00000  Uiso   1.00
C19    C     0.63578   0.75510   0.96645   0.00000  Uiso   1.00
C20    C     0.59460   0.71955   0.90968   0.00000  Uiso   1.00
C21    C     0.64886   0.89671   0.22160   0.00000  Uiso   1.00
C22    C     0.67255   0.87576   0.33260   0.00000  Uiso   1.00
C23    C     0.64817   0.89539   0.44330   0.00000  Uiso   1.00
H24    H     0.54728   0.98357   0.08886   0.00000  Uiso   1.00
H25    H     0.58129   0.11057   0.96990   0.00000  Uiso   1.00
H26    H     0.50540   0.86519   0.96522   0.00000  Uiso   1.00
H27    H     0.54216   0.98584   0.33131   0.00000  Uiso   1.00
H28    H     0.63945   0.23410   0.83817   0.00000  Uiso   1.00
H29    H     0.47942   0.71669   0.82834   0.00000  Uiso   1.00
H30    H     0.55694   0.97109   0.60032   0.00000  Uiso   1.00
H31    H     0.70492   0.85048   0.09038   0.00000  Uiso   1.00
H32    H     0.74758   0.97019   0.97151   0.00000  Uiso   1.00
H33    H     0.67169   0.72481   0.96682   0.00000  Uiso   1.00
H34    H     0.70845   0.84546   0.33292   0.00000  Uiso   1.00
H35    H     0.77441   0.12016   0.83947   0.00000  Uiso   1.00
H36    H     0.61439   0.60274   0.82964   0.00000  Uiso   1.00
H37    H     0.69191   0.85715   0.60162   0.00000  Uiso   1.00
O38    O     0.73215   0.25827   0.76055   0.00000  Uiso   1.00
O39    O     0.52220   0.57944   0.74768   0.00000  Uiso   1.00
O40    O     0.62390   0.91322   0.76049   0.00000  Uiso   1.00
N41    N     0.66536   0.19087   0.85481   0.00000  Uiso   1.00
N42    N     0.51575   0.70712   0.84560   0.00000  Uiso   1.00
N43    N     0.58821   0.94495   0.56734   0.00000  Uiso   1.00
N44    N     0.73798   0.12956   0.85551   0.00000  Uiso   1.00
N45    N     0.58837   0.64581   0.84630   0.00000  Uiso   1.00
N46    N     0.66084   0.88364   0.56804   0.00000  Uiso   1.00
C47    C     0.41709   0.54662   0.26058   0.00000  Uiso   1.00
C48    C     0.37655   0.49655   0.32508   0.00000  Uiso   1.00
C49    C     0.38274   0.41976   0.37943   0.00000  Uiso   1.00
C50    C     0.34107   0.38412   0.43374   0.00000  Uiso   1.00
C51    C     0.28515   0.30034   0.53397   0.00000  Uiso   1.00
C52    C     0.41845   0.62930   0.32774   0.00000  Uiso   1.00
C53    C     0.45988   0.66412   0.38430   0.00000  Uiso   1.00
C54    C     0.45348   0.74024   0.44082   0.00000  Uiso   1.00
C55    C     0.46262   0.86258   0.54509   0.00000  Uiso   1.00
C56    C     0.39798   0.56422   0.12879   0.00000  Uiso   1.00
C57    C     0.42221   0.54434   0.01806   0.00000  Uiso   1.00
C58    C     0.39858   0.56568   0.90708   0.00000  Uiso   1.00
C59    C     0.37596   0.58697   0.70244   0.00000  Uiso   1.00
C60    C     0.33204   0.61989   0.26037   0.00000  Uiso   1.00
C61    C     0.33036   0.53635   0.32497   0.00000  Uiso   1.00
C62    C     0.28866   0.50082   0.37920   0.00000  Uiso   1.00
C63    C     0.29479   0.42399   0.43362   0.00000  Uiso   1.00
C64    C     0.37226   0.66910   0.32762   0.00000  Uiso   1.00
C65    C     0.36579   0.74519   0.38407   0.00000  Uiso   1.00
C66    C     0.40720   0.78011   0.44071   0.00000  Uiso   1.00
C67    C     0.35179   0.60401   0.12867   0.00000  Uiso   1.00
C68    C     0.32812   0.62540   0.01783   0.00000  Uiso   1.00
C69    C     0.35231   0.60555   0.90696   0.00000  Uiso   1.00
H70    H     0.45305   0.51564   0.26067   0.00000  Uiso   1.00
H71    H     0.41850   0.38898   0.37952   0.00000  Uiso   1.00
H72    H     0.49562   0.63331   0.38437   0.00000  Uiso   1.00
H73    H     0.45796   0.51354   0.01819   0.00000  Uiso   1.00
H74    H     0.35983   0.26612   0.51126   0.00000  Uiso   1.00
H75    H     0.52245   0.78132   0.52146   0.00000  Uiso   1.00
H76    H     0.44303   0.52876   0.74929   0.00000  Uiso   1.00
H77    H     0.29608   0.65088   0.26028   0.00000  Uiso   1.00
H78    H     0.25291   0.53163   0.37910   0.00000  Uiso   1.00
H79    H     0.33004   0.77597   0.38395   0.00000  Uiso   1.00
H80    H     0.29238   0.65619   0.01777   0.00000  Uiso   1.00
H81    H     0.22543   0.38191   0.51093   0.00000  Uiso   1.00
H82    H     0.38806   0.89711   0.52112   0.00000  Uiso   1.00
H83    H     0.30864   0.64454   0.74896   0.00000  Uiso   1.00
O84    O     0.26707   0.24315   0.58930   0.00000  Uiso   1.00
O85    O     0.48043   0.91907   0.60265   0.00000  Uiso   1.00
O86    O     0.37624   0.58771   0.58960   0.00000  Uiso   1.00
N87    N     0.33412   0.30973   0.49486   0.00000  Uiso   1.00
N88    N     0.48616   0.79140   0.50440   0.00000  Uiso   1.00
N89    N     0.41192   0.55530   0.78250   0.00000  Uiso   1.00
N90    N     0.26180   0.37203   0.49467   0.00000  Uiso   1.00
N91    N     0.41385   0.85370   0.50422   0.00000  Uiso   1.00
N92    N     0.33960   0.61760   0.78232   0.00000  Uiso   1.00
C93    C     0.41661   0.04692   0.08921   0.00000  Uiso   1.00
C94    C     0.37627   0.99636   0.02480   0.00000  Uiso   1.00
C95    C     0.38281   0.91971   0.97024   0.00000  Uiso   1.00
C96    C     0.34126   0.88356   0.91607   0.00000  Uiso   1.00
C97    C     0.28569   0.79912   0.81593   0.00000  Uiso   1.00
C98    C     0.41750   0.12968   0.02224   0.00000  Uiso   1.00
C99    C     0.45871   0.16513   0.96554   0.00000  Uiso   1.00
C100   C     0.45188   0.24121   0.90923   0.00000  Uiso   1.00
C101   C     0.46033   0.36378   0.80520   0.00000  Uiso   1.00
C102   C     0.39753   0.06413   0.22115   0.00000  Uiso   1.00
C103   C     0.42195   0.04447   0.33170   0.00000  Uiso   1.00
C104   C     0.39830   0.06537   0.44285   0.00000  Uiso   1.00
C105   C     0.37574   0.08615   0.64765   0.00000  Uiso   1.00
C106   C     0.33120   0.11902   0.09004   0.00000  Uiso   1.00
C107   C     0.32988   0.03553   0.02525   0.00000  Uiso   1.00
C108   C     0.28831   0.99948   0.97115   0.00000  Uiso   1.00
C109   C     0.29479   0.92279   0.91652   0.00000  Uiso   1.00
C110   C     0.37111   0.16885   0.02269   0.00000  Uiso   1.00
C111   C     0.36422   0.24490   0.96645   0.00000  Uiso   1.00
C112   C     0.40540   0.28045   0.90968   0.00000  Uiso   1.00
C113   C     0.35114   0.10329   0.22160   0.00000  Uiso   1.00
C114   C     0.32745   0.12424   0.33260   0.00000  Uiso   1.00
C115   C     0.35183   0.10461   0.44330   0.00000  Uiso   1.00
H116   H     0.45272   0.01643   0.08886   0.00000  Uiso   1.00
H117   H     0.41871   0.88943   0.96990   0.00000  Uiso   1.00
H118   H     0.49460   0.13481   0.96522   0.00000  Uiso   1.00
H119   H     0.45784   0.01416   0.33131   0.00000  Uiso   1.00
H120   H     0.36055   0.76590   0.83817   0.00000  Uiso   1.00
H121   H     0.52058   0.28331   0.82834   0.00000  Uiso   1.00
H122   H     0.44306   0.02891   0.60032   0.00000  Uiso   1.00
H123   H     0.29508   0.14952   0.09038   0.00000  Uiso   1.00
H124   H     0.25242   0.02981   0.97151   0.00000  Uiso   1.00
H125   H     0.32831   0.27519   0.96682   0.00000  Uiso   1.00
H126   H     0.29155   0.15454   0.33292   0.00000  Uiso   1.00
H127   H     0.22559   0.87984   0.83947   0.00000  Uiso   1.00
H128   H     0.38561   0.39726   0.82964   0.00000  Uiso   1.00
H129   H     0.30809   0.14285   0.60162   0.00000  Uiso   1.00
O130   O     0.26785   0.74173   0.76055   0.00000  Uiso   1.00
O131   O     0.47780   0.42056   0.74768   0.00000  Uiso   1.00
O132   O     0.37610   0.08678   0.76049   0.00000  Uiso   1.00
N133   N     0.33464   0.80913   0.85481   0.00000  Uiso   1.00
N134   N     0.48425   0.29288   0.84560   0.00000  Uiso   1.00
N135   N     0.41179   0.05505   0.56734   0.00000  Uiso   1.00
N136   N     0.26202   0.87044   0.85551   0.00000  Uiso   1.00
N137   N     0.41163   0.35419   0.84630   0.00000  Uiso   1.00
N138   N     0.33916   0.11636   0.56804   0.00000  Uiso   1.00
C139   C     0.58291   0.45338   0.26058   0.00000  Uiso   1.00
C140   C     0.62345   0.50345   0.32508   0.00000  Uiso   1.00
C141   C     0.61726   0.58024   0.37943   0.00000  Uiso   1.00
C142   C     0.65893   0.61588   0.43374   0.00000  Uiso   1.00
C143   C     0.71485   0.69966   0.53397   0.00000  Uiso   1.00
C144   C     0.58155   0.37070   0.32774   0.00000  Uiso   1.00
C145   C     0.54012   0.33588   0.38430   0.00000  Uiso   1.00
C146   C     0.54652   0.25976   0.44082   0.00000  Uiso   1.00
C147   C     0.53738   0.13742   0.54509   0.00000  Uiso   1.00
C148   C     0.60202   0.43578   0.12879   0.00000  Uiso   1.00
C149   C     0.57779   0.45566   0.01806   0.00000  Uiso   1.00
C150   C     0.60142   0.43432   0.90708   0.00000  Uiso   1.00
C151   C     0.62404   0.41303   0.70244   0.00000  Uiso   1.00
C152   C     0.66796   0.38011   0.26037   0.00000  Uiso   1.00
C153   C     0.66964   0.46365   0.32497   0.00000  Uiso   1.00
C154   C     0.71134   0.49918   0.37920   0.00000  Uiso   1.00
C155   C     0.70521   0.57601   0.43362   0.00000  Uiso   1.00
C156   C     0.62774   0.33090   0.32762   0.00000  Uiso   1.00
C157   C     0.63421   0.25481   0.38407   0.00000  Uiso   1.00
C158   C     0.59280   0.21989   0.44071   0.00000  Uiso   1.00
C159   C     0.64821   0.39599   0.12867   0.00000  Uiso   1.00
C160   C     0.67188   0.37460   0.01783   0.00000  Uiso   1.00
C161   C     0.64769   0.39445   0.90696   0.00000  Uiso   1.00
H162   H     0.54695   0.48436   0.26067   0.00000  Uiso   1.00
H163   H     0.58150   0.61102   0.37952   0.00000  Uiso   1.00
H164   H     0.50438   0.36669   0.38437   0.00000  Uiso   1.00
H165   H     0.54204   0.48646   0.01819   0.00000  Uiso   1.00
H166   H     0.64017   0.73388   0.51126   0.00000  Uiso   1.00
H167   H     0.47755   0.21868   0.52146   0.00000  Uiso   1.00
H168   H     0.55697   0.47124   0.74929   0.00000  Uiso   1.00
H169   H     0.70392   0.34912   0.26028   0.00000  Uiso   1.00
H170   H     0.74709   0.46837   0.37910   0.00000  Uiso   1.00
H171   H     0.66996   0.22403   0.38395   0.00000  Uiso   1.00
H172   H     0.70762   0.34381   0.01777   0.00000  Uiso   1.00
H173   H     0.77457   0.61809   0.51093   0.00000  Uiso   1.00
H174   H     0.61194   0.10289   0.52112   0.00000  Uiso   1.00
H175   H     0.69136   0.35546   0.74896   0.00000  Uiso   1.00
O176   O     0.73293   0.75685   0.58930   0.00000  Uiso   1.00
O177   O     0.51957   0.08093   0.60265   0.00000  Uiso   1.00
O178   O     0.62376   0.41229   0.58960   0.00000  Uiso   1.00
N179   N     0.66588   0.69027   0.49486   0.00000  Uiso   1.00
N180   N     0.51384   0.20860   0.50440   0.00000  Uiso   1.00
N181   N     0.58808   0.44470   0.78250   0.00000  Uiso   1.00
N182   N     0.73820   0.62797   0.49467   0.00000  Uiso   1.00
N183   N     0.58615   0.14630   0.50422   0.00000  Uiso   1.00
N184   N     0.66040   0.38240   0.78232   0.00000  Uiso   1.00
C185   C     0.91661   0.45308   0.91079   0.00000  Uiso   1.00
C186   C     0.87627   0.50364   0.97520   0.00000  Uiso   1.00
C187   C     0.88281   0.58029   0.02976   0.00000  Uiso   1.00
C188   C     0.84126   0.61644   0.08393   0.00000  Uiso   1.00
C189   C     0.78569   0.70088   0.18407   0.00000  Uiso   1.00
C190   C     0.91750   0.37032   0.97776   0.00000  Uiso   1.00
C191   C     0.95871   0.33487   0.03446   0.00000  Uiso   1.00
C192   C     0.95188   0.25879   0.09077   0.00000  Uiso   1.00
C193   C     0.96033   0.13622   0.19480   0.00000  Uiso   1.00
C194   C     0.89753   0.43587   0.77885   0.00000  Uiso   1.00
C195   C     0.92195   0.45553   0.66830   0.00000  Uiso   1.00
C196   C     0.89830   0.43463   0.55715   0.00000  Uiso   1.00
C197   C     0.87574   0.41385   0.35235   0.00000  Uiso   1.00
C198   C     0.83120   0.38098   0.90996   0.00000  Uiso   1.00
C199   C     0.82988   0.46447   0.97475   0.00000  Uiso   1.00
C200   C     0.78831   0.50052   0.02885   0.00000  Uiso   1.00
C201   C     0.79479   0.57721   0.08348   0.00000  Uiso   1.00
C202   C     0.87111   0.33115   0.97731   0.00000  Uiso   1.00
C203   C     0.86422   0.25510   0.03355   0.00000  Uiso   1.00
C204   C     0.90540   0.21955   0.09032   0.00000  Uiso   1.00
C205   C     0.85114   0.39671   0.77840   0.00000  Uiso   1.00
C206   C     0.82745   0.37576   0.66740   0.00000  Uiso   1.00
C207   C     0.85183   0.39539   0.55670   0.00000  Uiso   1.00
H208   H     0.95272   0.48357   0.91114   0.00000  Uiso   1.00
H209   H     0.91871   0.61057   0.03010   0.00000  Uiso   1.00
H210   H     0.99460   0.36519   0.03478   0.00000  Uiso   1.00
H211   H     0.95784   0.48584   0.66869   0.00000  Uiso   1.00
H212   H     0.86055   0.73410   0.16183   0.00000  Uiso   1.00
H213   H     0.02058   0.21669   0.17166   0.00000  Uiso   1.00
H214   H     0.94306   0.47109   0.39968   0.00000  Uiso   1.00
H215   H     0.79508   0.35048   0.90962   0.00000  Uiso   1.00
H216   H     0.75242   0.47019   0.02849   0.00000  Uiso   1.00
H217   H     0.82831   0.22481   0.03318   0.00000  Uiso   1.00
H218   H     0.79155   0.34546   0.66708   0.00000  Uiso   1.00
H219   H     0.72559   0.62016   0.16053   0.00000  Uiso   1.00
H220   H     0.88561   0.10274   0.17036   0.00000  Uiso   1.00
H221   H     0.80809   0.35715   0.39838   0.00000  Uiso   1.00
O222   O     0.76785   0.75827   0.23945   0.00000  Uiso   1.00
O223   O     0.97780   0.07944   0.25232   0.00000  Uiso   1.00
O224   O     0.87610   0.41322   0.23951   0.00000  Uiso   1.00
N225   N     0.83464   0.69087   0.14519   0.00000  Uiso   1.00
N226   N     0.98425   0.20712   0.15440   0.00000  Uiso   1.00
N227   N     0.91179   0.44495   0.43266   0.00000  Uiso   1.00
N228   N     0.76202   0.62956   0.14449   0.00000  Uiso   1.00
N229   N     0.91163   0.14581   0.15370   0.00000  Uiso   1.00
N230   N     0.83916   0.38364   0.43196   0.00000  Uiso   1.00
C231   C     0.08291   0.04662   0.73942   0.00000  Uiso   1.00
C232   C     0.12345   0.99655   0.67492   0.00000  Uiso   1.00
C233   C     0.11726   0.91976   0.62057   0.00000  Uiso   1.00
C234   C     0.15893   0.88412   0.56626   0.00000  Uiso   1.00
C235   C     0.21485   0.80034   0.46603   0.00000  Uiso   1.00
C236   C     0.08155   0.12930   0.67226   0.00000  Uiso   1.00
C237   C     0.04012   0.16412   0.61570   0.00000  Uiso   1.00
C238   C     0.04652   0.24024   0.55918   0.00000  Uiso   1.00
C239   C     0.03738   0.36258   0.45491   0.00000  Uiso   1.00
C240   C     0.10202   0.06422   0.87121   0.00000  Uiso   1.00
C241   C     0.07779   0.04434   0.98194   0.00000  Uiso   1.00
C242   C     0.10142   0.06568   0.09292   0.00000  Uiso   1.00
C243   C     0.12404   0.08697   0.29756   0.00000  Uiso   1.00
C244   C     0.16796   0.11989   0.73963   0.00000  Uiso   1.00
C245   C     0.16964   0.03635   0.67503   0.00000  Uiso   1.00
C246   C     0.21134   0.00082   0.62080   0.00000  Uiso   1.00
C247   C     0.20521   0.92399   0.56638   0.00000  Uiso   1.00
C248   C     0.12774   0.16910   0.67238   0.00000  Uiso   1.00
C249   C     0.13421   0.24519   0.61593   0.00000  Uiso   1.00
C250   C     0.09280   0.28011   0.55929   0.00000  Uiso   1.00
C251   C     0.14821   0.10401   0.87133   0.00000  Uiso   1.00
C252   C     0.17188   0.12540   0.98217   0.00000  Uiso   1.00
C253   C     0.14769   0.10555   0.09304   0.00000  Uiso   1.00
H254   H     0.04695   0.01564   0.73933   0.00000  Uiso   1.00
H255   H     0.08150   0.88898   0.62048   0.00000  Uiso   1.00
H256   H     0.00438   0.13331   0.61563   0.00000  Uiso   1.00
H257   H     0.04204   0.01354   0.98181   0.00000  Uiso   1.00
H258   H     0.14017   0.76612   0.48874   0.00000  Uiso   1.00
H259   H     0.97755   0.28132   0.47854   0.00000  Uiso   1.00
H260   H     0.05697   0.02876   0.25071   0.00000  Uiso   1.00
H261   H     0.20392   0.15088   0.73972   0.00000  Uiso   1.00
H262   H     0.24709   0.03163   0.62090   0.00000  Uiso   1.00
H263   H     0.16996   0.27597   0.61605   0.00000  Uiso   1.00
H264   H     0.20762   0.15619   0.98223   0.00000  Uiso   1.00
H265   H     0.27457   0.88191   0.48907   0.00000  Uiso   1.00
H266   H     0.11194   0.39711   0.47888   0.00000  Uiso   1.00
H267   H     0.19136   0.14454   0.25104   0.00000  Uiso   1.00
O268   O     0.23293   0.74315   0.41070   0.00000  Uiso   1.00
O269   O     0.01957   0.41907   0.39735   0.00000  Uiso   1.00
O270   O     0.12376   0.08771   0.41040   0.00000  Uiso   1.00
N271   N     0.16588   0.80973   0.50514   0.00000  Uiso   1.00
N272   N     0.01384   0.29140   0.49560   0.00000  Uiso   1.00
N273   N     0.08808   0.05530   0.21750   0.00000  Uiso   1.00
N274   N     0.23820   0.87203   0.50533   0.00000  Uiso   1.00
N275   N     0.08615   0.35370   0.49578   0.00000  Uiso   1.00
N276   N     0.16040   0.11760   0.21768   0.00000  Uiso   1.00
C277   C     0.08339   0.54692   0.91079   0.00000  Uiso   1.00
C278   C     0.12373   0.49636   0.97520   0.00000  Uiso   1.00
C279   C     0.11719   0.41971   0.02976   0.00000  Uiso   1.00
C280   C     0.15874   0.38356   0.08393   0.00000  Uiso   1.00
C281   C     0.21431   0.29912   0.18407   0.00000  Uiso   1.00
C282   C     0.08250   0.62968   0.97776   0.00000  Uiso   1.00
C283   C     0.04129   0.66513   0.03446   0.00000  Uiso   1.00
C284   C     0.04812   0.74121   0.09077   0.00000  Uiso   1.00
C285   C     0.03967   0.86378   0.19480   0.00000  Uiso   1.00
C286   C     0.10247   0.56413   0.77885   0.00000  Uiso   1.00
C287   C     0.07805   0.54447   0.66830   0.00000  Uiso   1.00
C288   C     0.10170   0.56537   0.55715   0.00000  Uiso   1.00
C289   C     0.12426   0.58615   0.35235   0.00000  Uiso   1.00
C290   C     0.16880   0.61902   0.90996   0.00000  Uiso   1.00
C291   C     0.17012   0.53553   0.97475   0.00000  Uiso   1.00
C292   C     0.21169   0.49948   0.02885   0.00000  Uiso   1.00
C293   C     0.20521   0.42279   0.08348   0.00000  Uiso   1.00
C294   C     0.12889   0.66885   0.97731   0.00000  Uiso   1.00
C295   C     0.13578   0.74490   0.03355   0.00000  Uiso   1.00
C296   C     0.09460   0.78045   0.09032   0.00000  Uiso   1.00
C297   C     0.14886   0.60329   0.77840   0.00000  Uiso   1.00
C298   C     0.17255   0.62424   0.66740   0.00000  Uiso   1.00
C299   C     0.14817   0.60461   0.55670   0.00000  Uiso   1.00
H300   H     0.04728   0.51643   0.91114   0.00000  Uiso   1.00
H301   H     0.08129   0.38943   0.03010   0.00000  Uiso   1.00
H302   H     0.00540   0.63481   0.03478   0.00000  Uiso   1.00
H303   H     0.04216   0.51416   0.66869   0.00000  Uiso   1.00
H304   H     0.13945   0.26590   0.16183   0.00000  Uiso   1.00
H305   H     0.97942   0.78331   0.17166   0.00000  Uiso   1.00
H306   H     0.05694   0.52891   0.39968   0.00000  Uiso   1.00
H307   H     0.20492   0.64952   0.90962   0.00000  Uiso   1.00
H308   H     0.24758   0.52981   0.02849   0.00000  Uiso   1.00
H309   H     0.17169   0.77519   0.03318   0.00000  Uiso   1.00
H310   H     0.20845   0.65454   0.66708   0.00000  Uiso   1.00
H311   H     0.27441   0.37984   0.16053   0.00000  Uiso   1.00
H312   H     0.11439   0.89726   0.17036   0.00000  Uiso   1.00
H313   H     0.19191   0.64285   0.39838   0.00000  Uiso   1.00
O314   O     0.23215   0.24173   0.23945   0.00000  Uiso   1.00
O315   O     0.02220   0.92056   0.25232   0.00000  Uiso   1.00
O316   O     0.12390   0.58678   0.23951   0.00000  Uiso   1.00
N317   N     0.16536   0.30913   0.14519   0.00000  Uiso   1.00
N318   N     0.01575   0.79288   0.15440   0.00000  Uiso   1.00
N319   N     0.08821   0.55505   0.43266   0.00000  Uiso   1.00
N320   N     0.23798   0.37044   0.14449   0.00000  Uiso   1.00
N321   N     0.08837   0.85419   0.15370   0.00000  Uiso   1.00
N322   N     0.16084   0.61636   0.43196   0.00000  Uiso   1.00
C323   C     0.91709   0.95338   0.73942   0.00000  Uiso   1.00
C324   C     0.87655   0.00345   0.67492   0.00000  Uiso   1.00
C325   C     0.88274   0.08024   0.62057   0.00000  Uiso   1.00
C326   C     0.84107   0.11588   0.56626   0.00000  Uiso   1.00
C327   C     0.78515   0.19966   0.46603   0.00000  Uiso   1.00
C328   C     0.91845   0.87070   0.67226   0.00000  Uiso   1.00
C329   C     0.95988   0.83588   0.61570   0.00000  Uiso   1.00
C330   C     0.95348   0.75976   0.55918   0.00000  Uiso   1.00
C331   C     0.96262   0.63742   0.45491   0.00000  Uiso   1.00
C332   C     0.89798   0.93578   0.87121   0.00000  Uiso   1.00
C333   C     0.92221   0.95566   0.98194   0.00000  Uiso   1.00
C334   C     0.89858   0.93432   0.09292   0.00000  Uiso   1.00
C335   C     0.87596   0.91303   0.29756   0.00000  Uiso   1.00
C336   C     0.83204   0.88011   0.73963   0.00000  Uiso   1.00
C337   C     0.83036   0.96365   0.67503   0.00000  Uiso   1.00
C338   C     0.78866   0.99918   0.62080   0.00000  Uiso   1.00
C339   C     0.79479   0.07601   0.56638   0.00000  Uiso   1.00
C340   C     0.87226   0.83090   0.67238   0.00000  Uiso   1.00
C341   C     0.86579   0.75481   0.61593   0.00000  Uiso   1.00
C342   C     0.90720   0.71989   0.55929   0.00000  Uiso   1.00
C343   C     0.85179   0.89599   0.87133   0.00000  Uiso   1.00
C344   C     0.82812   0.87460   0.98217   0.00000  Uiso   1.00
C345   C     0.85231   0.89445   0.09304   0.00000  Uiso   1.00
H346   H     0.95305   0.98436   0.73933   0.00000  Uiso   1.00
H347   H     0.91850   0.11102   0.62048   0.00000  Uiso   1.00
H348   H     0.99562   0.86669   0.61563   0.00000  Uiso   1.00
H349   H     0.95796   0.98646   0.98181   0.00000  Uiso   1.00
H350   H     0.85983   0.23388   0.48874   0.00000  Uiso   1.00
H351   H     0.02245   0.71868   0.47854   0.00000  Uiso   1.00
H352   H     0.94303   0.97124   0.25071   0.00000  Uiso   1.00
H353   H     0.79608   0.84912   0.73972   0.00000  Uiso   1.00
H354   H     0.75291   0.96837   0.62090   0.00000  Uiso   1.00
H355   H     0.83004   0.72403   0.61605   0.00000  Uiso   1.00
H356   H     0.79238   0.84381   0.98223   0.00000  Uiso   1.00
H357   H     0.72543   0.11809   0.48907   0.00000  Uiso   1.00
H358   H     0.88806   0.60289   0.47888   0.00000  Uiso   1.00
H359   H     0.80864   0.85546   0.25104   0.00000  Uiso   1.00
O360   O     0.76707   0.25685   0.41070   0.00000  Uiso   1.00
O361   O     0.98043   0.58093   0.39735   0.00000  Uiso   1.00
O362   O     0.87624   0.91229   0.41040   0.00000  Uiso   1.00
N363   N     0.83412   0.19027   0.50514   0.00000  Uiso   1.00
N364   N     0.98616   0.70860   0.49560   0.00000  Uiso   1.00
N365   N     0.91192   0.94470   0.21750   0.00000  Uiso   1.00
N366   N     0.76180   0.12797   0.50533   0.00000  Uiso   1.00
N367   N     0.91385   0.64630   0.49578   0.00000  Uiso   1.00
N368   N     0.83960   0.88240   0.21768   0.00000  Uiso   1.00
