data_job_07073
_audit_creation_date              2018-12-19
_audit_creation_method            'Materials Studio'
_symmetry_space_group_name_H-M    'P1'
_symmetry_Int_Tables_number       1
_symmetry_cell_setting            triclinic
loop_
_symmetry_equiv_pos_as_xyz
  x,y,z
_cell_length_a                    21.8702
_cell_length_b                    22.1899
_cell_length_c                    23.3032
_cell_angle_alpha                 91.0797
_cell_angle_beta                  64.8304
_cell_angle_gamma                 61.6681
loop_
_atom_site_label
_atom_site_type_symbol
_atom_site_fract_x
_atom_site_fract_y
_atom_site_fract_z
_atom_site_U_iso_or_equiv
_atom_site_adp_type
_atom_site_occupancy
C1     C     0.67807   0.95357   0.31020   0.00000  Uiso   1.00
C2     C     0.62719   0.02922   0.30849   0.00000  Uiso   1.00
C3     C     0.62101   0.08936   0.33570   0.00000  Uiso   1.00
C4     C     0.57130   0.15371   0.32890   0.00000  Uiso   1.00
C5     C     0.49864   0.27058   0.33127   0.00000  Uiso   1.00
C6     C     0.62107   0.92806   0.34216   0.00000  Uiso   1.00
C7     C     0.60977   0.90313   0.39769   0.00000  Uiso   1.00
C8     C     0.55491   0.88230   0.41923   0.00000  Uiso   1.00
C9     C     0.47280   0.84206   0.47386   0.00000  Uiso   1.00
C10    C     0.73297   0.90844   0.23850   0.00000  Uiso   1.00
C11    C     0.81576   0.86701   0.20687   0.00000  Uiso   1.00
C12    C     0.85512   0.82965   0.14114   0.00000  Uiso   1.00
C13    C     0.94676   0.75896   0.03481   0.00000  Uiso   1.00
C14    C     0.60076   0.96089   0.24971   0.00000  Uiso   1.00
C15    C     0.58519   0.03320   0.27563   0.00000  Uiso   1.00
C16    C     0.53547   0.09747   0.26878   0.00000  Uiso   1.00
C17    C     0.52923   0.15769   0.29599   0.00000  Uiso   1.00
C18    C     0.57907   0.93203   0.30931   0.00000  Uiso   1.00
C19    C     0.52422   0.91123   0.33077   0.00000  Uiso   1.00
C20    C     0.51283   0.88629   0.38632   0.00000  Uiso   1.00
C21    C     0.69098   0.91242   0.20565   0.00000  Uiso   1.00
C22    C     0.73022   0.87511   0.13995   0.00000  Uiso   1.00
C23    C     0.81305   0.83364   0.10822   0.00000  Uiso   1.00
H24    H     0.71077   0.95047   0.33578   0.00000  Uiso   1.00
H25    H     0.65352   0.08627   0.36113   0.00000  Uiso   1.00
H26    H     0.64228   0.90005   0.42310   0.00000  Uiso   1.00
H27    H     0.84824   0.86394   0.23231   0.00000  Uiso   1.00
H28    H     0.57151   0.23858   0.37477   0.00000  Uiso   1.00
H29    H     0.54782   0.84592   0.50543   0.00000  Uiso   1.00
H30    H     0.98214   0.76977   0.10311   0.00000  Uiso   1.00
H31    H     0.56806   0.96398   0.22413   0.00000  Uiso   1.00
H32    H     0.50298   0.10053   0.24336   0.00000  Uiso   1.00
H33    H     0.49174   0.91431   0.30533   0.00000  Uiso   1.00
H34    H     0.69770   0.87820   0.11454   0.00000  Uiso   1.00
H35    H     0.44932   0.25016   0.27918   0.00000  Uiso   1.00
H36    H     0.42564   0.85749   0.40984   0.00000  Uiso   1.00
H37    H     0.85995   0.78134   0.00752   0.00000  Uiso   1.00
O38    O     0.47016   0.33395   0.34166   0.00000  Uiso   1.00
O39    O     0.43910   0.81878   0.51307   0.00000  Uiso   1.00
O40    O     0.00890   0.71888   0.98523   0.00000  Uiso   1.00
N41    N     0.55169   0.22256   0.34963   0.00000  Uiso   1.00
N42    N     0.52954   0.85546   0.47179   0.00000  Uiso   1.00
N43    N     0.93559   0.78425   0.09566   0.00000  Uiso   1.00
N44    N     0.48595   0.22879   0.29819   0.00000  Uiso   1.00
N45    N     0.46380   0.86169   0.42036   0.00000  Uiso   1.00
N46    N     0.86984   0.79048   0.04422   0.00000  Uiso   1.00
C47    C     0.01729   0.03262   0.35726   0.00000  Uiso   1.00
C48    C     0.97560   0.99143   0.37625   0.00000  Uiso   1.00
C49    C     0.89621   0.01819   0.39491   0.00000  Uiso   1.00
C50    C     0.86943   0.97200   0.41041   0.00000  Uiso   1.00
C51    C     0.79696   0.91876   0.44040   0.00000  Uiso   1.00
C52    C     0.05140   0.02784   0.40324   0.00000  Uiso   1.00
C53    C     0.03574   0.08522   0.44459   0.00000  Uiso   1.00
C54    C     0.07278   0.06968   0.48280   0.00000  Uiso   1.00
C55    C     0.11803   0.07297   0.55466   0.00000  Uiso   1.00
C56    C     0.08901   0.98978   0.28840   0.00000  Uiso   1.00
C57    C     0.10499   0.01515   0.23319   0.00000  Uiso   1.00
C58    C     0.17370   0.96757   0.17471   0.00000  Uiso   1.00
C59    C     0.27734   0.91176   0.06826   0.00000  Uiso   1.00
C60    C     0.11091   0.90301   0.35158   0.00000  Uiso   1.00
C61    C     0.02646   0.92103   0.37317   0.00000  Uiso   1.00
C62    C     0.99979   0.87479   0.38864   0.00000  Uiso   1.00
C63    C     0.92037   0.90148   0.40732   0.00000  Uiso   1.00
C64    C     0.10225   0.95744   0.40016   0.00000  Uiso   1.00
C65    C     0.13932   0.94182   0.43831   0.00000  Uiso   1.00
C66    C     0.12372   0.99915   0.47972   0.00000  Uiso   1.00
C67    C     0.13986   0.91938   0.28531   0.00000  Uiso   1.00
C68    C     0.20856   0.87175   0.22691   0.00000  Uiso   1.00
C69    C     0.22464   0.89705   0.17162   0.00000  Uiso   1.00
H70    H     0.97770   0.08743   0.35966   0.00000  Uiso   1.00
H71    H     0.85688   0.07268   0.39730   0.00000  Uiso   1.00
H72    H     0.99640   0.13969   0.44696   0.00000  Uiso   1.00
H73    H     0.06562   0.06964   0.23559   0.00000  Uiso   1.00
H74    H     0.74534   0.02528   0.43770   0.00000  Uiso   1.00
H75    H     0.03954   0.16658   0.54240   0.00000  Uiso   1.00
H76    H     0.18553   0.01886   0.09668   0.00000  Uiso   1.00
H77    H     0.15050   0.84820   0.34918   0.00000  Uiso   1.00
H78    H     0.03915   0.82031   0.38625   0.00000  Uiso   1.00
H79    H     0.17867   0.88733   0.43591   0.00000  Uiso   1.00
H80    H     0.24790   0.81727   0.22454   0.00000  Uiso   1.00
H81    H     0.89328   0.82045   0.42873   0.00000  Uiso   1.00
H82    H     0.18749   0.96176   0.53343   0.00000  Uiso   1.00
H83    H     0.33347   0.81403   0.08772   0.00000  Uiso   1.00
O84    O     0.74294   0.90884   0.45781   0.00000  Uiso   1.00
O85    O     0.12894   0.09423   0.59516   0.00000  Uiso   1.00
O86    O     0.32046   0.90042   0.01039   0.00000  Uiso   1.00
N87    N     0.79544   0.98089   0.43049   0.00000  Uiso   1.00
N88    N     0.07050   0.11301   0.52838   0.00000  Uiso   1.00
N89    N     0.20699   0.97490   0.11168   0.00000  Uiso   1.00
N90    N     0.87505   0.87068   0.42566   0.00000  Uiso   1.00
N91    N     0.15010   0.00279   0.52356   0.00000  Uiso   1.00
N92    N     0.28660   0.86469   0.10686   0.00000  Uiso   1.00
C93    C     0.56533   0.43566   0.26819   0.00000  Uiso   1.00
C94    C     0.62450   0.39200   0.29129   0.00000  Uiso   1.00
C95    C     0.61279   0.35506   0.33817   0.00000  Uiso   1.00
C96    C     0.67412   0.31836   0.35248   0.00000  Uiso   1.00
C97    C     0.75526   0.25056   0.39317   0.00000  Uiso   1.00
C98    C     0.55054   0.51034   0.28006   0.00000  Uiso   1.00
C99    C     0.47663   0.57291   0.31749   0.00000  Uiso   1.00
C100   C     0.47570   0.63583   0.32234   0.00000  Uiso   1.00
C101   C     0.44201   0.75176   0.34554   0.00000  Uiso   1.00
C102   C     0.60987   0.40498   0.19350   0.00000  Uiso   1.00
C103   C     0.58584   0.37897   0.15815   0.00000  Uiso   1.00
C104   C     0.63485   0.35320   0.09012   0.00000  Uiso   1.00
C105   C     0.69328   0.30553   0.97894   0.00000  Uiso   1.00
C106   C     0.69509   0.43615   0.21023   0.00000  Uiso   1.00
C107   C     0.69498   0.39227   0.25981   0.00000  Uiso   1.00
C108   C     0.75635   0.35561   0.27405   0.00000  Uiso   1.00
C109   C     0.74473   0.31863   0.32095   0.00000  Uiso   1.00
C110   C     0.62102   0.51061   0.24858   0.00000  Uiso   1.00
C111   C     0.62020   0.57346   0.25337   0.00000  Uiso   1.00
C112   C     0.54631   0.63610   0.29080   0.00000  Uiso   1.00
C113   C     0.68035   0.40524   0.16202   0.00000  Uiso   1.00
C114   C     0.72941   0.37951   0.09403   0.00000  Uiso   1.00
C115   C     0.70546   0.35347   0.05858   0.00000  Uiso   1.00
H116   H     0.51046   0.43545   0.29270   0.00000  Uiso   1.00
H117   H     0.55823   0.35488   0.36253   0.00000  Uiso   1.00
H118   H     0.42210   0.57269   0.34184   0.00000  Uiso   1.00
H119   H     0.53129   0.37877   0.18253   0.00000  Uiso   1.00
H120   H     0.64227   0.26568   0.42608   0.00000  Uiso   1.00
H121   H     0.35523   0.72495   0.38245   0.00000  Uiso   1.00
H122   H     0.58548   0.31604   0.04651   0.00000  Uiso   1.00
H123   H     0.74996   0.43636   0.18572   0.00000  Uiso   1.00
H124   H     0.81089   0.35583   0.24968   0.00000  Uiso   1.00
H125   H     0.67475   0.57364   0.22900   0.00000  Uiso   1.00
H126   H     0.78394   0.37973   0.06969   0.00000  Uiso   1.00
H127   H     0.84733   0.26645   0.33450   0.00000  Uiso   1.00
H128   H     0.56029   0.72573   0.29086   0.00000  Uiso   1.00
H129   H     0.79054   0.31682   0.95492   0.00000  Uiso   1.00
O130   O     0.78054   0.21309   0.42431   0.00000  Uiso   1.00
O131   O     0.40395   0.81564   0.36705   0.00000  Uiso   1.00
O132   O     0.70604   0.27916   0.92631   0.00000  Uiso   1.00
N133   N     0.68217   0.27690   0.39574   0.00000  Uiso   1.00
N134   N     0.41381   0.70629   0.35495   0.00000  Uiso   1.00
N135   N     0.62906   0.32402   0.04087   0.00000  Uiso   1.00
N136   N     0.79252   0.27732   0.34646   0.00000  Uiso   1.00
N137   N     0.52415   0.70671   0.30567   0.00000  Uiso   1.00
N138   N     0.73941   0.32443   0.99159   0.00000  Uiso   1.00
C139   C     0.23955   0.39445   0.76705   0.00000  Uiso   1.00
C140   C     0.21257   0.47287   0.77639   0.00000  Uiso   1.00
C141   C     0.13526   0.53024   0.81703   0.00000  Uiso   1.00
C142   C     0.12279   0.59786   0.81876   0.00000  Uiso   1.00
C143   C     0.07138   0.71813   0.83902   0.00000  Uiso   1.00
C144   C     0.30638   0.36052   0.78417   0.00000  Uiso   1.00
C145   C     0.30794   0.32343   0.83134   0.00000  Uiso   1.00
C146   C     0.37445   0.29648   0.83961   0.00000  Uiso   1.00
C147   C     0.46871   0.24228   0.87191   0.00000  Uiso   1.00
C148   C     0.27873   0.36233   0.69317   0.00000  Uiso   1.00
C149   C     0.25707   0.32675   0.66382   0.00000  Uiso   1.00
C150   C     0.30031   0.30130   0.59548   0.00000  Uiso   1.00
C151   C     0.35164   0.24993   0.48648   0.00000  Uiso   1.00
C152   C     0.35488   0.41251   0.69786   0.00000  Uiso   1.00
C153   C     0.27522   0.48268   0.73881   0.00000  Uiso   1.00
C154   C     0.26287   0.55023   0.74048   0.00000  Uiso   1.00
C155   C     0.18555   0.60770   0.78112   0.00000  Uiso   1.00
C156   C     0.36902   0.37033   0.74659   0.00000  Uiso   1.00
C157   C     0.43555   0.34342   0.75480   0.00000  Uiso   1.00
C158   C     0.43721   0.30630   0.80197   0.00000  Uiso   1.00
C159   C     0.34138   0.37215   0.65559   0.00000  Uiso   1.00
C160   C     0.38467   0.34674   0.58728   0.00000  Uiso   1.00
C161   C     0.36308   0.31113   0.55783   0.00000  Uiso   1.00
H162   H     0.19078   0.38680   0.79630   0.00000  Uiso   1.00
H163   H     0.08680   0.52262   0.84611   0.00000  Uiso   1.00
H164   H     0.25946   0.31584   0.86041   0.00000  Uiso   1.00
H165   H     0.20859   0.31917   0.69292   0.00000  Uiso   1.00
H166   H     0.99915   0.67753   0.88477   0.00000  Uiso   1.00
H167   H     0.36323   0.24150   0.91491   0.00000  Uiso   1.00
H168   H     0.25596   0.24851   0.56172   0.00000  Uiso   1.00
H169   H     0.40366   0.42015   0.66860   0.00000  Uiso   1.00
H170   H     0.31136   0.55781   0.71140   0.00000  Uiso   1.00
H171   H     0.48402   0.35102   0.72570   0.00000  Uiso   1.00
H172   H     0.43315   0.35435   0.55821   0.00000  Uiso   1.00
H173   H     0.18141   0.70609   0.77544   0.00000  Uiso   1.00
H174   H     0.54549   0.27005   0.80558   0.00000  Uiso   1.00
H175   H     0.43822   0.27706   0.45239   0.00000  Uiso   1.00
O176   O     0.02572   0.78176   0.86058   0.00000  Uiso   1.00
O177   O     0.50339   0.20969   0.90011   0.00000  Uiso   1.00
O178   O     0.36265   0.21889   0.43674   0.00000  Uiso   1.00
N179   N     0.05471   0.66536   0.85316   0.00000  Uiso   1.00
N180   N     0.39509   0.25771   0.88134   0.00000  Uiso   1.00
N181   N     0.29482   0.26424   0.55114   0.00000  Uiso   1.00
N182   N     0.15278   0.68073   0.79433   0.00000  Uiso   1.00
N183   N     0.49317   0.27307   0.82251   0.00000  Uiso   1.00
N184   N     0.39289   0.27961   0.49231   0.00000  Uiso   1.00
C185   C     0.80004   0.50797   0.80984   0.00000  Uiso   1.00
C186   C     0.86622   0.46399   0.82599   0.00000  Uiso   1.00
C187   C     0.89503   0.49080   0.85533   0.00000  Uiso   1.00
C188   C     0.95577   0.44182   0.86599   0.00000  Uiso   1.00
C189   C     0.05383   0.38467   0.89384   0.00000  Uiso   1.00
C190   C     0.73684   0.48964   0.84462   0.00000  Uiso   1.00
C191   C     0.65688   0.53802   0.88962   0.00000  Uiso   1.00
C192   C     0.60871   0.51063   0.91595   0.00000  Uiso   1.00
C193   C     0.50590   0.49330   0.97269   0.00000  Uiso   1.00
C194   C     0.83584   0.47799   0.73612   0.00000  Uiso   1.00
C195   C     0.83910   0.51657   0.68989   0.00000  Uiso   1.00
C196   C     0.87427   0.47938   0.62487   0.00000  Uiso   1.00
C197   C     0.92517   0.44396   0.51314   0.00000  Uiso   1.00
C198   C     0.85666   0.37330   0.77657   0.00000  Uiso   1.00
C199   C     0.89697   0.39085   0.80792   0.00000  Uiso   1.00
C200   C     0.95768   0.34181   0.81853   0.00000  Uiso   1.00
C201   C     0.98658   0.36855   0.84788   0.00000  Uiso   1.00
C202   C     0.76759   0.41650   0.82655   0.00000  Uiso   1.00
C203   C     0.71953   0.38903   0.85281   0.00000  Uiso   1.00
C204   C     0.63952   0.43735   0.89785   0.00000  Uiso   1.00
C205   C     0.86660   0.40484   0.71805   0.00000  Uiso   1.00
C206   C     0.90176   0.36758   0.65308   0.00000  Uiso   1.00
C207   C     0.90508   0.40610   0.60677   0.00000  Uiso   1.00
H208   H     0.77609   0.56491   0.82391   0.00000  Uiso   1.00
H209   H     0.87121   0.54741   0.86932   0.00000  Uiso   1.00
H210   H     0.63310   0.59462   0.90359   0.00000  Uiso   1.00
H211   H     0.81530   0.57317   0.70389   0.00000  Uiso   1.00
H212   H     0.99022   0.49576   0.91171   0.00000  Uiso   1.00
H213   H     0.48814   0.59530   0.98396   0.00000  Uiso   1.00
H214   H     0.87234   0.55008   0.56286   0.00000  Uiso   1.00
H215   H     0.88060   0.31635   0.76250   0.00000  Uiso   1.00
H216   H     0.98147   0.28521   0.80454   0.00000  Uiso   1.00
H217   H     0.74335   0.33242   0.83882   0.00000  Uiso   1.00
H218   H     0.92555   0.31098   0.63912   0.00000  Uiso   1.00
H219   H     0.07970   0.28294   0.85914   0.00000  Uiso   1.00
H220   H     0.57762   0.38249   0.93139   0.00000  Uiso   1.00
H221   H     0.96182   0.33727   0.51029   0.00000  Uiso   1.00
O222   O     0.09941   0.37335   0.91421   0.00000  Uiso   1.00
O223   O     0.44069   0.50395   0.00899   0.00000  Uiso   1.00
O224   O     0.94476   0.44462   0.45651   0.00000  Uiso   1.00
N225   N     0.99745   0.44994   0.89356   0.00000  Uiso   1.00
N226   N     0.52803   0.54301   0.96112   0.00000  Uiso   1.00
N227   N     0.88721   0.50074   0.56742   0.00000  Uiso   1.00
N228   N     0.04560   0.33543   0.86527   0.00000  Uiso   1.00
N229   N     0.57618   0.42850   0.93283   0.00000  Uiso   1.00
N230   N     0.93536   0.38622   0.53913   0.00000  Uiso   1.00
C231   C     0.79737   0.82368   0.86678   0.00000  Uiso   1.00
C232   C     0.73493   0.82715   0.85120   0.00000  Uiso   1.00
C233   C     0.69789   0.78916   0.87124   0.00000  Uiso   1.00
C234   C     0.64242   0.79976   0.85192   0.00000  Uiso   1.00
C235   C     0.54813   0.79804   0.83354   0.00000  Uiso   1.00
C236   C     0.76460   0.90001   0.90082   0.00000  Uiso   1.00
C237   C     0.75252   0.92328   0.96257   0.00000  Uiso   1.00
C238   C     0.72203   0.99522   0.98501   0.00000  Uiso   1.00
C239   C     0.67386   0.10661   0.04364   0.00000  Uiso   1.00
C240   C     0.87020   0.80307   0.80040   0.00000  Uiso   1.00
C241   C     0.94692   0.74484   0.77772   0.00000  Uiso   1.00
C242   C     0.00534   0.73517   0.71562   0.00000  Uiso   1.00
C243   C     0.12114   0.69604   0.61833   0.00000  Uiso   1.00
C244   C     0.76472   0.91004   0.79684   0.00000  Uiso   1.00
C245   C     0.71720   0.87406   0.81321   0.00000  Uiso   1.00
C246   C     0.66177   0.88472   0.79386   0.00000  Uiso   1.00
C247   C     0.62465   0.84675   0.81386   0.00000  Uiso   1.00
C248   C     0.74687   0.94692   0.86283   0.00000  Uiso   1.00
C249   C     0.71639   0.01884   0.88519   0.00000  Uiso   1.00
C250   C     0.70426   0.04222   0.94696   0.00000  Uiso   1.00
C251   C     0.85247   0.84998   0.76241   0.00000  Uiso   1.00
C252   C     0.91079   0.84039   0.70034   0.00000  Uiso   1.00
C253   C     0.98758   0.78216   0.67757   0.00000  Uiso   1.00
H254   H     0.81118   0.78716   0.89636   0.00000  Uiso   1.00
H255   H     0.71163   0.75287   0.90064   0.00000  Uiso   1.00
H256   H     0.76625   0.88697   0.99195   0.00000  Uiso   1.00
H257   H     0.96062   0.70855   0.80713   0.00000  Uiso   1.00
H258   H     0.59341   0.73556   0.88866   0.00000  Uiso   1.00
H259   H     0.70862   0.01831   0.08118   0.00000  Uiso   1.00
H260   H     0.11848   0.64208   0.69145   0.00000  Uiso   1.00
H261   H     0.75092   0.94657   0.76727   0.00000  Uiso   1.00
H262   H     0.64806   0.92102   0.76446   0.00000  Uiso   1.00
H263   H     0.70268   0.05512   0.85578   0.00000  Uiso   1.00
H264   H     0.89705   0.87671   0.67096   0.00000  Uiso   1.00
H265   H     0.54181   0.87204   0.77814   0.00000  Uiso   1.00
H266   H     0.65702   0.15479   0.97066   0.00000  Uiso   1.00
H267   H     0.06688   0.77857   0.58092   0.00000  Uiso   1.00
O268   O     0.50102   0.78414   0.83390   0.00000  Uiso   1.00
O269   O     0.65218   0.15509   0.08648   0.00000  Uiso   1.00
O270   O     0.18990   0.66149   0.57516   0.00000  Uiso   1.00
N271   N     0.59540   0.77117   0.86302   0.00000  Uiso   1.00
N272   N     0.70310   0.03553   0.04302   0.00000  Uiso   1.00
N273   N     0.08629   0.68380   0.67866   0.00000  Uiso   1.00
N274   N     0.56763   0.84461   0.80355   0.00000  Uiso   1.00
N275   N     0.67533   0.10897   0.98355   0.00000  Uiso   1.00
N276   N     0.05852   0.75724   0.61919   0.00000  Uiso   1.00
C277   C     0.54262   0.99239   0.65498   0.00000  Uiso   1.00
C278   C     0.62178   0.92300   0.63375   0.00000  Uiso   1.00
C279   C     0.64235   0.85582   0.60583   0.00000  Uiso   1.00
C280   C     0.71762   0.79906   0.58984   0.00000  Uiso   1.00
C281   C     0.83253   0.68978   0.55510   0.00000  Uiso   1.00
C282   C     0.56377   0.04165   0.61807   0.00000  Uiso   1.00
C283   C     0.53555   0.07424   0.57698   0.00000  Uiso   1.00
C284   C     0.56197   0.11737   0.54779   0.00000  Uiso   1.00
C285   C     0.58676   0.19234   0.48875   0.00000  Uiso   1.00
C286   C     0.50886   0.02530   0.72766   0.00000  Uiso   1.00
C287   C     0.43447   0.04416   0.77871   0.00000  Uiso   1.00
C288   C     0.41466   0.07355   0.84179   0.00000  Uiso   1.00
C289   C     0.35420   0.12314   0.95289   0.00000  Uiso   1.00
C290   C     0.63972   0.01105   0.67623   0.00000  Uiso   1.00
C291   C     0.67452   0.93314   0.64529   0.00000  Uiso   1.00
C292   C     0.74978   0.87647   0.62935   0.00000  Uiso   1.00
C293   C     0.77046   0.80922   0.60141   0.00000  Uiso   1.00
C294   C     0.61650   0.05179   0.62961   0.00000  Uiso   1.00
C295   C     0.64297   0.09489   0.60049   0.00000  Uiso   1.00
C296   C     0.61480   0.12753   0.55936   0.00000  Uiso   1.00
C297   C     0.56160   0.03544   0.73920   0.00000  Uiso   1.00
C298   C     0.54190   0.06481   0.80222   0.00000  Uiso   1.00
C299   C     0.46749   0.08371   0.85335   0.00000  Uiso   1.00
H300   H     0.50156   0.98450   0.64599   0.00000  Uiso   1.00
H301   H     0.60153   0.84799   0.59690   0.00000  Uiso   1.00
H302   H     0.49473   0.06639   0.56806   0.00000  Uiso   1.00
H303   H     0.39367   0.03631   0.76976   0.00000  Uiso   1.00
H304   H     0.73562   0.70113   0.54755   0.00000  Uiso   1.00
H305   H     0.51041   0.16164   0.48675   0.00000  Uiso   1.00
H306   H     0.29731   0.09823   0.91207   0.00000  Uiso   1.00
H307   H     0.68078   0.01895   0.68521   0.00000  Uiso   1.00
H308   H     0.79058   0.88433   0.63828   0.00000  Uiso   1.00
H309   H     0.68378   0.10273   0.60943   0.00000  Uiso   1.00
H310   H     0.58272   0.07265   0.81113   0.00000  Uiso   1.00
H311   H     0.88906   0.73063   0.58114   0.00000  Uiso   1.00
H312   H     0.66385   0.19114   0.52033   0.00000  Uiso   1.00
H313   H     0.45075   0.12772   0.94565   0.00000  Uiso   1.00
O314   O     0.88135   0.62671   0.53275   0.00000  Uiso   1.00
O315   O     0.58587   0.23089   0.45298   0.00000  Uiso   1.00
O316   O     0.30629   0.14768   0.01099   0.00000  Uiso   1.00
N317   N     0.75666   0.72654   0.56191   0.00000  Uiso   1.00
N318   N     0.54611   0.15709   0.50505   0.00000  Uiso   1.00
N319   N     0.34687   0.09781   0.90269   0.00000  Uiso   1.00
N320   N     0.83922   0.74241   0.57998   0.00000  Uiso   1.00
N321   N     0.62868   0.17296   0.52312   0.00000  Uiso   1.00
N322   N     0.42944   0.11368   0.92076   0.00000  Uiso   1.00
C323   C     0.05465   0.96572   0.70978   0.00000  Uiso   1.00
C324   C     0.11622   0.98515   0.69867   0.00000  Uiso   1.00
C325   C     0.19833   0.94029   0.65913   0.00000  Uiso   1.00
C326   C     0.24448   0.96813   0.65543   0.00000  Uiso   1.00
C327   C     0.34538   0.98765   0.63289   0.00000  Uiso   1.00
C328   C     0.99724   0.02050   0.69013   0.00000  Uiso   1.00
C329   C     0.97930   0.00536   0.64342   0.00000  Uiso   1.00
C330   C     0.92528   0.06296   0.63253   0.00000  Uiso   1.00
C331   C     0.84140   0.13736   0.59677   0.00000  Uiso   1.00
C332   C     0.00659   0.98005   0.78420   0.00000  Uiso   1.00
C333   C     0.99649   0.93089   0.81660   0.00000  Uiso   1.00
C334   C     0.95033   0.95444   0.88492   0.00000  Uiso   1.00
C335   C     0.88098   0.96602   0.99522   0.00000  Uiso   1.00
C336   C     0.99059   0.09494   0.77350   0.00000  Uiso   1.00
C337   C     0.08143   0.05535   0.73328   0.00000  Uiso   1.00
C338   C     0.12746   0.08326   0.72964   0.00000  Uiso   1.00
C339   C     0.20963   0.03845   0.69011   0.00000  Uiso   1.00
C340   C     0.96245   0.09069   0.72474   0.00000  Uiso   1.00
C341   C     0.90843   0.14833   0.71392   0.00000  Uiso   1.00
C342   C     0.89042   0.13328   0.66721   0.00000  Uiso   1.00
C343   C     0.97180   0.05024   0.81882   0.00000  Uiso   1.00
C344   C     0.92563   0.07387   0.88710   0.00000  Uiso   1.00
C345   C     0.91547   0.02476   0.91959   0.00000  Uiso   1.00
H346   H     0.08173   0.91107   0.68283   0.00000  Uiso   1.00
H347   H     0.22523   0.88598   0.63235   0.00000  Uiso   1.00
H348   H     0.00623   0.95104   0.61664   0.00000  Uiso   1.00
H349   H     0.02343   0.87658   0.78979   0.00000  Uiso   1.00
H350   H     0.36898   0.88912   0.59163   0.00000  Uiso   1.00
H351   H     0.90718   0.02630   0.55853   0.00000  Uiso   1.00
H352   H     0.94345   0.86930   0.92365   0.00000  Uiso   1.00
H353   H     0.96351   0.14959   0.80045   0.00000  Uiso   1.00
H354   H     0.10052   0.13758   0.75643   0.00000  Uiso   1.00
H355   H     0.88152   0.20264   0.74072   0.00000  Uiso   1.00
H356   H     0.89872   0.12819   0.91387   0.00000  Uiso   1.00
H357   H     0.26777   0.09333   0.69234   0.00000  Uiso   1.00
H358   H     0.80596   0.23051   0.65924   0.00000  Uiso   1.00
H359   H     0.84223   0.07351   0.02436   0.00000  Uiso   1.00
O360   O     0.41064   0.97903   0.61089   0.00000  Uiso   1.00
O361   O     0.80476   0.15900   0.56747   0.00000  Uiso   1.00
O362   O     0.85235   0.95302   0.04650   0.00000  Uiso   1.00
N363   N     0.32636   0.93882   0.62139   0.00000  Uiso   1.00
N364   N     0.89461   0.06708   0.59043   0.00000  Uiso   1.00
N365   N     0.92850   0.92030   0.93178   0.00000  Uiso   1.00
N366   N     0.27189   0.04871   0.67558   0.00000  Uiso   1.00
N367   N     0.84015   0.17696   0.64462   0.00000  Uiso   1.00
N368   N     0.87403   0.03018   0.98598   0.00000  Uiso   1.00
C369   C     0.56872   0.60365   0.60860   0.00000  Uiso   1.00
C370   C     0.50559   0.62044   0.58865   0.00000  Uiso   1.00
C371   C     0.47750   0.67432   0.56019   0.00000  Uiso   1.00
C372   C     0.41968   0.68099   0.54557   0.00000  Uiso   1.00
C373   C     0.32605   0.71398   0.51252   0.00000  Uiso   1.00
C374   C     0.63432   0.52563   0.57237   0.00000  Uiso   1.00
C375   C     0.71446   0.49979   0.53023   0.00000  Uiso   1.00
C376   C     0.76500   0.42665   0.50191   0.00000  Uiso   1.00
C377   C     0.87123   0.31244   0.44363   0.00000  Uiso   1.00
C378   C     0.53011   0.60733   0.68167   0.00000  Uiso   1.00
C379   C     0.52266   0.65018   0.73144   0.00000  Uiso   1.00
C380   C     0.48548   0.64582   0.79514   0.00000  Uiso   1.00
C381   C     0.42992   0.65846   0.90657   0.00000  Uiso   1.00
C382   C     0.51598   0.51969   0.63325   0.00000  Uiso   1.00
C383   C     0.47695   0.57483   0.60203   0.00000  Uiso   1.00
C384   C     0.41915   0.58143   0.58746   0.00000  Uiso   1.00
C385   C     0.39098   0.63531   0.55898   0.00000  Uiso   1.00
C386   C     0.60567   0.48002   0.58575   0.00000  Uiso   1.00
C387   C     0.65611   0.40690   0.55750   0.00000  Uiso   1.00
C388   C     0.73631   0.38097   0.51532   0.00000  Uiso   1.00
C389   C     0.50146   0.56173   0.69506   0.00000  Uiso   1.00
C390   C     0.46430   0.55729   0.75870   0.00000  Uiso   1.00
C391   C     0.45679   0.60013   0.80855   0.00000  Uiso   1.00
H392   H     0.59102   0.63915   0.59818   0.00000  Uiso   1.00
H393   H     0.49969   0.70959   0.54983   0.00000  Uiso   1.00
H394   H     0.73661   0.53510   0.51989   0.00000  Uiso   1.00
H395   H     0.54483   0.68546   0.72106   0.00000  Uiso   1.00
H396   H     0.38582   0.76757   0.50211   0.00000  Uiso   1.00
H397   H     0.88538   0.39963   0.43898   0.00000  Uiso   1.00
H398   H     0.48099   0.71671   0.86320   0.00000  Uiso   1.00
H399   H     0.49368   0.48418   0.64367   0.00000  Uiso   1.00
H400   H     0.39700   0.54613   0.59782   0.00000  Uiso   1.00
H401   H     0.63392   0.37163   0.56787   0.00000  Uiso   1.00
H402   H     0.44214   0.52200   0.76904   0.00000  Uiso   1.00
H403   H     0.30247   0.63489   0.54106   0.00000  Uiso   1.00
H404   H     0.80204   0.26695   0.47793   0.00000  Uiso   1.00
H405   H     0.39764   0.58403   0.90214   0.00000  Uiso   1.00
O406   O     0.28233   0.74476   0.49058   0.00000  Uiso   1.00
O407   O     0.93773   0.26204   0.40777   0.00000  Uiso   1.00
O408   O     0.40717   0.67805   0.96433   0.00000  Uiso   1.00
N409   N     0.37946   0.72785   0.51758   0.00000  Uiso   1.00
N410   N     0.84652   0.38385   0.45855   0.00000  Uiso   1.00
N411   N     0.46846   0.68028   0.85515   0.00000  Uiso   1.00
N412   N     0.33461   0.65646   0.53854   0.00000  Uiso   1.00
N413   N     0.80167   0.31246   0.47951   0.00000  Uiso   1.00
N414   N     0.42361   0.60889   0.87611   0.00000  Uiso   1.00
C415   C     0.98805   0.47500   0.16073   0.00000  Uiso   1.00
C416   C     0.00536   0.40008   0.14267   0.00000  Uiso   1.00
C417   C     0.07821   0.33709   0.12136   0.00000  Uiso   1.00
C418   C     0.08186   0.27401   0.10729   0.00000  Uiso   1.00
C419   C     0.11891   0.15767   0.07815   0.00000  Uiso   1.00
C420   C     0.95633   0.51420   0.11721   0.00000  Uiso   1.00
C421   C     0.98795   0.54718   0.07451   0.00000  Uiso   1.00
C422   C     0.95031   0.58018   0.03902   0.00000  Uiso   1.00
C423   C     0.91121   0.64107   0.97039   0.00000  Uiso   1.00
C424   C     0.91813   0.51072   0.23114   0.00000  Uiso   1.00
C425   C     0.91763   0.54078   0.28423   0.00000  Uiso   1.00
C426   C     0.84782   0.57086   0.34466   0.00000  Uiso   1.00
C427   C     0.74941   0.62634   0.45293   0.00000  Uiso   1.00
C428   C     0.86498   0.47499   0.17363   0.00000  Uiso   1.00
C429   C     0.93851   0.40007   0.14967   0.00000  Uiso   1.00
C430   C     0.94205   0.33707   0.13564   0.00000  Uiso   1.00
C431   C     0.01489   0.27400   0.11432   0.00000  Uiso   1.00
C432   C     0.88948   0.51420   0.12422   0.00000  Uiso   1.00
C433   C     0.85179   0.54716   0.08878   0.00000  Uiso   1.00
C434   C     0.88334   0.58017   0.04603   0.00000  Uiso   1.00
C435   C     0.85128   0.51071   0.23815   0.00000  Uiso   1.00
C436   C     0.78146   0.54076   0.29850   0.00000  Uiso   1.00
C437   C     0.78085   0.57086   0.35168   0.00000  Uiso   1.00
H438   H     0.04010   0.47501   0.15527   0.00000  Uiso   1.00
H439   H     0.12993   0.33711   0.11594   0.00000  Uiso   1.00
H440   H     0.03968   0.54718   0.06910   0.00000  Uiso   1.00
H441   H     0.96937   0.54078   0.27879   0.00000  Uiso   1.00
H442   H     0.20006   0.18423   0.07540   0.00000  Uiso   1.00
H443   H     0.00974   0.62718   0.97666   0.00000  Uiso   1.00
H444   H     0.86147   0.61368   0.41883   0.00000  Uiso   1.00
H445   H     0.81294   0.47499   0.17908   0.00000  Uiso   1.00
H446   H     0.89031   0.33708   0.14106   0.00000  Uiso   1.00
H447   H     0.80005   0.54715   0.09422   0.00000  Uiso   1.00
H448   H     0.72974   0.54075   0.30391   0.00000  Uiso   1.00
H449   H     0.00557   0.18420   0.09579   0.00000  Uiso   1.00
H450   H     0.81525   0.62716   0.99704   0.00000  Uiso   1.00
H451   H     0.66699   0.61366   0.43921   0.00000  Uiso   1.00
O452   O     0.15782   0.09350   0.06013   0.00000  Uiso   1.00
O453   O     0.90811   0.67465   0.93059   0.00000  Uiso   1.00
O454   O     0.71360   0.65694   0.51071   0.00000  Uiso   1.00
N455   N     0.14366   0.20315   0.08543   0.00000  Uiso   1.00
N456   N     0.96573   0.61727   0.99310   0.00000  Uiso   1.00
N457   N     0.82711   0.60467   0.40649   0.00000  Uiso   1.00
N458   N     0.03901   0.20313   0.09640   0.00000  Uiso   1.00
N459   N     0.86108   0.61726   0.00407   0.00000  Uiso   1.00
N460   N     0.72246   0.60466   0.41746   0.00000  Uiso   1.00
C461   C     0.37867   0.55838   0.19148   0.00000  Uiso   1.00
C462   C     0.30399   0.60453   0.18605   0.00000  Uiso   1.00
C463   C     0.28370   0.58325   0.14410   0.00000  Uiso   1.00
C464   C     0.21288   0.63337   0.14652   0.00000  Uiso   1.00
C465   C     0.10435   0.69456   0.13154   0.00000  Uiso   1.00
C466   C     0.42125   0.59878   0.17868   0.00000  Uiso   1.00
C467   C     0.49954   0.57266   0.13054   0.00000  Uiso   1.00
C468   C     0.52742   0.61793   0.12677   0.00000  Uiso   1.00
C469   C     0.60095   0.67016   0.10038   0.00000  Uiso   1.00
C470   C     0.34930   0.55877   0.26378   0.00000  Uiso   1.00
C471   C     0.36712   0.49901   0.28721   0.00000  Uiso   1.00
C472   C     0.33444   0.51060   0.35509   0.00000  Uiso   1.00
C473   C     0.29627   0.50071   0.46084   0.00000  Uiso   1.00
C474   C     0.28896   0.68523   0.27039   0.00000  Uiso   1.00
C475   C     0.25527   0.67343   0.22890   0.00000  Uiso   1.00
C476   C     0.18445   0.72360   0.23140   0.00000  Uiso   1.00
C477   C     0.16406   0.70239   0.18946   0.00000  Uiso   1.00
C478   C     0.37252   0.66767   0.22153   0.00000  Uiso   1.00
C479   C     0.40029   0.71300   0.21784   0.00000  Uiso   1.00
C480   C     0.47861   0.68695   0.16970   0.00000  Uiso   1.00
C481   C     0.30057   0.62767   0.30664   0.00000  Uiso   1.00
C482   C     0.26786   0.63935   0.37450   0.00000  Uiso   1.00
C483   C     0.28563   0.57962   0.39802   0.00000  Uiso   1.00
H484   H     0.41661   0.50475   0.15811   0.00000  Uiso   1.00
H485   H     0.32143   0.52993   0.11093   0.00000  Uiso   1.00
H486   H     0.53724   0.51933   0.09738   0.00000  Uiso   1.00
H487   H     0.40483   0.44570   0.25403   0.00000  Uiso   1.00
H488   H     0.19444   0.58825   0.07751   0.00000  Uiso   1.00
H489   H     0.64949   0.56589   0.04895   0.00000  Uiso   1.00
H490   H     0.37028   0.41062   0.37926   0.00000  Uiso   1.00
H491   H     0.25102   0.73887   0.30375   0.00000  Uiso   1.00
H492   H     0.14675   0.77691   0.26457   0.00000  Uiso   1.00
H493   H     0.36257   0.76631   0.25101   0.00000  Uiso   1.00
H494   H     0.23016   0.69267   0.40765   0.00000  Uiso   1.00
H495   H     0.05266   0.78870   0.20220   0.00000  Uiso   1.00
H496   H     0.50772   0.76635   0.17364   0.00000  Uiso   1.00
H497   H     0.22851   0.61107   0.50395   0.00000  Uiso   1.00
O498   O     0.05796   0.70928   0.11143   0.00000  Uiso   1.00
O499   O     0.65497   0.67994   0.07397   0.00000  Uiso   1.00
O500   O     0.28866   0.47623   0.50733   0.00000  Uiso   1.00
N501   N     0.17537   0.63020   0.11224   0.00000  Uiso   1.00
N502   N     0.60081   0.60930   0.08554   0.00000  Uiso   1.00
N503   N     0.33980   0.46413   0.39435   0.00000  Uiso   1.00
N504   N     0.09908   0.73807   0.17934   0.00000  Uiso   1.00
N505   N     0.52453   0.71717   0.15263   0.00000  Uiso   1.00
N506   N     0.26351   0.57200   0.46144   0.00000  Uiso   1.00
C507   C     0.31898   0.12177   0.14509   0.00000  Uiso   1.00
C508   C     0.36931   0.15505   0.12836   0.00000  Uiso   1.00
C509   C     0.36649   0.20375   0.09152   0.00000  Uiso   1.00
C510   C     0.41733   0.22787   0.08170   0.00000  Uiso   1.00
C511   C     0.48762   0.28312   0.05173   0.00000  Uiso   1.00
C512   C     0.37800   0.04134   0.11971   0.00000  Uiso   1.00
C513   C     0.38248   0.99446   0.07559   0.00000  Uiso   1.00
C514   C     0.44062   0.92286   0.05849   0.00000  Uiso   1.00
C515   C     0.52437   0.80158   0.01512   0.00000  Uiso   1.00
C516   C     0.27496   0.13891   0.22014   0.00000  Uiso   1.00
C517   C     0.19280   0.17405   0.26047   0.00000  Uiso   1.00
C518   C     0.16419   0.18458   0.32793   0.00000  Uiso   1.00
C519   C     0.08796   0.21480   0.44048   0.00000  Uiso   1.00
C520   C     0.41428   0.07798   0.19316   0.00000  Uiso   1.00
C521   C     0.42107   0.13125   0.15448   0.00000  Uiso   1.00
C522   C     0.47192   0.15530   0.14471   0.00000  Uiso   1.00
C523   C     0.46918   0.20404   0.10786   0.00000  Uiso   1.00
C524   C     0.42976   0.01756   0.14582   0.00000  Uiso   1.00
C525   C     0.48791   0.94600   0.12878   0.00000  Uiso   1.00
C526   C     0.49248   0.89902   0.08465   0.00000  Uiso   1.00
C527   C     0.32672   0.11513   0.24625   0.00000  Uiso   1.00
C528   C     0.29824   0.12560   0.31366   0.00000  Uiso   1.00
C529   C     0.21605   0.16075   0.35408   0.00000  Uiso   1.00
H530   H     0.27869   0.14029   0.12476   0.00000  Uiso   1.00
H531   H     0.32643   0.22215   0.07132   0.00000  Uiso   1.00
H532   H     0.34241   0.01288   0.05540   0.00000  Uiso   1.00
H533   H     0.15276   0.19245   0.24025   0.00000  Uiso   1.00
H534   H     0.40221   0.30239   0.02356   0.00000  Uiso   1.00
H535   H     0.43588   0.86114   0.99001   0.00000  Uiso   1.00
H536   H     0.03597   0.23979   0.37980   0.00000  Uiso   1.00
H537   H     0.45458   0.05946   0.21349   0.00000  Uiso   1.00
H538   H     0.51197   0.13688   0.16492   0.00000  Uiso   1.00
H539   H     0.52795   0.92761   0.14900   0.00000  Uiso   1.00
H540   H     0.33831   0.10718   0.33385   0.00000  Uiso   1.00
H541   H     0.55280   0.23318   0.09953   0.00000  Uiso   1.00
H542   H     0.58647   0.79193   0.06598   0.00000  Uiso   1.00
H543   H     0.18657   0.17059   0.45577   0.00000  Uiso   1.00
O544   O     0.51211   0.32016   0.02798   0.00000  Uiso   1.00
O545   O     0.55627   0.74126   0.98397   0.00000  Uiso   1.00
O546   O     0.03161   0.23804   0.49536   0.00000  Uiso   1.00
N547   N     0.42976   0.27549   0.04812   0.00000  Uiso   1.00
N548   N     0.46125   0.86295   0.01675   0.00000  Uiso   1.00
N549   N     0.08738   0.21694   0.38116   0.00000  Uiso   1.00
N550   N     0.51080   0.23825   0.08900   0.00000  Uiso   1.00
N551   N     0.54229   0.82571   0.05762   0.00000  Uiso   1.00
N552   N     0.16841   0.17970   0.42204   0.00000  Uiso   1.00
