data_job_01385
_audit_creation_date              2018-12-19
_audit_creation_method            'Materials Studio'
_symmetry_space_group_name_H-M    'P1'
_symmetry_Int_Tables_number       1
_symmetry_cell_setting            triclinic
loop_
_symmetry_equiv_pos_as_xyz
  x,y,z
_cell_length_a                    28.0654
_cell_length_b                    12.7739
_cell_length_c                    23.5516
_cell_angle_alpha                 90.0000
_cell_angle_beta                  141.0764
_cell_angle_gamma                 90.0000
loop_
_atom_site_label
_atom_site_type_symbol
_atom_site_fract_x
_atom_site_fract_y
_atom_site_fract_z
_atom_site_U_iso_or_equiv
_atom_site_adp_type
_atom_site_occupancy
C1     C     0.46569   0.34020   0.38447   0.00000  Uiso   1.00
C2     C     0.42957   0.34047   0.29215   0.00000  Uiso   1.00
C3     C     0.42797   0.42468   0.25346   0.00000  Uiso   1.00
C4     C     0.39216   0.40917   0.16844   0.00000  Uiso   1.00
C5     C     0.34107   0.42425   0.03187   0.00000  Uiso   1.00
C6     C     0.40311   0.30814   0.36762   0.00000  Uiso   1.00
C7     C     0.37927   0.36517   0.39240   0.00000  Uiso   1.00
C8     C     0.32119   0.32243   0.37092   0.00000  Uiso   1.00
C9     C     0.22906   0.28729   0.35158   0.00000  Uiso   1.00
C10    C     0.52274   0.25049   0.43730   0.00000  Uiso   1.00
C11    C     0.59949   0.25903   0.52067   0.00000  Uiso   1.00
C12    C     0.64213   0.16776   0.55786   0.00000  Uiso   1.00
C13    C     0.73574   0.04311   0.64670   0.00000  Uiso   1.00
C14    C     0.40494   0.16290   0.30228   0.00000  Uiso   1.00
C15    C     0.39657   0.24417   0.24751   0.00000  Uiso   1.00
C16    C     0.36076   0.22852   0.16253   0.00000  Uiso   1.00
C17    C     0.35911   0.31270   0.12372   0.00000  Uiso   1.00
C18    C     0.37011   0.21185   0.32298   0.00000  Uiso   1.00
C19    C     0.31206   0.16901   0.30147   0.00000  Uiso   1.00
C20    C     0.28813   0.22596   0.32620   0.00000  Uiso   1.00
C21    C     0.48975   0.15419   0.39266   0.00000  Uiso   1.00
C22    C     0.53227   0.06288   0.42973   0.00000  Uiso   1.00
C23    C     0.60907   0.07128   0.51314   0.00000  Uiso   1.00
H24    H     0.49137   0.41517   0.41922   0.00000  Uiso   1.00
H25    H     0.45351   0.49919   0.28802   0.00000  Uiso   1.00
H26    H     0.40482   0.43968   0.42695   0.00000  Uiso   1.00
H27    H     0.62500   0.33357   0.55519   0.00000  Uiso   1.00
H28    H     0.39695   0.54989   0.12287   0.00000  Uiso   1.00
H29    H     0.29431   0.42439   0.41583   0.00000  Uiso   1.00
H30    H     0.75860   0.20063   0.68626   0.00000  Uiso   1.00
H31    H     0.37925   0.08793   0.26753   0.00000  Uiso   1.00
H32    H     0.33523   0.15399   0.12800   0.00000  Uiso   1.00
H33    H     0.28654   0.09449   0.26693   0.00000  Uiso   1.00
H34    H     0.50672   0.98837   0.39517   0.00000  Uiso   1.00
H35    H     0.30095   0.26972   0.99298   0.00000  Uiso   1.00
H36    H     0.19831   0.14422   0.28595   0.00000  Uiso   1.00
H37    H     0.66260   0.92046   0.55638   0.00000  Uiso   1.00
O38    O     0.32199   0.45918   0.96887   0.00000  Uiso   1.00
O39    O     0.18735   0.29452   0.35324   0.00000  Uiso   1.00
O40    O     0.79649   0.00095   0.70803   0.00000  Uiso   1.00
N41    N     0.38041   0.47488   0.11145   0.00000  Uiso   1.00
N42    N     0.28444   0.35755   0.38534   0.00000  Uiso   1.00
N43    N     0.71851   0.14835   0.63818   0.00000  Uiso   1.00
N44    N     0.32875   0.32412   0.04157   0.00000  Uiso   1.00
N45    N     0.23278   0.20679   0.31545   0.00000  Uiso   1.00
N46    N     0.66686   0.99759   0.56830   0.00000  Uiso   1.00
C47    C     0.96569   0.84020   0.38447   0.00000  Uiso   1.00
C48    C     0.92957   0.84047   0.29215   0.00000  Uiso   1.00
C49    C     0.92797   0.92468   0.25346   0.00000  Uiso   1.00
C50    C     0.89216   0.90917   0.16844   0.00000  Uiso   1.00
C51    C     0.84107   0.92425   0.03187   0.00000  Uiso   1.00
C52    C     0.90311   0.80814   0.36762   0.00000  Uiso   1.00
C53    C     0.87927   0.86517   0.39240   0.00000  Uiso   1.00
C54    C     0.82119   0.82243   0.37092   0.00000  Uiso   1.00
C55    C     0.72906   0.78729   0.35158   0.00000  Uiso   1.00
C56    C     0.02274   0.75049   0.43730   0.00000  Uiso   1.00
C57    C     0.09949   0.75903   0.52067   0.00000  Uiso   1.00
C58    C     0.14213   0.66776   0.55786   0.00000  Uiso   1.00
C59    C     0.23574   0.54311   0.64670   0.00000  Uiso   1.00
C60    C     0.90494   0.66290   0.30228   0.00000  Uiso   1.00
C61    C     0.89657   0.74417   0.24751   0.00000  Uiso   1.00
C62    C     0.86076   0.72852   0.16253   0.00000  Uiso   1.00
C63    C     0.85911   0.81270   0.12372   0.00000  Uiso   1.00
C64    C     0.87011   0.71185   0.32298   0.00000  Uiso   1.00
C65    C     0.81206   0.66901   0.30147   0.00000  Uiso   1.00
C66    C     0.78813   0.72596   0.32620   0.00000  Uiso   1.00
C67    C     0.98975   0.65419   0.39266   0.00000  Uiso   1.00
C68    C     0.03227   0.56288   0.42973   0.00000  Uiso   1.00
C69    C     0.10907   0.57128   0.51314   0.00000  Uiso   1.00
H70    H     0.99137   0.91517   0.41922   0.00000  Uiso   1.00
H71    H     0.95351   0.99919   0.28802   0.00000  Uiso   1.00
H72    H     0.90482   0.93968   0.42695   0.00000  Uiso   1.00
H73    H     0.12500   0.83357   0.55519   0.00000  Uiso   1.00
H74    H     0.89695   0.04989   0.12287   0.00000  Uiso   1.00
H75    H     0.79431   0.92439   0.41583   0.00000  Uiso   1.00
H76    H     0.25860   0.70063   0.68626   0.00000  Uiso   1.00
H77    H     0.87925   0.58793   0.26753   0.00000  Uiso   1.00
H78    H     0.83523   0.65399   0.12800   0.00000  Uiso   1.00
H79    H     0.78654   0.59449   0.26693   0.00000  Uiso   1.00
H80    H     0.00672   0.48837   0.39517   0.00000  Uiso   1.00
H81    H     0.80095   0.76972   0.99298   0.00000  Uiso   1.00
H82    H     0.69831   0.64422   0.28595   0.00000  Uiso   1.00
H83    H     0.16260   0.42046   0.55638   0.00000  Uiso   1.00
O84    O     0.82199   0.95918   0.96887   0.00000  Uiso   1.00
O85    O     0.68735   0.79452   0.35324   0.00000  Uiso   1.00
O86    O     0.29649   0.50095   0.70803   0.00000  Uiso   1.00
N87    N     0.88041   0.97488   0.11145   0.00000  Uiso   1.00
N88    N     0.78444   0.85755   0.38534   0.00000  Uiso   1.00
N89    N     0.21851   0.64835   0.63818   0.00000  Uiso   1.00
N90    N     0.82875   0.82412   0.04157   0.00000  Uiso   1.00
N91    N     0.73278   0.70679   0.31545   0.00000  Uiso   1.00
N92    N     0.16686   0.49759   0.56830   0.00000  Uiso   1.00
C93    C     0.53431   0.34020   0.11553   0.00000  Uiso   1.00
C94    C     0.57043   0.34047   0.20785   0.00000  Uiso   1.00
C95    C     0.57203   0.42468   0.24654   0.00000  Uiso   1.00
C96    C     0.60784   0.40917   0.33156   0.00000  Uiso   1.00
C97    C     0.65893   0.42425   0.46813   0.00000  Uiso   1.00
C98    C     0.59689   0.30814   0.13238   0.00000  Uiso   1.00
C99    C     0.62073   0.36517   0.10760   0.00000  Uiso   1.00
C100   C     0.67881   0.32243   0.12908   0.00000  Uiso   1.00
C101   C     0.77094   0.28729   0.14842   0.00000  Uiso   1.00
C102   C     0.47726   0.25049   0.06270   0.00000  Uiso   1.00
C103   C     0.40051   0.25903   0.97933   0.00000  Uiso   1.00
C104   C     0.35787   0.16776   0.94214   0.00000  Uiso   1.00
C105   C     0.26426   0.04311   0.85330   0.00000  Uiso   1.00
C106   C     0.59506   0.16290   0.19772   0.00000  Uiso   1.00
C107   C     0.60343   0.24417   0.25249   0.00000  Uiso   1.00
C108   C     0.63924   0.22852   0.33747   0.00000  Uiso   1.00
C109   C     0.64089   0.31270   0.37628   0.00000  Uiso   1.00
C110   C     0.62989   0.21185   0.17702   0.00000  Uiso   1.00
C111   C     0.68794   0.16901   0.19853   0.00000  Uiso   1.00
C112   C     0.71187   0.22596   0.17380   0.00000  Uiso   1.00
C113   C     0.51025   0.15419   0.10734   0.00000  Uiso   1.00
C114   C     0.46773   0.06288   0.07027   0.00000  Uiso   1.00
C115   C     0.39093   0.07128   0.98686   0.00000  Uiso   1.00
H116   H     0.50863   0.41517   0.08078   0.00000  Uiso   1.00
H117   H     0.54649   0.49919   0.21198   0.00000  Uiso   1.00
H118   H     0.59518   0.43968   0.07305   0.00000  Uiso   1.00
H119   H     0.37500   0.33357   0.94481   0.00000  Uiso   1.00
H120   H     0.60305   0.54989   0.37713   0.00000  Uiso   1.00
H121   H     0.70569   0.42439   0.08417   0.00000  Uiso   1.00
H122   H     0.24140   0.20063   0.81374   0.00000  Uiso   1.00
H123   H     0.62075   0.08793   0.23247   0.00000  Uiso   1.00
H124   H     0.66477   0.15399   0.37200   0.00000  Uiso   1.00
H125   H     0.71346   0.09449   0.23307   0.00000  Uiso   1.00
H126   H     0.49328   0.98837   0.10483   0.00000  Uiso   1.00
H127   H     0.69905   0.26972   0.50702   0.00000  Uiso   1.00
H128   H     0.80169   0.14422   0.21405   0.00000  Uiso   1.00
H129   H     0.33740   0.92046   0.94362   0.00000  Uiso   1.00
O130   O     0.67801   0.45918   0.53113   0.00000  Uiso   1.00
O131   O     0.81265   0.29452   0.14676   0.00000  Uiso   1.00
O132   O     0.20351   0.00095   0.79197   0.00000  Uiso   1.00
N133   N     0.61959   0.47488   0.38855   0.00000  Uiso   1.00
N134   N     0.71556   0.35755   0.11466   0.00000  Uiso   1.00
N135   N     0.28149   0.14835   0.86182   0.00000  Uiso   1.00
N136   N     0.67125   0.32412   0.45843   0.00000  Uiso   1.00
N137   N     0.76722   0.20679   0.18455   0.00000  Uiso   1.00
N138   N     0.33314   0.99759   0.93170   0.00000  Uiso   1.00
C139   C     0.03431   0.84020   0.11553   0.00000  Uiso   1.00
C140   C     0.07043   0.84047   0.20785   0.00000  Uiso   1.00
C141   C     0.07203   0.92468   0.24654   0.00000  Uiso   1.00
C142   C     0.10784   0.90917   0.33156   0.00000  Uiso   1.00
C143   C     0.15893   0.92425   0.46813   0.00000  Uiso   1.00
C144   C     0.09689   0.80814   0.13238   0.00000  Uiso   1.00
C145   C     0.12073   0.86517   0.10760   0.00000  Uiso   1.00
C146   C     0.17881   0.82243   0.12908   0.00000  Uiso   1.00
C147   C     0.27094   0.78729   0.14842   0.00000  Uiso   1.00
C148   C     0.97726   0.75049   0.06270   0.00000  Uiso   1.00
C149   C     0.90051   0.75903   0.97933   0.00000  Uiso   1.00
C150   C     0.85787   0.66776   0.94214   0.00000  Uiso   1.00
C151   C     0.76426   0.54311   0.85330   0.00000  Uiso   1.00
C152   C     0.09506   0.66290   0.19772   0.00000  Uiso   1.00
C153   C     0.10343   0.74417   0.25249   0.00000  Uiso   1.00
C154   C     0.13924   0.72852   0.33747   0.00000  Uiso   1.00
C155   C     0.14089   0.81270   0.37628   0.00000  Uiso   1.00
C156   C     0.12989   0.71185   0.17702   0.00000  Uiso   1.00
C157   C     0.18794   0.66901   0.19853   0.00000  Uiso   1.00
C158   C     0.21187   0.72596   0.17380   0.00000  Uiso   1.00
C159   C     0.01025   0.65419   0.10734   0.00000  Uiso   1.00
C160   C     0.96773   0.56288   0.07027   0.00000  Uiso   1.00
C161   C     0.89093   0.57128   0.98686   0.00000  Uiso   1.00
H162   H     0.00863   0.91517   0.08078   0.00000  Uiso   1.00
H163   H     0.04649   0.99919   0.21198   0.00000  Uiso   1.00
H164   H     0.09518   0.93968   0.07305   0.00000  Uiso   1.00
H165   H     0.87500   0.83357   0.94481   0.00000  Uiso   1.00
H166   H     0.10305   0.04989   0.37713   0.00000  Uiso   1.00
H167   H     0.20569   0.92439   0.08417   0.00000  Uiso   1.00
H168   H     0.74140   0.70063   0.81374   0.00000  Uiso   1.00
H169   H     0.12075   0.58793   0.23247   0.00000  Uiso   1.00
H170   H     0.16477   0.65399   0.37200   0.00000  Uiso   1.00
H171   H     0.21346   0.59449   0.23307   0.00000  Uiso   1.00
H172   H     0.99328   0.48837   0.10483   0.00000  Uiso   1.00
H173   H     0.19905   0.76972   0.50702   0.00000  Uiso   1.00
H174   H     0.30169   0.64422   0.21405   0.00000  Uiso   1.00
H175   H     0.83740   0.42046   0.94362   0.00000  Uiso   1.00
O176   O     0.17801   0.95918   0.53113   0.00000  Uiso   1.00
O177   O     0.31265   0.79452   0.14676   0.00000  Uiso   1.00
O178   O     0.70351   0.50095   0.79197   0.00000  Uiso   1.00
N179   N     0.11959   0.97488   0.38855   0.00000  Uiso   1.00
N180   N     0.21556   0.85755   0.11466   0.00000  Uiso   1.00
N181   N     0.78149   0.64835   0.86182   0.00000  Uiso   1.00
N182   N     0.17125   0.82412   0.45843   0.00000  Uiso   1.00
N183   N     0.26722   0.70679   0.18455   0.00000  Uiso   1.00
N184   N     0.83314   0.49759   0.93170   0.00000  Uiso   1.00
C185   C     0.53431   0.65980   0.61553   0.00000  Uiso   1.00
C186   C     0.57043   0.65953   0.70785   0.00000  Uiso   1.00
C187   C     0.57203   0.57532   0.74654   0.00000  Uiso   1.00
C188   C     0.60784   0.59083   0.83156   0.00000  Uiso   1.00
C189   C     0.65893   0.57575   0.96813   0.00000  Uiso   1.00
C190   C     0.59689   0.69186   0.63238   0.00000  Uiso   1.00
C191   C     0.62073   0.63483   0.60760   0.00000  Uiso   1.00
C192   C     0.67881   0.67757   0.62908   0.00000  Uiso   1.00
C193   C     0.77094   0.71271   0.64842   0.00000  Uiso   1.00
C194   C     0.47726   0.74951   0.56270   0.00000  Uiso   1.00
C195   C     0.40051   0.74097   0.47933   0.00000  Uiso   1.00
C196   C     0.35787   0.83224   0.44214   0.00000  Uiso   1.00
C197   C     0.26426   0.95689   0.35330   0.00000  Uiso   1.00
C198   C     0.59506   0.83710   0.69772   0.00000  Uiso   1.00
C199   C     0.60343   0.75583   0.75249   0.00000  Uiso   1.00
C200   C     0.63924   0.77148   0.83747   0.00000  Uiso   1.00
C201   C     0.64089   0.68730   0.87628   0.00000  Uiso   1.00
C202   C     0.62989   0.78815   0.67702   0.00000  Uiso   1.00
C203   C     0.68794   0.83099   0.69853   0.00000  Uiso   1.00
C204   C     0.71187   0.77404   0.67380   0.00000  Uiso   1.00
C205   C     0.51025   0.84581   0.60734   0.00000  Uiso   1.00
C206   C     0.46773   0.93712   0.57027   0.00000  Uiso   1.00
C207   C     0.39093   0.92872   0.48686   0.00000  Uiso   1.00
H208   H     0.50863   0.58483   0.58078   0.00000  Uiso   1.00
H209   H     0.54649   0.50081   0.71198   0.00000  Uiso   1.00
H210   H     0.59518   0.56032   0.57305   0.00000  Uiso   1.00
H211   H     0.37500   0.66643   0.44481   0.00000  Uiso   1.00
H212   H     0.60305   0.45011   0.87713   0.00000  Uiso   1.00
H213   H     0.70569   0.57561   0.58417   0.00000  Uiso   1.00
H214   H     0.24140   0.79937   0.31374   0.00000  Uiso   1.00
H215   H     0.62075   0.91207   0.73247   0.00000  Uiso   1.00
H216   H     0.66477   0.84601   0.87200   0.00000  Uiso   1.00
H217   H     0.71346   0.90551   0.73307   0.00000  Uiso   1.00
H218   H     0.49328   0.01163   0.60483   0.00000  Uiso   1.00
H219   H     0.69905   0.73028   0.00702   0.00000  Uiso   1.00
H220   H     0.80169   0.85578   0.71405   0.00000  Uiso   1.00
H221   H     0.33740   0.07954   0.44362   0.00000  Uiso   1.00
O222   O     0.67801   0.54082   0.03113   0.00000  Uiso   1.00
O223   O     0.81265   0.70548   0.64676   0.00000  Uiso   1.00
O224   O     0.20351   0.99905   0.29197   0.00000  Uiso   1.00
N225   N     0.61959   0.52512   0.88855   0.00000  Uiso   1.00
N226   N     0.71556   0.64245   0.61466   0.00000  Uiso   1.00
N227   N     0.28149   0.85165   0.36182   0.00000  Uiso   1.00
N228   N     0.67125   0.67588   0.95843   0.00000  Uiso   1.00
N229   N     0.76722   0.79321   0.68455   0.00000  Uiso   1.00
N230   N     0.33314   0.00241   0.43170   0.00000  Uiso   1.00
C231   C     0.03431   0.15980   0.61553   0.00000  Uiso   1.00
C232   C     0.07043   0.15953   0.70785   0.00000  Uiso   1.00
C233   C     0.07203   0.07532   0.74654   0.00000  Uiso   1.00
C234   C     0.10784   0.09083   0.83156   0.00000  Uiso   1.00
C235   C     0.15893   0.07575   0.96813   0.00000  Uiso   1.00
C236   C     0.09689   0.19186   0.63238   0.00000  Uiso   1.00
C237   C     0.12073   0.13483   0.60760   0.00000  Uiso   1.00
C238   C     0.17881   0.17757   0.62908   0.00000  Uiso   1.00
C239   C     0.27094   0.21271   0.64842   0.00000  Uiso   1.00
C240   C     0.97726   0.24951   0.56270   0.00000  Uiso   1.00
C241   C     0.90051   0.24097   0.47933   0.00000  Uiso   1.00
C242   C     0.85787   0.33224   0.44214   0.00000  Uiso   1.00
C243   C     0.76426   0.45689   0.35330   0.00000  Uiso   1.00
C244   C     0.09506   0.33710   0.69772   0.00000  Uiso   1.00
C245   C     0.10343   0.25583   0.75249   0.00000  Uiso   1.00
C246   C     0.13924   0.27148   0.83747   0.00000  Uiso   1.00
C247   C     0.14089   0.18730   0.87628   0.00000  Uiso   1.00
C248   C     0.12989   0.28815   0.67702   0.00000  Uiso   1.00
C249   C     0.18794   0.33099   0.69853   0.00000  Uiso   1.00
C250   C     0.21187   0.27404   0.67380   0.00000  Uiso   1.00
C251   C     0.01025   0.34581   0.60734   0.00000  Uiso   1.00
C252   C     0.96773   0.43712   0.57027   0.00000  Uiso   1.00
C253   C     0.89093   0.42872   0.48686   0.00000  Uiso   1.00
H254   H     0.00863   0.08483   0.58078   0.00000  Uiso   1.00
H255   H     0.04649   0.00081   0.71198   0.00000  Uiso   1.00
H256   H     0.09518   0.06032   0.57305   0.00000  Uiso   1.00
H257   H     0.87500   0.16643   0.44481   0.00000  Uiso   1.00
H258   H     0.10305   0.95011   0.87713   0.00000  Uiso   1.00
H259   H     0.20569   0.07561   0.58417   0.00000  Uiso   1.00
H260   H     0.74140   0.29937   0.31374   0.00000  Uiso   1.00
H261   H     0.12075   0.41207   0.73247   0.00000  Uiso   1.00
H262   H     0.16477   0.34601   0.87200   0.00000  Uiso   1.00
H263   H     0.21346   0.40551   0.73307   0.00000  Uiso   1.00
H264   H     0.99328   0.51163   0.60483   0.00000  Uiso   1.00
H265   H     0.19905   0.23028   0.00702   0.00000  Uiso   1.00
H266   H     0.30169   0.35578   0.71405   0.00000  Uiso   1.00
H267   H     0.83740   0.57954   0.44362   0.00000  Uiso   1.00
O268   O     0.17801   0.04082   0.03113   0.00000  Uiso   1.00
O269   O     0.31265   0.20548   0.64676   0.00000  Uiso   1.00
O270   O     0.70351   0.49905   0.29197   0.00000  Uiso   1.00
N271   N     0.11959   0.02512   0.88855   0.00000  Uiso   1.00
N272   N     0.21556   0.14245   0.61466   0.00000  Uiso   1.00
N273   N     0.78149   0.35165   0.36182   0.00000  Uiso   1.00
N274   N     0.17125   0.17588   0.95843   0.00000  Uiso   1.00
N275   N     0.26722   0.29321   0.68455   0.00000  Uiso   1.00
N276   N     0.83314   0.50241   0.43170   0.00000  Uiso   1.00
C277   C     0.46569   0.65980   0.88447   0.00000  Uiso   1.00
C278   C     0.42957   0.65953   0.79215   0.00000  Uiso   1.00
C279   C     0.42797   0.57532   0.75346   0.00000  Uiso   1.00
C280   C     0.39216   0.59083   0.66844   0.00000  Uiso   1.00
C281   C     0.34107   0.57575   0.53187   0.00000  Uiso   1.00
C282   C     0.40311   0.69186   0.86762   0.00000  Uiso   1.00
C283   C     0.37927   0.63483   0.89240   0.00000  Uiso   1.00
C284   C     0.32119   0.67757   0.87092   0.00000  Uiso   1.00
C285   C     0.22906   0.71271   0.85158   0.00000  Uiso   1.00
C286   C     0.52274   0.74951   0.93730   0.00000  Uiso   1.00
C287   C     0.59949   0.74097   0.02067   0.00000  Uiso   1.00
C288   C     0.64213   0.83224   0.05786   0.00000  Uiso   1.00
C289   C     0.73574   0.95689   0.14670   0.00000  Uiso   1.00
C290   C     0.40494   0.83710   0.80228   0.00000  Uiso   1.00
C291   C     0.39657   0.75583   0.74751   0.00000  Uiso   1.00
C292   C     0.36076   0.77148   0.66253   0.00000  Uiso   1.00
C293   C     0.35911   0.68730   0.62372   0.00000  Uiso   1.00
C294   C     0.37011   0.78815   0.82298   0.00000  Uiso   1.00
C295   C     0.31206   0.83099   0.80147   0.00000  Uiso   1.00
C296   C     0.28813   0.77404   0.82620   0.00000  Uiso   1.00
C297   C     0.48975   0.84581   0.89266   0.00000  Uiso   1.00
C298   C     0.53227   0.93712   0.92973   0.00000  Uiso   1.00
C299   C     0.60907   0.92872   0.01314   0.00000  Uiso   1.00
H300   H     0.49137   0.58483   0.91922   0.00000  Uiso   1.00
H301   H     0.45351   0.50081   0.78802   0.00000  Uiso   1.00
H302   H     0.40482   0.56032   0.92695   0.00000  Uiso   1.00
H303   H     0.62500   0.66643   0.05519   0.00000  Uiso   1.00
H304   H     0.39695   0.45011   0.62287   0.00000  Uiso   1.00
H305   H     0.29431   0.57561   0.91583   0.00000  Uiso   1.00
H306   H     0.75860   0.79937   0.18626   0.00000  Uiso   1.00
H307   H     0.37925   0.91207   0.76753   0.00000  Uiso   1.00
H308   H     0.33523   0.84601   0.62800   0.00000  Uiso   1.00
H309   H     0.28654   0.90551   0.76693   0.00000  Uiso   1.00
H310   H     0.50672   0.01163   0.89517   0.00000  Uiso   1.00
H311   H     0.30095   0.73028   0.49298   0.00000  Uiso   1.00
H312   H     0.19831   0.85578   0.78595   0.00000  Uiso   1.00
H313   H     0.66260   0.07954   0.05638   0.00000  Uiso   1.00
O314   O     0.32199   0.54082   0.46887   0.00000  Uiso   1.00
O315   O     0.18735   0.70548   0.85324   0.00000  Uiso   1.00
O316   O     0.79649   0.99905   0.20803   0.00000  Uiso   1.00
N317   N     0.38041   0.52512   0.61145   0.00000  Uiso   1.00
N318   N     0.28444   0.64245   0.88534   0.00000  Uiso   1.00
N319   N     0.71851   0.85165   0.13818   0.00000  Uiso   1.00
N320   N     0.32875   0.67588   0.54157   0.00000  Uiso   1.00
N321   N     0.23278   0.79321   0.81545   0.00000  Uiso   1.00
N322   N     0.66686   0.00241   0.06830   0.00000  Uiso   1.00
C323   C     0.96569   0.15980   0.88447   0.00000  Uiso   1.00
C324   C     0.92957   0.15953   0.79215   0.00000  Uiso   1.00
C325   C     0.92797   0.07532   0.75346   0.00000  Uiso   1.00
C326   C     0.89216   0.09083   0.66844   0.00000  Uiso   1.00
C327   C     0.84107   0.07575   0.53187   0.00000  Uiso   1.00
C328   C     0.90311   0.19186   0.86762   0.00000  Uiso   1.00
C329   C     0.87927   0.13483   0.89240   0.00000  Uiso   1.00
C330   C     0.82119   0.17757   0.87092   0.00000  Uiso   1.00
C331   C     0.72906   0.21271   0.85158   0.00000  Uiso   1.00
C332   C     0.02274   0.24951   0.93730   0.00000  Uiso   1.00
C333   C     0.09949   0.24097   0.02067   0.00000  Uiso   1.00
C334   C     0.14213   0.33224   0.05786   0.00000  Uiso   1.00
C335   C     0.23574   0.45689   0.14670   0.00000  Uiso   1.00
C336   C     0.90494   0.33710   0.80228   0.00000  Uiso   1.00
C337   C     0.89657   0.25583   0.74751   0.00000  Uiso   1.00
C338   C     0.86076   0.27148   0.66253   0.00000  Uiso   1.00
C339   C     0.85911   0.18730   0.62372   0.00000  Uiso   1.00
C340   C     0.87011   0.28815   0.82298   0.00000  Uiso   1.00
C341   C     0.81206   0.33099   0.80147   0.00000  Uiso   1.00
C342   C     0.78813   0.27404   0.82620   0.00000  Uiso   1.00
C343   C     0.98975   0.34581   0.89266   0.00000  Uiso   1.00
C344   C     0.03227   0.43712   0.92973   0.00000  Uiso   1.00
C345   C     0.10907   0.42872   0.01314   0.00000  Uiso   1.00
H346   H     0.99137   0.08483   0.91922   0.00000  Uiso   1.00
H347   H     0.95351   0.00081   0.78802   0.00000  Uiso   1.00
H348   H     0.90482   0.06032   0.92695   0.00000  Uiso   1.00
H349   H     0.12500   0.16643   0.05519   0.00000  Uiso   1.00
H350   H     0.89695   0.95011   0.62287   0.00000  Uiso   1.00
H351   H     0.79431   0.07561   0.91583   0.00000  Uiso   1.00
H352   H     0.25860   0.29937   0.18626   0.00000  Uiso   1.00
H353   H     0.87925   0.41207   0.76753   0.00000  Uiso   1.00
H354   H     0.83523   0.34601   0.62800   0.00000  Uiso   1.00
H355   H     0.78654   0.40551   0.76693   0.00000  Uiso   1.00
H356   H     0.00672   0.51163   0.89517   0.00000  Uiso   1.00
H357   H     0.80095   0.23028   0.49298   0.00000  Uiso   1.00
H358   H     0.69831   0.35578   0.78595   0.00000  Uiso   1.00
H359   H     0.16260   0.57954   0.05638   0.00000  Uiso   1.00
O360   O     0.82199   0.04082   0.46887   0.00000  Uiso   1.00
O361   O     0.68735   0.20548   0.85324   0.00000  Uiso   1.00
O362   O     0.29649   0.49905   0.20803   0.00000  Uiso   1.00
N363   N     0.88041   0.02512   0.61145   0.00000  Uiso   1.00
N364   N     0.78444   0.14245   0.88534   0.00000  Uiso   1.00
N365   N     0.21851   0.35165   0.13818   0.00000  Uiso   1.00
N366   N     0.82875   0.17588   0.54157   0.00000  Uiso   1.00
N367   N     0.73278   0.29321   0.81545   0.00000  Uiso   1.00
N368   N     0.16686   0.50241   0.06830   0.00000  Uiso   1.00
