data_job_05746
_audit_creation_date              2018-12-19
_audit_creation_method            'Materials Studio'
_symmetry_space_group_name_H-M    'P1'
_symmetry_Int_Tables_number       1
_symmetry_cell_setting            triclinic
loop_
_symmetry_equiv_pos_as_xyz
  x,y,z
_cell_length_a                    19.0311
_cell_length_b                    14.7862
_cell_length_c                    20.2029
_cell_angle_alpha                 90.0000
_cell_angle_beta                  90.0000
_cell_angle_gamma                 90.0000
loop_
_atom_site_label
_atom_site_type_symbol
_atom_site_fract_x
_atom_site_fract_y
_atom_site_fract_z
_atom_site_U_iso_or_equiv
_atom_site_adp_type
_atom_site_occupancy
C1     C     0.82808   0.87239   0.00926   0.00000  Uiso   1.00
C2     C     0.77419   0.79951   0.99270   0.00000  Uiso   1.00
C3     C     0.70579   0.81467   0.97163   0.00000  Uiso   1.00
C4     C     0.66474   0.73898   0.95904   0.00000  Uiso   1.00
C5     C     0.57702   0.63913   0.93211   0.00000  Uiso   1.00
C6     C     0.85182   0.85360   0.08003   0.00000  Uiso   1.00
C7     C     0.84871   0.91424   0.13238   0.00000  Uiso   1.00
C8     C     0.87303   0.88408   0.19330   0.00000  Uiso   1.00
C9     C     0.90588   0.86824   0.30193   0.00000  Uiso   1.00
C10    C     0.89162   0.85348   0.96542   0.00000  Uiso   1.00
C11    C     0.92199   0.91404   0.92142   0.00000  Uiso   1.00
C12    C     0.97983   0.88378   0.88585   0.00000  Uiso   1.00
C13    C     0.07448   0.86776   0.81654   0.00000  Uiso   1.00
C14    C     0.87681   0.71101   0.02437   0.00000  Uiso   1.00
C15    C     0.80066   0.71185   0.00091   0.00000  Uiso   1.00
C16    C     0.75970   0.63611   0.98835   0.00000  Uiso   1.00
C17    C     0.69126   0.65116   0.96726   0.00000  Uiso   1.00
C18    C     0.87829   0.76594   0.08824   0.00000  Uiso   1.00
C19    C     0.90262   0.73569   0.14909   0.00000  Uiso   1.00
C20    C     0.89954   0.79627   0.20152   0.00000  Uiso   1.00
C21    C     0.91809   0.76582   0.97362   0.00000  Uiso   1.00
C22    C     0.97590   0.73547   0.93813   0.00000  Uiso   1.00
C23    C     0.00634   0.79597   0.89407   0.00000  Uiso   1.00
H24    H     0.80748   0.94064   0.00288   0.00000  Uiso   1.00
H25    H     0.68532   0.88252   0.96529   0.00000  Uiso   1.00
H26    H     0.82823   0.98208   0.12601   0.00000  Uiso   1.00
H27    H     0.90149   0.98186   0.91508   0.00000  Uiso   1.00
H28    H     0.56156   0.77942   0.92726   0.00000  Uiso   1.00
H29    H     0.86291   0.98936   0.26614   0.00000  Uiso   1.00
H30    H     0.01740   0.98891   0.82135   0.00000  Uiso   1.00
H31    H     0.89742   0.64276   0.03076   0.00000  Uiso   1.00
H32    H     0.78020   0.56828   0.99470   0.00000  Uiso   1.00
H33    H     0.92311   0.66785   0.15542   0.00000  Uiso   1.00
H34    H     0.99637   0.66764   0.94449   0.00000  Uiso   1.00
H35    H     0.63856   0.52437   0.95113   0.00000  Uiso   1.00
H36    H     0.93991   0.73432   0.29002   0.00000  Uiso   1.00
H37    H     0.09440   0.73387   0.84522   0.00000  Uiso   1.00
O38    O     0.52132   0.60828   0.91499   0.00000  Uiso   1.00
O39    O     0.91669   0.88372   0.35959   0.00000  Uiso   1.00
O40    O     0.11938   0.88314   0.77603   0.00000  Uiso   1.00
N41    N     0.59577   0.72961   0.93782   0.00000  Uiso   1.00
N42    N     0.87750   0.92589   0.25465   0.00000  Uiso   1.00
N43    N     0.02196   0.92548   0.83882   0.00000  Uiso   1.00
N44    N     0.63721   0.59238   0.95066   0.00000  Uiso   1.00
N45    N     0.91894   0.78866   0.26750   0.00000  Uiso   1.00
N46    N     0.06339   0.78825   0.85167   0.00000  Uiso   1.00
C47    C     0.67192   0.12761   0.00926   0.00000  Uiso   1.00
C48    C     0.72581   0.20049   0.99270   0.00000  Uiso   1.00
C49    C     0.79421   0.18533   0.97163   0.00000  Uiso   1.00
C50    C     0.83526   0.26102   0.95904   0.00000  Uiso   1.00
C51    C     0.92298   0.36087   0.93211   0.00000  Uiso   1.00
C52    C     0.64818   0.14640   0.08003   0.00000  Uiso   1.00
C53    C     0.65129   0.08576   0.13238   0.00000  Uiso   1.00
C54    C     0.62697   0.11592   0.19330   0.00000  Uiso   1.00
C55    C     0.59412   0.13176   0.30193   0.00000  Uiso   1.00
C56    C     0.60838   0.14652   0.96542   0.00000  Uiso   1.00
C57    C     0.57801   0.08596   0.92142   0.00000  Uiso   1.00
C58    C     0.52017   0.11622   0.88585   0.00000  Uiso   1.00
C59    C     0.42552   0.13224   0.81654   0.00000  Uiso   1.00
C60    C     0.62319   0.28899   0.02437   0.00000  Uiso   1.00
C61    C     0.69934   0.28815   0.00091   0.00000  Uiso   1.00
C62    C     0.74030   0.36389   0.98835   0.00000  Uiso   1.00
C63    C     0.80874   0.34884   0.96726   0.00000  Uiso   1.00
C64    C     0.62171   0.23406   0.08824   0.00000  Uiso   1.00
C65    C     0.59738   0.26431   0.14909   0.00000  Uiso   1.00
C66    C     0.60046   0.20373   0.20152   0.00000  Uiso   1.00
C67    C     0.58191   0.23418   0.97362   0.00000  Uiso   1.00
C68    C     0.52410   0.26453   0.93813   0.00000  Uiso   1.00
C69    C     0.49366   0.20403   0.89407   0.00000  Uiso   1.00
H70    H     0.69252   0.05936   0.00288   0.00000  Uiso   1.00
H71    H     0.81468   0.11748   0.96529   0.00000  Uiso   1.00
H72    H     0.67177   0.01792   0.12601   0.00000  Uiso   1.00
H73    H     0.59851   0.01814   0.91508   0.00000  Uiso   1.00
H74    H     0.93844   0.22058   0.92726   0.00000  Uiso   1.00
H75    H     0.63709   0.01064   0.26614   0.00000  Uiso   1.00
H76    H     0.48260   0.01109   0.82135   0.00000  Uiso   1.00
H77    H     0.60258   0.35724   0.03076   0.00000  Uiso   1.00
H78    H     0.71980   0.43172   0.99470   0.00000  Uiso   1.00
H79    H     0.57689   0.33215   0.15542   0.00000  Uiso   1.00
H80    H     0.50363   0.33236   0.94449   0.00000  Uiso   1.00
H81    H     0.86144   0.47563   0.95113   0.00000  Uiso   1.00
H82    H     0.56009   0.26568   0.29002   0.00000  Uiso   1.00
H83    H     0.40560   0.26613   0.84522   0.00000  Uiso   1.00
O84    O     0.97868   0.39172   0.91499   0.00000  Uiso   1.00
O85    O     0.58331   0.11628   0.35959   0.00000  Uiso   1.00
O86    O     0.38062   0.11686   0.77603   0.00000  Uiso   1.00
N87    N     0.90423   0.27039   0.93782   0.00000  Uiso   1.00
N88    N     0.62250   0.07411   0.25465   0.00000  Uiso   1.00
N89    N     0.47804   0.07452   0.83882   0.00000  Uiso   1.00
N90    N     0.86279   0.40762   0.95066   0.00000  Uiso   1.00
N91    N     0.58106   0.21134   0.26750   0.00000  Uiso   1.00
N92    N     0.43661   0.21175   0.85167   0.00000  Uiso   1.00
C93    C     0.17192   0.87239   0.49074   0.00000  Uiso   1.00
C94    C     0.22581   0.79951   0.50730   0.00000  Uiso   1.00
C95    C     0.29421   0.81467   0.52837   0.00000  Uiso   1.00
C96    C     0.33526   0.73898   0.54096   0.00000  Uiso   1.00
C97    C     0.42298   0.63913   0.56789   0.00000  Uiso   1.00
C98    C     0.14818   0.85360   0.41997   0.00000  Uiso   1.00
C99    C     0.15129   0.91424   0.36762   0.00000  Uiso   1.00
C100   C     0.12697   0.88408   0.30670   0.00000  Uiso   1.00
C101   C     0.09412   0.86824   0.19807   0.00000  Uiso   1.00
C102   C     0.10838   0.85348   0.53458   0.00000  Uiso   1.00
C103   C     0.07801   0.91404   0.57858   0.00000  Uiso   1.00
C104   C     0.02017   0.88378   0.61415   0.00000  Uiso   1.00
C105   C     0.92552   0.86776   0.68346   0.00000  Uiso   1.00
C106   C     0.12319   0.71101   0.47563   0.00000  Uiso   1.00
C107   C     0.19934   0.71185   0.49909   0.00000  Uiso   1.00
C108   C     0.24030   0.63611   0.51165   0.00000  Uiso   1.00
C109   C     0.30874   0.65116   0.53274   0.00000  Uiso   1.00
C110   C     0.12171   0.76594   0.41176   0.00000  Uiso   1.00
C111   C     0.09738   0.73569   0.35091   0.00000  Uiso   1.00
C112   C     0.10046   0.79627   0.29848   0.00000  Uiso   1.00
C113   C     0.08191   0.76582   0.52638   0.00000  Uiso   1.00
C114   C     0.02410   0.73547   0.56187   0.00000  Uiso   1.00
C115   C     0.99366   0.79597   0.60593   0.00000  Uiso   1.00
H116   H     0.19252   0.94064   0.49712   0.00000  Uiso   1.00
H117   H     0.31468   0.88252   0.53471   0.00000  Uiso   1.00
H118   H     0.17177   0.98208   0.37399   0.00000  Uiso   1.00
H119   H     0.09851   0.98186   0.58492   0.00000  Uiso   1.00
H120   H     0.43844   0.77942   0.57274   0.00000  Uiso   1.00
H121   H     0.13709   0.98936   0.23386   0.00000  Uiso   1.00
H122   H     0.98260   0.98891   0.67865   0.00000  Uiso   1.00
H123   H     0.10258   0.64276   0.46924   0.00000  Uiso   1.00
H124   H     0.21980   0.56828   0.50530   0.00000  Uiso   1.00
H125   H     0.07689   0.66785   0.34458   0.00000  Uiso   1.00
H126   H     0.00363   0.66764   0.55551   0.00000  Uiso   1.00
H127   H     0.36144   0.52437   0.54887   0.00000  Uiso   1.00
H128   H     0.06009   0.73432   0.20998   0.00000  Uiso   1.00
H129   H     0.90560   0.73387   0.65478   0.00000  Uiso   1.00
O130   O     0.47868   0.60828   0.58501   0.00000  Uiso   1.00
O131   O     0.08331   0.88372   0.14041   0.00000  Uiso   1.00
O132   O     0.88062   0.88314   0.72397   0.00000  Uiso   1.00
N133   N     0.40423   0.72961   0.56218   0.00000  Uiso   1.00
N134   N     0.12250   0.92589   0.24535   0.00000  Uiso   1.00
N135   N     0.97804   0.92548   0.66118   0.00000  Uiso   1.00
N136   N     0.36279   0.59238   0.54934   0.00000  Uiso   1.00
N137   N     0.08106   0.78866   0.23250   0.00000  Uiso   1.00
N138   N     0.93661   0.78825   0.64833   0.00000  Uiso   1.00
C139   C     0.32808   0.12761   0.49074   0.00000  Uiso   1.00
C140   C     0.27419   0.20049   0.50730   0.00000  Uiso   1.00
C141   C     0.20579   0.18533   0.52837   0.00000  Uiso   1.00
C142   C     0.16474   0.26102   0.54096   0.00000  Uiso   1.00
C143   C     0.07702   0.36087   0.56789   0.00000  Uiso   1.00
C144   C     0.35182   0.14640   0.41997   0.00000  Uiso   1.00
C145   C     0.34871   0.08576   0.36762   0.00000  Uiso   1.00
C146   C     0.37303   0.11592   0.30670   0.00000  Uiso   1.00
C147   C     0.40588   0.13176   0.19807   0.00000  Uiso   1.00
C148   C     0.39162   0.14652   0.53458   0.00000  Uiso   1.00
C149   C     0.42199   0.08596   0.57858   0.00000  Uiso   1.00
C150   C     0.47983   0.11622   0.61415   0.00000  Uiso   1.00
C151   C     0.57448   0.13224   0.68346   0.00000  Uiso   1.00
C152   C     0.37681   0.28899   0.47563   0.00000  Uiso   1.00
C153   C     0.30066   0.28815   0.49909   0.00000  Uiso   1.00
C154   C     0.25970   0.36389   0.51165   0.00000  Uiso   1.00
C155   C     0.19126   0.34884   0.53274   0.00000  Uiso   1.00
C156   C     0.37829   0.23406   0.41176   0.00000  Uiso   1.00
C157   C     0.40262   0.26431   0.35091   0.00000  Uiso   1.00
C158   C     0.39954   0.20373   0.29848   0.00000  Uiso   1.00
C159   C     0.41809   0.23418   0.52638   0.00000  Uiso   1.00
C160   C     0.47590   0.26453   0.56187   0.00000  Uiso   1.00
C161   C     0.50634   0.20403   0.60593   0.00000  Uiso   1.00
H162   H     0.30748   0.05936   0.49712   0.00000  Uiso   1.00
H163   H     0.18532   0.11748   0.53471   0.00000  Uiso   1.00
H164   H     0.32823   0.01792   0.37399   0.00000  Uiso   1.00
H165   H     0.40149   0.01814   0.58492   0.00000  Uiso   1.00
H166   H     0.06156   0.22058   0.57274   0.00000  Uiso   1.00
H167   H     0.36291   0.01064   0.23386   0.00000  Uiso   1.00
H168   H     0.51740   0.01109   0.67865   0.00000  Uiso   1.00
H169   H     0.39742   0.35724   0.46924   0.00000  Uiso   1.00
H170   H     0.28020   0.43172   0.50530   0.00000  Uiso   1.00
H171   H     0.42311   0.33215   0.34458   0.00000  Uiso   1.00
H172   H     0.49637   0.33236   0.55551   0.00000  Uiso   1.00
H173   H     0.13856   0.47563   0.54887   0.00000  Uiso   1.00
H174   H     0.43991   0.26568   0.20998   0.00000  Uiso   1.00
H175   H     0.59440   0.26613   0.65478   0.00000  Uiso   1.00
O176   O     0.02132   0.39172   0.58501   0.00000  Uiso   1.00
O177   O     0.41669   0.11628   0.14041   0.00000  Uiso   1.00
O178   O     0.61938   0.11686   0.72397   0.00000  Uiso   1.00
N179   N     0.09577   0.27039   0.56218   0.00000  Uiso   1.00
N180   N     0.37750   0.07411   0.24535   0.00000  Uiso   1.00
N181   N     0.52196   0.07452   0.66118   0.00000  Uiso   1.00
N182   N     0.13721   0.40762   0.54934   0.00000  Uiso   1.00
N183   N     0.41894   0.21134   0.23250   0.00000  Uiso   1.00
N184   N     0.56339   0.21175   0.64833   0.00000  Uiso   1.00
C185   C     0.17192   0.12761   0.99074   0.00000  Uiso   1.00
C186   C     0.22581   0.20049   0.00730   0.00000  Uiso   1.00
C187   C     0.29421   0.18533   0.02837   0.00000  Uiso   1.00
C188   C     0.33526   0.26102   0.04096   0.00000  Uiso   1.00
C189   C     0.42298   0.36087   0.06789   0.00000  Uiso   1.00
C190   C     0.14818   0.14640   0.91997   0.00000  Uiso   1.00
C191   C     0.15129   0.08576   0.86762   0.00000  Uiso   1.00
C192   C     0.12697   0.11592   0.80670   0.00000  Uiso   1.00
C193   C     0.09412   0.13176   0.69807   0.00000  Uiso   1.00
C194   C     0.10838   0.14652   0.03458   0.00000  Uiso   1.00
C195   C     0.07801   0.08596   0.07858   0.00000  Uiso   1.00
C196   C     0.02017   0.11622   0.11415   0.00000  Uiso   1.00
C197   C     0.92552   0.13224   0.18346   0.00000  Uiso   1.00
C198   C     0.12319   0.28899   0.97563   0.00000  Uiso   1.00
C199   C     0.19934   0.28815   0.99909   0.00000  Uiso   1.00
C200   C     0.24030   0.36389   0.01165   0.00000  Uiso   1.00
C201   C     0.30874   0.34884   0.03274   0.00000  Uiso   1.00
C202   C     0.12171   0.23406   0.91176   0.00000  Uiso   1.00
C203   C     0.09738   0.26431   0.85091   0.00000  Uiso   1.00
C204   C     0.10046   0.20373   0.79848   0.00000  Uiso   1.00
C205   C     0.08191   0.23418   0.02638   0.00000  Uiso   1.00
C206   C     0.02410   0.26453   0.06187   0.00000  Uiso   1.00
C207   C     0.99366   0.20403   0.10593   0.00000  Uiso   1.00
H208   H     0.19252   0.05936   0.99712   0.00000  Uiso   1.00
H209   H     0.31468   0.11748   0.03471   0.00000  Uiso   1.00
H210   H     0.17177   0.01792   0.87399   0.00000  Uiso   1.00
H211   H     0.09851   0.01814   0.08492   0.00000  Uiso   1.00
H212   H     0.43844   0.22058   0.07274   0.00000  Uiso   1.00
H213   H     0.13709   0.01064   0.73386   0.00000  Uiso   1.00
H214   H     0.98260   0.01109   0.17865   0.00000  Uiso   1.00
H215   H     0.10258   0.35724   0.96924   0.00000  Uiso   1.00
H216   H     0.21980   0.43172   0.00530   0.00000  Uiso   1.00
H217   H     0.07689   0.33215   0.84458   0.00000  Uiso   1.00
H218   H     0.00363   0.33236   0.05551   0.00000  Uiso   1.00
H219   H     0.36144   0.47563   0.04887   0.00000  Uiso   1.00
H220   H     0.06009   0.26568   0.70998   0.00000  Uiso   1.00
H221   H     0.90560   0.26613   0.15478   0.00000  Uiso   1.00
O222   O     0.47868   0.39172   0.08501   0.00000  Uiso   1.00
O223   O     0.08331   0.11628   0.64041   0.00000  Uiso   1.00
O224   O     0.88062   0.11686   0.22397   0.00000  Uiso   1.00
N225   N     0.40423   0.27039   0.06218   0.00000  Uiso   1.00
N226   N     0.12250   0.07411   0.74535   0.00000  Uiso   1.00
N227   N     0.97804   0.07452   0.16118   0.00000  Uiso   1.00
N228   N     0.36279   0.40762   0.04934   0.00000  Uiso   1.00
N229   N     0.08106   0.21134   0.73250   0.00000  Uiso   1.00
N230   N     0.93661   0.21175   0.14833   0.00000  Uiso   1.00
C231   C     0.32808   0.87239   0.99074   0.00000  Uiso   1.00
C232   C     0.27419   0.79951   0.00730   0.00000  Uiso   1.00
C233   C     0.20579   0.81467   0.02837   0.00000  Uiso   1.00
C234   C     0.16474   0.73898   0.04096   0.00000  Uiso   1.00
C235   C     0.07702   0.63913   0.06789   0.00000  Uiso   1.00
C236   C     0.35182   0.85360   0.91997   0.00000  Uiso   1.00
C237   C     0.34871   0.91424   0.86762   0.00000  Uiso   1.00
C238   C     0.37303   0.88408   0.80670   0.00000  Uiso   1.00
C239   C     0.40588   0.86824   0.69807   0.00000  Uiso   1.00
C240   C     0.39162   0.85348   0.03458   0.00000  Uiso   1.00
C241   C     0.42199   0.91404   0.07858   0.00000  Uiso   1.00
C242   C     0.47983   0.88378   0.11415   0.00000  Uiso   1.00
C243   C     0.57448   0.86776   0.18346   0.00000  Uiso   1.00
C244   C     0.37681   0.71101   0.97563   0.00000  Uiso   1.00
C245   C     0.30066   0.71185   0.99909   0.00000  Uiso   1.00
C246   C     0.25970   0.63611   0.01165   0.00000  Uiso   1.00
C247   C     0.19126   0.65116   0.03274   0.00000  Uiso   1.00
C248   C     0.37829   0.76594   0.91176   0.00000  Uiso   1.00
C249   C     0.40262   0.73569   0.85091   0.00000  Uiso   1.00
C250   C     0.39954   0.79627   0.79848   0.00000  Uiso   1.00
C251   C     0.41809   0.76582   0.02638   0.00000  Uiso   1.00
C252   C     0.47590   0.73547   0.06187   0.00000  Uiso   1.00
C253   C     0.50634   0.79597   0.10593   0.00000  Uiso   1.00
H254   H     0.30748   0.94064   0.99712   0.00000  Uiso   1.00
H255   H     0.18532   0.88252   0.03471   0.00000  Uiso   1.00
H256   H     0.32823   0.98208   0.87399   0.00000  Uiso   1.00
H257   H     0.40149   0.98186   0.08492   0.00000  Uiso   1.00
H258   H     0.06156   0.77942   0.07274   0.00000  Uiso   1.00
H259   H     0.36291   0.98936   0.73386   0.00000  Uiso   1.00
H260   H     0.51740   0.98891   0.17865   0.00000  Uiso   1.00
H261   H     0.39742   0.64276   0.96924   0.00000  Uiso   1.00
H262   H     0.28020   0.56828   0.00530   0.00000  Uiso   1.00
H263   H     0.42311   0.66785   0.84458   0.00000  Uiso   1.00
H264   H     0.49637   0.66764   0.05551   0.00000  Uiso   1.00
H265   H     0.13856   0.52437   0.04887   0.00000  Uiso   1.00
H266   H     0.43991   0.73432   0.70998   0.00000  Uiso   1.00
H267   H     0.59440   0.73387   0.15478   0.00000  Uiso   1.00
O268   O     0.02132   0.60828   0.08501   0.00000  Uiso   1.00
O269   O     0.41669   0.88372   0.64041   0.00000  Uiso   1.00
O270   O     0.61938   0.88314   0.22397   0.00000  Uiso   1.00
N271   N     0.09577   0.72961   0.06218   0.00000  Uiso   1.00
N272   N     0.37750   0.92589   0.74535   0.00000  Uiso   1.00
N273   N     0.52196   0.92548   0.16118   0.00000  Uiso   1.00
N274   N     0.13721   0.59238   0.04934   0.00000  Uiso   1.00
N275   N     0.41894   0.78866   0.73250   0.00000  Uiso   1.00
N276   N     0.56339   0.78825   0.14833   0.00000  Uiso   1.00
C277   C     0.82808   0.12761   0.50926   0.00000  Uiso   1.00
C278   C     0.77419   0.20049   0.49270   0.00000  Uiso   1.00
C279   C     0.70579   0.18533   0.47163   0.00000  Uiso   1.00
C280   C     0.66474   0.26102   0.45904   0.00000  Uiso   1.00
C281   C     0.57702   0.36087   0.43211   0.00000  Uiso   1.00
C282   C     0.85182   0.14640   0.58003   0.00000  Uiso   1.00
C283   C     0.84871   0.08576   0.63238   0.00000  Uiso   1.00
C284   C     0.87303   0.11592   0.69330   0.00000  Uiso   1.00
C285   C     0.90588   0.13176   0.80193   0.00000  Uiso   1.00
C286   C     0.89162   0.14652   0.46542   0.00000  Uiso   1.00
C287   C     0.92199   0.08596   0.42142   0.00000  Uiso   1.00
C288   C     0.97983   0.11622   0.38585   0.00000  Uiso   1.00
C289   C     0.07448   0.13224   0.31654   0.00000  Uiso   1.00
C290   C     0.87681   0.28899   0.52437   0.00000  Uiso   1.00
C291   C     0.80066   0.28815   0.50091   0.00000  Uiso   1.00
C292   C     0.75970   0.36389   0.48835   0.00000  Uiso   1.00
C293   C     0.69126   0.34884   0.46726   0.00000  Uiso   1.00
C294   C     0.87829   0.23406   0.58824   0.00000  Uiso   1.00
C295   C     0.90262   0.26431   0.64909   0.00000  Uiso   1.00
C296   C     0.89954   0.20373   0.70152   0.00000  Uiso   1.00
C297   C     0.91809   0.23418   0.47362   0.00000  Uiso   1.00
C298   C     0.97590   0.26453   0.43813   0.00000  Uiso   1.00
C299   C     0.00634   0.20403   0.39407   0.00000  Uiso   1.00
H300   H     0.80748   0.05936   0.50288   0.00000  Uiso   1.00
H301   H     0.68532   0.11748   0.46529   0.00000  Uiso   1.00
H302   H     0.82823   0.01792   0.62601   0.00000  Uiso   1.00
H303   H     0.90149   0.01814   0.41508   0.00000  Uiso   1.00
H304   H     0.56156   0.22058   0.42726   0.00000  Uiso   1.00
H305   H     0.86291   0.01064   0.76614   0.00000  Uiso   1.00
H306   H     0.01740   0.01109   0.32135   0.00000  Uiso   1.00
H307   H     0.89742   0.35724   0.53076   0.00000  Uiso   1.00
H308   H     0.78020   0.43172   0.49470   0.00000  Uiso   1.00
H309   H     0.92311   0.33215   0.65542   0.00000  Uiso   1.00
H310   H     0.99637   0.33236   0.44449   0.00000  Uiso   1.00
H311   H     0.63856   0.47563   0.45113   0.00000  Uiso   1.00
H312   H     0.93991   0.26568   0.79002   0.00000  Uiso   1.00
H313   H     0.09440   0.26613   0.34522   0.00000  Uiso   1.00
O314   O     0.52132   0.39172   0.41499   0.00000  Uiso   1.00
O315   O     0.91669   0.11628   0.85959   0.00000  Uiso   1.00
O316   O     0.11938   0.11686   0.27603   0.00000  Uiso   1.00
N317   N     0.59577   0.27039   0.43782   0.00000  Uiso   1.00
N318   N     0.87750   0.07411   0.75465   0.00000  Uiso   1.00
N319   N     0.02196   0.07452   0.33882   0.00000  Uiso   1.00
N320   N     0.63721   0.40762   0.45066   0.00000  Uiso   1.00
N321   N     0.91894   0.21134   0.76750   0.00000  Uiso   1.00
N322   N     0.06339   0.21175   0.35167   0.00000  Uiso   1.00
C323   C     0.67192   0.87239   0.50926   0.00000  Uiso   1.00
C324   C     0.72581   0.79951   0.49270   0.00000  Uiso   1.00
C325   C     0.79421   0.81467   0.47163   0.00000  Uiso   1.00
C326   C     0.83526   0.73898   0.45904   0.00000  Uiso   1.00
C327   C     0.92298   0.63913   0.43211   0.00000  Uiso   1.00
C328   C     0.64818   0.85360   0.58003   0.00000  Uiso   1.00
C329   C     0.65129   0.91424   0.63238   0.00000  Uiso   1.00
C330   C     0.62697   0.88408   0.69330   0.00000  Uiso   1.00
C331   C     0.59412   0.86824   0.80193   0.00000  Uiso   1.00
C332   C     0.60838   0.85348   0.46542   0.00000  Uiso   1.00
C333   C     0.57801   0.91404   0.42142   0.00000  Uiso   1.00
C334   C     0.52017   0.88378   0.38585   0.00000  Uiso   1.00
C335   C     0.42552   0.86776   0.31654   0.00000  Uiso   1.00
C336   C     0.62319   0.71101   0.52437   0.00000  Uiso   1.00
C337   C     0.69934   0.71185   0.50091   0.00000  Uiso   1.00
C338   C     0.74030   0.63611   0.48835   0.00000  Uiso   1.00
C339   C     0.80874   0.65116   0.46726   0.00000  Uiso   1.00
C340   C     0.62171   0.76594   0.58824   0.00000  Uiso   1.00
C341   C     0.59738   0.73569   0.64909   0.00000  Uiso   1.00
C342   C     0.60046   0.79627   0.70152   0.00000  Uiso   1.00
C343   C     0.58191   0.76582   0.47362   0.00000  Uiso   1.00
C344   C     0.52410   0.73547   0.43813   0.00000  Uiso   1.00
C345   C     0.49366   0.79597   0.39407   0.00000  Uiso   1.00
H346   H     0.69252   0.94064   0.50288   0.00000  Uiso   1.00
H347   H     0.81468   0.88252   0.46529   0.00000  Uiso   1.00
H348   H     0.67177   0.98208   0.62601   0.00000  Uiso   1.00
H349   H     0.59851   0.98186   0.41508   0.00000  Uiso   1.00
H350   H     0.93844   0.77942   0.42726   0.00000  Uiso   1.00
H351   H     0.63709   0.98936   0.76614   0.00000  Uiso   1.00
H352   H     0.48260   0.98891   0.32135   0.00000  Uiso   1.00
H353   H     0.60258   0.64276   0.53076   0.00000  Uiso   1.00
H354   H     0.71980   0.56828   0.49470   0.00000  Uiso   1.00
H355   H     0.57689   0.66785   0.65542   0.00000  Uiso   1.00
H356   H     0.50363   0.66764   0.44449   0.00000  Uiso   1.00
H357   H     0.86144   0.52437   0.45113   0.00000  Uiso   1.00
H358   H     0.56009   0.73432   0.79002   0.00000  Uiso   1.00
H359   H     0.40560   0.73387   0.34522   0.00000  Uiso   1.00
O360   O     0.97868   0.60828   0.41499   0.00000  Uiso   1.00
O361   O     0.58331   0.88372   0.85959   0.00000  Uiso   1.00
O362   O     0.38062   0.88314   0.27603   0.00000  Uiso   1.00
N363   N     0.90423   0.72961   0.43782   0.00000  Uiso   1.00
N364   N     0.62250   0.92589   0.75465   0.00000  Uiso   1.00
N365   N     0.47804   0.92548   0.33882   0.00000  Uiso   1.00
N366   N     0.86279   0.59238   0.45066   0.00000  Uiso   1.00
N367   N     0.58106   0.78866   0.76750   0.00000  Uiso   1.00
N368   N     0.43661   0.78825   0.35167   0.00000  Uiso   1.00
