data_job_04529
_audit_creation_date              2018-12-19
_audit_creation_method            'Materials Studio'
_symmetry_space_group_name_H-M    'P1'
_symmetry_Int_Tables_number       1
_symmetry_cell_setting            triclinic
loop_
_symmetry_equiv_pos_as_xyz
  x,y,z
_cell_length_a                    12.1210
_cell_length_b                    22.5542
_cell_length_c                    21.7749
_cell_angle_alpha                 90.0000
_cell_angle_beta                  124.2024
_cell_angle_gamma                 90.0000
loop_
_atom_site_label
_atom_site_type_symbol
_atom_site_fract_x
_atom_site_fract_y
_atom_site_fract_z
_atom_site_U_iso_or_equiv
_atom_site_adp_type
_atom_site_occupancy
C1     C     0.47523   0.68240   0.62503   0.00000  Uiso   1.00
C2     C     0.56447   0.63462   0.62526   0.00000  Uiso   1.00
C3     C     0.63722   0.63976   0.59406   0.00000  Uiso   1.00
C4     C     0.71275   0.59104   0.60013   0.00000  Uiso   1.00
C5     C     0.85087   0.52474   0.59498   0.00000  Uiso   1.00
C6     C     0.33774   0.65429   0.58906   0.00000  Uiso   1.00
C7     C     0.21985   0.67598   0.52743   0.00000  Uiso   1.00
C8     C     0.10452   0.64381   0.50303   0.00000  Uiso   1.00
C9     C     0.89062   0.60807   0.44171   0.00000  Uiso   1.00
C10    C     0.52675   0.69273   0.70617   0.00000  Uiso   1.00
C11    C     0.56776   0.74673   0.74300   0.00000  Uiso   1.00
C12    C     0.61154   0.74693   0.81720   0.00000  Uiso   1.00
C13    C     0.69111   0.77087   0.93771   0.00000  Uiso   1.00
C14    C     0.48002   0.58672   0.69128   0.00000  Uiso   1.00
C15    C     0.56706   0.58265   0.66124   0.00000  Uiso   1.00
C16    C     0.64252   0.53390   0.66736   0.00000  Uiso   1.00
C17    C     0.71537   0.53897   0.63618   0.00000  Uiso   1.00
C18    C     0.34033   0.60232   0.62504   0.00000  Uiso   1.00
C19    C     0.22515   0.57012   0.60073   0.00000  Uiso   1.00
C20    C     0.10712   0.59175   0.53908   0.00000  Uiso   1.00
C21    C     0.52936   0.64075   0.74216   0.00000  Uiso   1.00
C22    C     0.57307   0.64087   0.81630   0.00000  Uiso   1.00
C23    C     0.61414   0.69487   0.85325   0.00000  Uiso   1.00
H24    H     0.47320   0.72286   0.59701   0.00000  Uiso   1.00
H25    H     0.63517   0.67999   0.56621   0.00000  Uiso   1.00
H26    H     0.21787   0.71620   0.49960   0.00000  Uiso   1.00
H27    H     0.56573   0.78694   0.71514   0.00000  Uiso   1.00
H28    H     0.81586   0.60953   0.54791   0.00000  Uiso   1.00
H29    H     0.93595   0.68589   0.40746   0.00000  Uiso   1.00
H30    H     0.66948   0.83507   0.86198   0.00000  Uiso   1.00
H31    H     0.48204   0.54626   0.71930   0.00000  Uiso   1.00
H32    H     0.64451   0.49369   0.69521   0.00000  Uiso   1.00
H33    H     0.22720   0.52990   0.62859   0.00000  Uiso   1.00
H34    H     0.57506   0.60064   0.84413   0.00000  Uiso   1.00
H35    H     0.82343   0.45832   0.65261   0.00000  Uiso   1.00
H36    H     0.94351   0.53469   0.51216   0.00000  Uiso   1.00
H37    H     0.67706   0.68386   0.96667   0.00000  Uiso   1.00
O38    O     0.92632   0.50252   0.58219   0.00000  Uiso   1.00
O39    O     0.77191   0.60272   0.39793   0.00000  Uiso   1.00
O40    O     0.73430   0.79843   0.99424   0.00000  Uiso   1.00
N41    N     0.79536   0.58116   0.57587   0.00000  Uiso   1.00
N42    N     0.97270   0.65255   0.44455   0.00000  Uiso   1.00
N43    N     0.65846   0.79202   0.86948   0.00000  Uiso   1.00
N44    N     0.79944   0.49979   0.63221   0.00000  Uiso   1.00
N45    N     0.97678   0.57119   0.50089   0.00000  Uiso   1.00
N46    N     0.66254   0.71066   0.92581   0.00000  Uiso   1.00
C47    C     0.97368   0.81813   0.61951   0.00000  Uiso   1.00
C48    C     0.88404   0.86631   0.61812   0.00000  Uiso   1.00
C49    C     0.74841   0.86096   0.58718   0.00000  Uiso   1.00
C50    C     0.68424   0.91012   0.59158   0.00000  Uiso   1.00
C51    C     0.53452   0.97694   0.58420   0.00000  Uiso   1.00
C52    C     0.03786   0.84496   0.58250   0.00000  Uiso   1.00
C53    C     0.03158   0.82165   0.52162   0.00000  Uiso   1.00
C54    C     0.09691   0.85284   0.49604   0.00000  Uiso   1.00
C55    C     0.18609   0.88649   0.43340   0.00000  Uiso   1.00
C56    C     0.08632   0.80948   0.70096   0.00000  Uiso   1.00
C57    C     0.12081   0.75634   0.73967   0.00000  Uiso   1.00
C58    C     0.22696   0.75765   0.81382   0.00000  Uiso   1.00
C59    C     0.39137   0.73622   0.93510   0.00000  Uiso   1.00
C60    C     0.10089   0.91497   0.68234   0.00000  Uiso   1.00
C61    C     0.95314   0.91891   0.65225   0.00000  Uiso   1.00
C62    C     0.88915   0.96809   0.65670   0.00000  Uiso   1.00
C63    C     0.75345   0.96281   0.62577   0.00000  Uiso   1.00
C64    C     0.10696   0.89756   0.61663   0.00000  Uiso   1.00
C65    C     0.17232   0.92879   0.59114   0.00000  Uiso   1.00
C66    C     0.16613   0.90553   0.53023   0.00000  Uiso   1.00
C67    C     0.15542   0.86208   0.73509   0.00000  Uiso   1.00
C68    C     0.26154   0.86348   0.80919   0.00000  Uiso   1.00
C69    C     0.29618   0.81035   0.84801   0.00000  Uiso   1.00
H70    H     0.91990   0.77718   0.59293   0.00000  Uiso   1.00
H71    H     0.69497   0.82025   0.56077   0.00000  Uiso   1.00
H72    H     0.97811   0.78094   0.49523   0.00000  Uiso   1.00
H73    H     0.06732   0.71565   0.71324   0.00000  Uiso   1.00
H74    H     0.47607   0.89119   0.54013   0.00000  Uiso   1.00
H75    H     0.07312   0.80831   0.40195   0.00000  Uiso   1.00
H76    H     0.26123   0.67061   0.86168   0.00000  Uiso   1.00
H77    H     0.15469   0.95592   0.70891   0.00000  Uiso   1.00
H78    H     0.94265   0.00879   0.68311   0.00000  Uiso   1.00
H79    H     0.22578   0.96948   0.61757   0.00000  Uiso   1.00
H80    H     0.31499   0.90419   0.83558   0.00000  Uiso   1.00
H81    H     0.67709   0.04422   0.63943   0.00000  Uiso   1.00
H82    H     0.27414   0.96133   0.50124   0.00000  Uiso   1.00
H83    H     0.46225   0.82364   0.96098   0.00000  Uiso   1.00
O84    O     0.43285   0.99927   0.57069   0.00000  Uiso   1.00
O85    O     0.21617   0.89052   0.38941   0.00000  Uiso   1.00
O86    O     0.46296   0.70987   0.99257   0.00000  Uiso   1.00
N87    N     0.55249   0.91995   0.56706   0.00000  Uiso   1.00
N88    N     0.11067   0.84246   0.43785   0.00000  Uiso   1.00
N89    N     0.28656   0.71372   0.86766   0.00000  Uiso   1.00
N90    N     0.66065   0.00229   0.62049   0.00000  Uiso   1.00
N91    N     0.21884   0.92480   0.49128   0.00000  Uiso   1.00
N92    N     0.39473   0.79607   0.92109   0.00000  Uiso   1.00
C93    C     0.52477   0.18240   0.87497   0.00000  Uiso   1.00
C94    C     0.43553   0.13462   0.87474   0.00000  Uiso   1.00
C95    C     0.36278   0.13976   0.90594   0.00000  Uiso   1.00
C96    C     0.28725   0.09104   0.89987   0.00000  Uiso   1.00
C97    C     0.14913   0.02474   0.90502   0.00000  Uiso   1.00
C98    C     0.66226   0.15429   0.91094   0.00000  Uiso   1.00
C99    C     0.78015   0.17598   0.97257   0.00000  Uiso   1.00
C100   C     0.89548   0.14381   0.99697   0.00000  Uiso   1.00
C101   C     0.10938   0.10807   0.05829   0.00000  Uiso   1.00
C102   C     0.47325   0.19273   0.79383   0.00000  Uiso   1.00
C103   C     0.43224   0.24673   0.75700   0.00000  Uiso   1.00
C104   C     0.38846   0.24693   0.68280   0.00000  Uiso   1.00
C105   C     0.30889   0.27087   0.56229   0.00000  Uiso   1.00
C106   C     0.51998   0.08672   0.80872   0.00000  Uiso   1.00
C107   C     0.43294   0.08265   0.83876   0.00000  Uiso   1.00
C108   C     0.35748   0.03390   0.83264   0.00000  Uiso   1.00
C109   C     0.28463   0.03897   0.86382   0.00000  Uiso   1.00
C110   C     0.65967   0.10232   0.87496   0.00000  Uiso   1.00
C111   C     0.77485   0.07012   0.89927   0.00000  Uiso   1.00
C112   C     0.89288   0.09175   0.96092   0.00000  Uiso   1.00
C113   C     0.47064   0.14075   0.75784   0.00000  Uiso   1.00
C114   C     0.42693   0.14087   0.68370   0.00000  Uiso   1.00
C115   C     0.38586   0.19487   0.64675   0.00000  Uiso   1.00
H116   H     0.52680   0.22286   0.90299   0.00000  Uiso   1.00
H117   H     0.36483   0.17999   0.93379   0.00000  Uiso   1.00
H118   H     0.78213   0.21620   0.00040   0.00000  Uiso   1.00
H119   H     0.43427   0.28694   0.78486   0.00000  Uiso   1.00
H120   H     0.18414   0.10953   0.95209   0.00000  Uiso   1.00
H121   H     0.06405   0.18589   0.09254   0.00000  Uiso   1.00
H122   H     0.33052   0.33507   0.63802   0.00000  Uiso   1.00
H123   H     0.51796   0.04626   0.78070   0.00000  Uiso   1.00
H124   H     0.35549   0.99369   0.80479   0.00000  Uiso   1.00
H125   H     0.77280   0.02990   0.87141   0.00000  Uiso   1.00
H126   H     0.42494   0.10064   0.65587   0.00000  Uiso   1.00
H127   H     0.17657   0.95832   0.84739   0.00000  Uiso   1.00
H128   H     0.05649   0.03469   0.98784   0.00000  Uiso   1.00
H129   H     0.32294   0.18386   0.53333   0.00000  Uiso   1.00
O130   O     0.07368   0.00252   0.91781   0.00000  Uiso   1.00
O131   O     0.22809   0.10272   0.10207   0.00000  Uiso   1.00
O132   O     0.26570   0.29843   0.50576   0.00000  Uiso   1.00
N133   N     0.20464   0.08116   0.92413   0.00000  Uiso   1.00
N134   N     0.02730   0.15255   0.05545   0.00000  Uiso   1.00
N135   N     0.34154   0.29202   0.63052   0.00000  Uiso   1.00
N136   N     0.20056   0.99979   0.86779   0.00000  Uiso   1.00
N137   N     0.02322   0.07119   0.99911   0.00000  Uiso   1.00
N138   N     0.33746   0.21066   0.57419   0.00000  Uiso   1.00
C139   C     0.02632   0.31813   0.88049   0.00000  Uiso   1.00
C140   C     0.11596   0.36631   0.88188   0.00000  Uiso   1.00
C141   C     0.25159   0.36096   0.91282   0.00000  Uiso   1.00
C142   C     0.31576   0.41012   0.90842   0.00000  Uiso   1.00
C143   C     0.46548   0.47694   0.91580   0.00000  Uiso   1.00
C144   C     0.96214   0.34496   0.91750   0.00000  Uiso   1.00
C145   C     0.96842   0.32165   0.97838   0.00000  Uiso   1.00
C146   C     0.90309   0.35284   0.00396   0.00000  Uiso   1.00
C147   C     0.81391   0.38649   0.06660   0.00000  Uiso   1.00
C148   C     0.91368   0.30948   0.79904   0.00000  Uiso   1.00
C149   C     0.87919   0.25634   0.76033   0.00000  Uiso   1.00
C150   C     0.77304   0.25765   0.68618   0.00000  Uiso   1.00
C151   C     0.60863   0.23622   0.56490   0.00000  Uiso   1.00
C152   C     0.89911   0.41497   0.81766   0.00000  Uiso   1.00
C153   C     0.04686   0.41891   0.84775   0.00000  Uiso   1.00
C154   C     0.11085   0.46809   0.84330   0.00000  Uiso   1.00
C155   C     0.24655   0.46281   0.87423   0.00000  Uiso   1.00
C156   C     0.89304   0.39756   0.88337   0.00000  Uiso   1.00
C157   C     0.82768   0.42879   0.90886   0.00000  Uiso   1.00
C158   C     0.83387   0.40553   0.96977   0.00000  Uiso   1.00
C159   C     0.84458   0.36208   0.76491   0.00000  Uiso   1.00
C160   C     0.73846   0.36348   0.69081   0.00000  Uiso   1.00
C161   C     0.70382   0.31035   0.65199   0.00000  Uiso   1.00
H162   H     0.08010   0.27718   0.90707   0.00000  Uiso   1.00
H163   H     0.30503   0.32025   0.93923   0.00000  Uiso   1.00
H164   H     0.02189   0.28094   0.00477   0.00000  Uiso   1.00
H165   H     0.93268   0.21565   0.78676   0.00000  Uiso   1.00
H166   H     0.52393   0.39119   0.95987   0.00000  Uiso   1.00
H167   H     0.92688   0.30831   0.09805   0.00000  Uiso   1.00
H168   H     0.73877   0.17061   0.63832   0.00000  Uiso   1.00
H169   H     0.84531   0.45592   0.79109   0.00000  Uiso   1.00
H170   H     0.05735   0.50879   0.81689   0.00000  Uiso   1.00
H171   H     0.77422   0.46948   0.88243   0.00000  Uiso   1.00
H172   H     0.68501   0.40419   0.66442   0.00000  Uiso   1.00
H173   H     0.32291   0.54422   0.86057   0.00000  Uiso   1.00
H174   H     0.72586   0.46133   0.99876   0.00000  Uiso   1.00
H175   H     0.53775   0.32364   0.53902   0.00000  Uiso   1.00
O176   O     0.56715   0.49927   0.92931   0.00000  Uiso   1.00
O177   O     0.78383   0.39052   0.11059   0.00000  Uiso   1.00
O178   O     0.53704   0.20987   0.50743   0.00000  Uiso   1.00
N179   N     0.44751   0.41995   0.93294   0.00000  Uiso   1.00
N180   N     0.88933   0.34246   0.06215   0.00000  Uiso   1.00
N181   N     0.71344   0.21372   0.63234   0.00000  Uiso   1.00
N182   N     0.33935   0.50229   0.87951   0.00000  Uiso   1.00
N183   N     0.78116   0.42480   0.00872   0.00000  Uiso   1.00
N184   N     0.60527   0.29607   0.57891   0.00000  Uiso   1.00
C185   C     0.52477   0.31760   0.37497   0.00000  Uiso   1.00
C186   C     0.43553   0.36538   0.37474   0.00000  Uiso   1.00
C187   C     0.36278   0.36024   0.40594   0.00000  Uiso   1.00
C188   C     0.28725   0.40896   0.39987   0.00000  Uiso   1.00
C189   C     0.14913   0.47526   0.40502   0.00000  Uiso   1.00
C190   C     0.66226   0.34571   0.41094   0.00000  Uiso   1.00
C191   C     0.78015   0.32402   0.47257   0.00000  Uiso   1.00
C192   C     0.89548   0.35619   0.49697   0.00000  Uiso   1.00
C193   C     0.10938   0.39193   0.55829   0.00000  Uiso   1.00
C194   C     0.47325   0.30727   0.29383   0.00000  Uiso   1.00
C195   C     0.43224   0.25327   0.25700   0.00000  Uiso   1.00
C196   C     0.38846   0.25307   0.18280   0.00000  Uiso   1.00
C197   C     0.30889   0.22913   0.06229   0.00000  Uiso   1.00
C198   C     0.51998   0.41328   0.30872   0.00000  Uiso   1.00
C199   C     0.43294   0.41735   0.33876   0.00000  Uiso   1.00
C200   C     0.35748   0.46610   0.33264   0.00000  Uiso   1.00
C201   C     0.28463   0.46103   0.36382   0.00000  Uiso   1.00
C202   C     0.65967   0.39768   0.37496   0.00000  Uiso   1.00
C203   C     0.77485   0.42988   0.39927   0.00000  Uiso   1.00
C204   C     0.89288   0.40825   0.46092   0.00000  Uiso   1.00
C205   C     0.47064   0.35925   0.25784   0.00000  Uiso   1.00
C206   C     0.42693   0.35913   0.18370   0.00000  Uiso   1.00
C207   C     0.38586   0.30513   0.14675   0.00000  Uiso   1.00
H208   H     0.52680   0.27714   0.40299   0.00000  Uiso   1.00
H209   H     0.36483   0.32001   0.43379   0.00000  Uiso   1.00
H210   H     0.78213   0.28380   0.50040   0.00000  Uiso   1.00
H211   H     0.43427   0.21306   0.28486   0.00000  Uiso   1.00
H212   H     0.18414   0.39047   0.45209   0.00000  Uiso   1.00
H213   H     0.06405   0.31411   0.59254   0.00000  Uiso   1.00
H214   H     0.33052   0.16493   0.13802   0.00000  Uiso   1.00
H215   H     0.51796   0.45374   0.28070   0.00000  Uiso   1.00
H216   H     0.35549   0.50631   0.30479   0.00000  Uiso   1.00
H217   H     0.77280   0.47010   0.37141   0.00000  Uiso   1.00
H218   H     0.42494   0.39936   0.15587   0.00000  Uiso   1.00
H219   H     0.17657   0.54168   0.34739   0.00000  Uiso   1.00
H220   H     0.05649   0.46531   0.48784   0.00000  Uiso   1.00
H221   H     0.32294   0.31614   0.03333   0.00000  Uiso   1.00
O222   O     0.07368   0.49748   0.41781   0.00000  Uiso   1.00
O223   O     0.22809   0.39728   0.60207   0.00000  Uiso   1.00
O224   O     0.26570   0.20157   0.00576   0.00000  Uiso   1.00
N225   N     0.20464   0.41884   0.42413   0.00000  Uiso   1.00
N226   N     0.02730   0.34745   0.55545   0.00000  Uiso   1.00
N227   N     0.34154   0.20798   0.13052   0.00000  Uiso   1.00
N228   N     0.20056   0.50021   0.36779   0.00000  Uiso   1.00
N229   N     0.02322   0.42881   0.49911   0.00000  Uiso   1.00
N230   N     0.33746   0.28934   0.07419   0.00000  Uiso   1.00
C231   C     0.02632   0.18187   0.38049   0.00000  Uiso   1.00
C232   C     0.11596   0.13369   0.38188   0.00000  Uiso   1.00
C233   C     0.25159   0.13904   0.41282   0.00000  Uiso   1.00
C234   C     0.31576   0.08988   0.40842   0.00000  Uiso   1.00
C235   C     0.46548   0.02306   0.41580   0.00000  Uiso   1.00
C236   C     0.96214   0.15504   0.41750   0.00000  Uiso   1.00
C237   C     0.96842   0.17835   0.47838   0.00000  Uiso   1.00
C238   C     0.90309   0.14716   0.50396   0.00000  Uiso   1.00
C239   C     0.81391   0.11351   0.56660   0.00000  Uiso   1.00
C240   C     0.91368   0.19052   0.29904   0.00000  Uiso   1.00
C241   C     0.87919   0.24366   0.26033   0.00000  Uiso   1.00
C242   C     0.77304   0.24235   0.18618   0.00000  Uiso   1.00
C243   C     0.60863   0.26378   0.06490   0.00000  Uiso   1.00
C244   C     0.89911   0.08503   0.31766   0.00000  Uiso   1.00
C245   C     0.04686   0.08109   0.34775   0.00000  Uiso   1.00
C246   C     0.11085   0.03191   0.34330   0.00000  Uiso   1.00
C247   C     0.24655   0.03719   0.37423   0.00000  Uiso   1.00
C248   C     0.89304   0.10244   0.38337   0.00000  Uiso   1.00
C249   C     0.82768   0.07121   0.40886   0.00000  Uiso   1.00
C250   C     0.83387   0.09447   0.46977   0.00000  Uiso   1.00
C251   C     0.84458   0.13792   0.26491   0.00000  Uiso   1.00
C252   C     0.73846   0.13652   0.19081   0.00000  Uiso   1.00
C253   C     0.70382   0.18965   0.15199   0.00000  Uiso   1.00
H254   H     0.08010   0.22282   0.40707   0.00000  Uiso   1.00
H255   H     0.30503   0.17975   0.43923   0.00000  Uiso   1.00
H256   H     0.02189   0.21906   0.50477   0.00000  Uiso   1.00
H257   H     0.93268   0.28435   0.28676   0.00000  Uiso   1.00
H258   H     0.52393   0.10881   0.45987   0.00000  Uiso   1.00
H259   H     0.92688   0.19169   0.59805   0.00000  Uiso   1.00
H260   H     0.73877   0.32939   0.13832   0.00000  Uiso   1.00
H261   H     0.84531   0.04408   0.29109   0.00000  Uiso   1.00
H262   H     0.05735   0.99121   0.31689   0.00000  Uiso   1.00
H263   H     0.77422   0.03052   0.38243   0.00000  Uiso   1.00
H264   H     0.68501   0.09581   0.16442   0.00000  Uiso   1.00
H265   H     0.32291   0.95578   0.36057   0.00000  Uiso   1.00
H266   H     0.72586   0.03867   0.49876   0.00000  Uiso   1.00
H267   H     0.53775   0.17636   0.03902   0.00000  Uiso   1.00
O268   O     0.56715   0.00073   0.42931   0.00000  Uiso   1.00
O269   O     0.78383   0.10948   0.61059   0.00000  Uiso   1.00
O270   O     0.53704   0.29013   0.00743   0.00000  Uiso   1.00
N271   N     0.44751   0.08005   0.43294   0.00000  Uiso   1.00
N272   N     0.88933   0.15754   0.56215   0.00000  Uiso   1.00
N273   N     0.71344   0.28628   0.13234   0.00000  Uiso   1.00
N274   N     0.33935   0.99771   0.37951   0.00000  Uiso   1.00
N275   N     0.78116   0.07520   0.50872   0.00000  Uiso   1.00
N276   N     0.60527   0.20393   0.07891   0.00000  Uiso   1.00
C277   C     0.47523   0.81760   0.12503   0.00000  Uiso   1.00
C278   C     0.56447   0.86538   0.12526   0.00000  Uiso   1.00
C279   C     0.63722   0.86024   0.09406   0.00000  Uiso   1.00
C280   C     0.71275   0.90896   0.10013   0.00000  Uiso   1.00
C281   C     0.85087   0.97526   0.09498   0.00000  Uiso   1.00
C282   C     0.33774   0.84571   0.08906   0.00000  Uiso   1.00
C283   C     0.21985   0.82402   0.02743   0.00000  Uiso   1.00
C284   C     0.10452   0.85619   0.00303   0.00000  Uiso   1.00
C285   C     0.89062   0.89193   0.94171   0.00000  Uiso   1.00
C286   C     0.52675   0.80727   0.20617   0.00000  Uiso   1.00
C287   C     0.56776   0.75327   0.24300   0.00000  Uiso   1.00
C288   C     0.61154   0.75307   0.31720   0.00000  Uiso   1.00
C289   C     0.69111   0.72913   0.43771   0.00000  Uiso   1.00
C290   C     0.48002   0.91328   0.19128   0.00000  Uiso   1.00
C291   C     0.56706   0.91735   0.16124   0.00000  Uiso   1.00
C292   C     0.64252   0.96610   0.16736   0.00000  Uiso   1.00
C293   C     0.71537   0.96103   0.13618   0.00000  Uiso   1.00
C294   C     0.34033   0.89768   0.12504   0.00000  Uiso   1.00
C295   C     0.22515   0.92988   0.10073   0.00000  Uiso   1.00
C296   C     0.10712   0.90825   0.03908   0.00000  Uiso   1.00
C297   C     0.52936   0.85925   0.24216   0.00000  Uiso   1.00
C298   C     0.57307   0.85913   0.31630   0.00000  Uiso   1.00
C299   C     0.61414   0.80513   0.35325   0.00000  Uiso   1.00
H300   H     0.47320   0.77714   0.09701   0.00000  Uiso   1.00
H301   H     0.63517   0.82001   0.06621   0.00000  Uiso   1.00
H302   H     0.21787   0.78380   0.99960   0.00000  Uiso   1.00
H303   H     0.56573   0.71306   0.21514   0.00000  Uiso   1.00
H304   H     0.81586   0.89047   0.04791   0.00000  Uiso   1.00
H305   H     0.93595   0.81411   0.90746   0.00000  Uiso   1.00
H306   H     0.66948   0.66493   0.36198   0.00000  Uiso   1.00
H307   H     0.48204   0.95374   0.21930   0.00000  Uiso   1.00
H308   H     0.64451   0.00631   0.19521   0.00000  Uiso   1.00
H309   H     0.22720   0.97010   0.12859   0.00000  Uiso   1.00
H310   H     0.57506   0.89936   0.34413   0.00000  Uiso   1.00
H311   H     0.82343   0.04168   0.15261   0.00000  Uiso   1.00
H312   H     0.94351   0.96531   0.01216   0.00000  Uiso   1.00
H313   H     0.67706   0.81614   0.46667   0.00000  Uiso   1.00
O314   O     0.92632   0.99748   0.08219   0.00000  Uiso   1.00
O315   O     0.77191   0.89728   0.89793   0.00000  Uiso   1.00
O316   O     0.73430   0.70157   0.49424   0.00000  Uiso   1.00
N317   N     0.79536   0.91884   0.07587   0.00000  Uiso   1.00
N318   N     0.97270   0.84745   0.94455   0.00000  Uiso   1.00
N319   N     0.65846   0.70798   0.36948   0.00000  Uiso   1.00
N320   N     0.79944   0.00021   0.13221   0.00000  Uiso   1.00
N321   N     0.97678   0.92881   0.00089   0.00000  Uiso   1.00
N322   N     0.66254   0.78934   0.42581   0.00000  Uiso   1.00
C323   C     0.97368   0.68187   0.11951   0.00000  Uiso   1.00
C324   C     0.88404   0.63369   0.11812   0.00000  Uiso   1.00
C325   C     0.74841   0.63904   0.08718   0.00000  Uiso   1.00
C326   C     0.68424   0.58988   0.09158   0.00000  Uiso   1.00
C327   C     0.53452   0.52306   0.08420   0.00000  Uiso   1.00
C328   C     0.03786   0.65504   0.08250   0.00000  Uiso   1.00
C329   C     0.03158   0.67835   0.02162   0.00000  Uiso   1.00
C330   C     0.09691   0.64716   0.99604   0.00000  Uiso   1.00
C331   C     0.18609   0.61351   0.93340   0.00000  Uiso   1.00
C332   C     0.08632   0.69052   0.20096   0.00000  Uiso   1.00
C333   C     0.12081   0.74366   0.23967   0.00000  Uiso   1.00
C334   C     0.22696   0.74235   0.31382   0.00000  Uiso   1.00
C335   C     0.39137   0.76378   0.43510   0.00000  Uiso   1.00
C336   C     0.10089   0.58503   0.18234   0.00000  Uiso   1.00
C337   C     0.95314   0.58109   0.15225   0.00000  Uiso   1.00
C338   C     0.88915   0.53191   0.15670   0.00000  Uiso   1.00
C339   C     0.75345   0.53719   0.12577   0.00000  Uiso   1.00
C340   C     0.10696   0.60244   0.11663   0.00000  Uiso   1.00
C341   C     0.17232   0.57121   0.09114   0.00000  Uiso   1.00
C342   C     0.16613   0.59447   0.03023   0.00000  Uiso   1.00
C343   C     0.15542   0.63792   0.23509   0.00000  Uiso   1.00
C344   C     0.26154   0.63652   0.30919   0.00000  Uiso   1.00
C345   C     0.29618   0.68965   0.34801   0.00000  Uiso   1.00
H346   H     0.91990   0.72282   0.09293   0.00000  Uiso   1.00
H347   H     0.69497   0.67975   0.06077   0.00000  Uiso   1.00
H348   H     0.97811   0.71906   0.99523   0.00000  Uiso   1.00
H349   H     0.06732   0.78435   0.21324   0.00000  Uiso   1.00
H350   H     0.47607   0.60881   0.04013   0.00000  Uiso   1.00
H351   H     0.07312   0.69169   0.90195   0.00000  Uiso   1.00
H352   H     0.26123   0.82939   0.36168   0.00000  Uiso   1.00
H353   H     0.15469   0.54408   0.20891   0.00000  Uiso   1.00
H354   H     0.94265   0.49121   0.18311   0.00000  Uiso   1.00
H355   H     0.22578   0.53052   0.11757   0.00000  Uiso   1.00
H356   H     0.31499   0.59581   0.33558   0.00000  Uiso   1.00
H357   H     0.67709   0.45578   0.13943   0.00000  Uiso   1.00
H358   H     0.27414   0.53867   0.00124   0.00000  Uiso   1.00
H359   H     0.46225   0.67636   0.46098   0.00000  Uiso   1.00
O360   O     0.43285   0.50073   0.07069   0.00000  Uiso   1.00
O361   O     0.21617   0.60948   0.88941   0.00000  Uiso   1.00
O362   O     0.46296   0.79013   0.49257   0.00000  Uiso   1.00
N363   N     0.55249   0.58005   0.06706   0.00000  Uiso   1.00
N364   N     0.11067   0.65754   0.93785   0.00000  Uiso   1.00
N365   N     0.28656   0.78628   0.36766   0.00000  Uiso   1.00
N366   N     0.66065   0.49771   0.12049   0.00000  Uiso   1.00
N367   N     0.21884   0.57520   0.99128   0.00000  Uiso   1.00
N368   N     0.39473   0.70393   0.42109   0.00000  Uiso   1.00
