data_job_00094
_audit_creation_date              2018-12-19
_audit_creation_method            'Materials Studio'
_symmetry_space_group_name_H-M    'P1'
_symmetry_Int_Tables_number       1
_symmetry_cell_setting            triclinic
loop_
_symmetry_equiv_pos_as_xyz
  x,y,z
_cell_length_a                    23.6956
_cell_length_b                    7.3053
_cell_length_c                    29.5216
_cell_angle_alpha                 90.0000
_cell_angle_beta                  115.6608
_cell_angle_gamma                 90.0000
loop_
_atom_site_label
_atom_site_type_symbol
_atom_site_fract_x
_atom_site_fract_y
_atom_site_fract_z
_atom_site_U_iso_or_equiv
_atom_site_adp_type
_atom_site_occupancy
C1     C     0.09437   0.54040   0.38689   0.00000  Uiso   1.00
C2     C     0.02944   0.45976   0.35636   0.00000  Uiso   1.00
C3     C     0.97484   0.55913   0.33069   0.00000  Uiso   1.00
C4     C     0.92018   0.45991   0.30500   0.00000  Uiso   1.00
C5     C     0.81935   0.36386   0.25761   0.00000  Uiso   1.00
C6     C     0.11730   0.45979   0.43953   0.00000  Uiso   1.00
C7     C     0.13658   0.55919   0.48378   0.00000  Uiso   1.00
C8     C     0.15589   0.45998   0.52810   0.00000  Uiso   1.00
C9     C     0.19151   0.36398   0.60984   0.00000  Uiso   1.00
C10    C     0.13637   0.45978   0.36480   0.00000  Uiso   1.00
C11    C     0.17170   0.55918   0.34623   0.00000  Uiso   1.00
C12    C     0.20708   0.45996   0.32764   0.00000  Uiso   1.00
C13    C     0.27232   0.36395   0.29334   0.00000  Uiso   1.00
C14    C     0.09438   0.18746   0.38690   0.00000  Uiso   1.00
C15    C     0.02945   0.26806   0.35637   0.00000  Uiso   1.00
C16    C     0.97485   0.16865   0.33070   0.00000  Uiso   1.00
C17    C     0.92018   0.26786   0.30500   0.00000  Uiso   1.00
C18    C     0.11731   0.26809   0.43953   0.00000  Uiso   1.00
C19    C     0.13659   0.16871   0.48379   0.00000  Uiso   1.00
C20    C     0.15589   0.26794   0.52811   0.00000  Uiso   1.00
C21    C     0.13638   0.26808   0.36480   0.00000  Uiso   1.00
C22    C     0.17171   0.16869   0.34624   0.00000  Uiso   1.00
C23    C     0.20709   0.26791   0.32764   0.00000  Uiso   1.00
H24    H     0.09436   0.68964   0.38689   0.00000  Uiso   1.00
H25    H     0.97485   0.70749   0.33070   0.00000  Uiso   1.00
H26    H     0.13657   0.70754   0.48377   0.00000  Uiso   1.00
H27    H     0.17169   0.70752   0.34623   0.00000  Uiso   1.00
H28    H     0.84235   0.64273   0.26842   0.00000  Uiso   1.00
H29    H     0.18337   0.64285   0.59118   0.00000  Uiso   1.00
H30    H     0.25742   0.64281   0.30115   0.00000  Uiso   1.00
H31    H     0.09439   0.03821   0.38690   0.00000  Uiso   1.00
H32    H     0.97487   0.02030   0.33071   0.00000  Uiso   1.00
H33    H     0.13659   0.02036   0.48378   0.00000  Uiso   1.00
H34    H     0.17171   0.02034   0.34625   0.00000  Uiso   1.00
H35    H     0.84237   0.08499   0.26843   0.00000  Uiso   1.00
H36    H     0.18339   0.08511   0.59119   0.00000  Uiso   1.00
H37    H     0.25743   0.08506   0.30117   0.00000  Uiso   1.00
O38    O     0.76374   0.36383   0.23148   0.00000  Uiso   1.00
O39    O     0.21115   0.36399   0.65492   0.00000  Uiso   1.00
O40    O     0.30829   0.36394   0.27441   0.00000  Uiso   1.00
N41    N     0.85876   0.51392   0.27613   0.00000  Uiso   1.00
N42    N     0.17758   0.51403   0.57788   0.00000  Uiso   1.00
N43    N     0.24682   0.51400   0.30675   0.00000  Uiso   1.00
N44    N     0.85877   0.21380   0.27613   0.00000  Uiso   1.00
N45    N     0.17759   0.21392   0.57789   0.00000  Uiso   1.00
N46    N     0.24683   0.21388   0.30676   0.00000  Uiso   1.00
C47    C     0.28306   0.04059   0.88273   0.00000  Uiso   1.00
C48    C     0.31968   0.95998   0.85585   0.00000  Uiso   1.00
C49    C     0.35048   0.05938   0.83327   0.00000  Uiso   1.00
C50    C     0.38132   0.96018   0.81066   0.00000  Uiso   1.00
C51    C     0.43822   0.86417   0.76895   0.00000  Uiso   1.00
C52    C     0.31215   0.95996   0.93558   0.00000  Uiso   1.00
C53    C     0.33661   0.05935   0.98003   0.00000  Uiso   1.00
C54    C     0.36110   0.96012   0.02453   0.00000  Uiso   1.00
C55    C     0.40626   0.86408   0.10660   0.00000  Uiso   1.00
C56    C     0.21735   0.95997   0.85674   0.00000  Uiso   1.00
C57    C     0.16209   0.05936   0.83491   0.00000  Uiso   1.00
C58    C     0.10676   0.96013   0.81305   0.00000  Uiso   1.00
C59    C     0.00473   0.86411   0.77271   0.00000  Uiso   1.00
C60    C     0.28306   0.68765   0.88272   0.00000  Uiso   1.00
C61    C     0.31968   0.76828   0.85586   0.00000  Uiso   1.00
C62    C     0.35048   0.66890   0.83327   0.00000  Uiso   1.00
C63    C     0.38132   0.76813   0.81065   0.00000  Uiso   1.00
C64    C     0.31215   0.76827   0.93558   0.00000  Uiso   1.00
C65    C     0.33661   0.66886   0.98003   0.00000  Uiso   1.00
C66    C     0.36110   0.76807   0.02453   0.00000  Uiso   1.00
C67    C     0.21735   0.76827   0.85674   0.00000  Uiso   1.00
C68    C     0.16209   0.66887   0.83491   0.00000  Uiso   1.00
C69    C     0.10676   0.76809   0.81305   0.00000  Uiso   1.00
H70    H     0.28306   0.18984   0.88273   0.00000  Uiso   1.00
H71    H     0.35047   0.20774   0.83328   0.00000  Uiso   1.00
H72    H     0.33659   0.20769   0.98002   0.00000  Uiso   1.00
H73    H     0.16211   0.20770   0.83492   0.00000  Uiso   1.00
H74    H     0.42524   0.14304   0.77848   0.00000  Uiso   1.00
H75    H     0.39596   0.14296   0.08788   0.00000  Uiso   1.00
H76    H     0.02801   0.14298   0.78191   0.00000  Uiso   1.00
H77    H     0.28306   0.53840   0.88272   0.00000  Uiso   1.00
H78    H     0.35048   0.52055   0.83327   0.00000  Uiso   1.00
H79    H     0.33660   0.52051   0.98001   0.00000  Uiso   1.00
H80    H     0.16211   0.52052   0.83491   0.00000  Uiso   1.00
H81    H     0.42524   0.58529   0.77847   0.00000  Uiso   1.00
H82    H     0.39596   0.58521   0.08787   0.00000  Uiso   1.00
H83    H     0.02802   0.58523   0.78191   0.00000  Uiso   1.00
O84    O     0.46961   0.86417   0.74596   0.00000  Uiso   1.00
O85    O     0.43118   0.86407   0.15188   0.00000  Uiso   1.00
O86    O     0.94845   0.86410   0.75046   0.00000  Uiso   1.00
N87    N     0.41598   0.01422   0.78525   0.00000  Uiso   1.00
N88    N     0.38861   0.01415   0.07452   0.00000  Uiso   1.00
N89    N     0.04461   0.01417   0.78849   0.00000  Uiso   1.00
N90    N     0.41598   0.71410   0.78525   0.00000  Uiso   1.00
N91    N     0.38861   0.71403   0.07452   0.00000  Uiso   1.00
N92    N     0.04461   0.71405   0.78848   0.00000  Uiso   1.00
C93    C     0.59437   0.04040   0.38689   0.00000  Uiso   1.00
C94    C     0.52944   0.95976   0.35636   0.00000  Uiso   1.00
C95    C     0.47484   0.05913   0.33069   0.00000  Uiso   1.00
C96    C     0.42018   0.95991   0.30500   0.00000  Uiso   1.00
C97    C     0.31935   0.86386   0.25761   0.00000  Uiso   1.00
C98    C     0.61730   0.95979   0.43953   0.00000  Uiso   1.00
C99    C     0.63658   0.05919   0.48378   0.00000  Uiso   1.00
C100   C     0.65589   0.95998   0.52810   0.00000  Uiso   1.00
C101   C     0.69151   0.86398   0.60984   0.00000  Uiso   1.00
C102   C     0.63637   0.95978   0.36480   0.00000  Uiso   1.00
C103   C     0.67170   0.05918   0.34623   0.00000  Uiso   1.00
C104   C     0.70708   0.95996   0.32764   0.00000  Uiso   1.00
C105   C     0.77232   0.86395   0.29334   0.00000  Uiso   1.00
C106   C     0.59438   0.68746   0.38690   0.00000  Uiso   1.00
C107   C     0.52945   0.76806   0.35637   0.00000  Uiso   1.00
C108   C     0.47485   0.66865   0.33070   0.00000  Uiso   1.00
C109   C     0.42018   0.76786   0.30500   0.00000  Uiso   1.00
C110   C     0.61731   0.76809   0.43953   0.00000  Uiso   1.00
C111   C     0.63659   0.66871   0.48379   0.00000  Uiso   1.00
C112   C     0.65589   0.76794   0.52811   0.00000  Uiso   1.00
C113   C     0.63638   0.76808   0.36480   0.00000  Uiso   1.00
C114   C     0.67171   0.66869   0.34624   0.00000  Uiso   1.00
C115   C     0.70709   0.76791   0.32764   0.00000  Uiso   1.00
H116   H     0.59436   0.18964   0.38689   0.00000  Uiso   1.00
H117   H     0.47485   0.20749   0.33070   0.00000  Uiso   1.00
H118   H     0.63657   0.20754   0.48377   0.00000  Uiso   1.00
H119   H     0.67169   0.20752   0.34623   0.00000  Uiso   1.00
H120   H     0.34235   0.14273   0.26842   0.00000  Uiso   1.00
H121   H     0.68337   0.14285   0.59118   0.00000  Uiso   1.00
H122   H     0.75742   0.14281   0.30115   0.00000  Uiso   1.00
H123   H     0.59439   0.53821   0.38690   0.00000  Uiso   1.00
H124   H     0.47487   0.52030   0.33071   0.00000  Uiso   1.00
H125   H     0.63659   0.52036   0.48378   0.00000  Uiso   1.00
H126   H     0.67171   0.52034   0.34625   0.00000  Uiso   1.00
H127   H     0.34237   0.58499   0.26843   0.00000  Uiso   1.00
H128   H     0.68339   0.58511   0.59119   0.00000  Uiso   1.00
H129   H     0.75743   0.58506   0.30117   0.00000  Uiso   1.00
O130   O     0.26374   0.86383   0.23148   0.00000  Uiso   1.00
O131   O     0.71115   0.86399   0.65492   0.00000  Uiso   1.00
O132   O     0.80829   0.86394   0.27441   0.00000  Uiso   1.00
N133   N     0.35876   0.01392   0.27613   0.00000  Uiso   1.00
N134   N     0.67758   0.01403   0.57788   0.00000  Uiso   1.00
N135   N     0.74682   0.01400   0.30675   0.00000  Uiso   1.00
N136   N     0.35877   0.71380   0.27613   0.00000  Uiso   1.00
N137   N     0.67759   0.71392   0.57789   0.00000  Uiso   1.00
N138   N     0.74683   0.71388   0.30676   0.00000  Uiso   1.00
C139   C     0.78306   0.54059   0.88273   0.00000  Uiso   1.00
C140   C     0.81968   0.45998   0.85585   0.00000  Uiso   1.00
C141   C     0.85048   0.55938   0.83327   0.00000  Uiso   1.00
C142   C     0.88132   0.46018   0.81066   0.00000  Uiso   1.00
C143   C     0.93822   0.36417   0.76895   0.00000  Uiso   1.00
C144   C     0.81215   0.45996   0.93558   0.00000  Uiso   1.00
C145   C     0.83661   0.55935   0.98003   0.00000  Uiso   1.00
C146   C     0.86110   0.46012   0.02453   0.00000  Uiso   1.00
C147   C     0.90626   0.36408   0.10660   0.00000  Uiso   1.00
C148   C     0.71735   0.45997   0.85674   0.00000  Uiso   1.00
C149   C     0.66209   0.55936   0.83491   0.00000  Uiso   1.00
C150   C     0.60676   0.46013   0.81305   0.00000  Uiso   1.00
C151   C     0.50473   0.36411   0.77271   0.00000  Uiso   1.00
C152   C     0.78306   0.18765   0.88272   0.00000  Uiso   1.00
C153   C     0.81968   0.26828   0.85586   0.00000  Uiso   1.00
C154   C     0.85048   0.16890   0.83327   0.00000  Uiso   1.00
C155   C     0.88132   0.26813   0.81065   0.00000  Uiso   1.00
C156   C     0.81215   0.26827   0.93558   0.00000  Uiso   1.00
C157   C     0.83661   0.16886   0.98003   0.00000  Uiso   1.00
C158   C     0.86110   0.26807   0.02453   0.00000  Uiso   1.00
C159   C     0.71735   0.26827   0.85674   0.00000  Uiso   1.00
C160   C     0.66209   0.16887   0.83491   0.00000  Uiso   1.00
C161   C     0.60676   0.26809   0.81305   0.00000  Uiso   1.00
H162   H     0.78306   0.68984   0.88273   0.00000  Uiso   1.00
H163   H     0.85047   0.70774   0.83328   0.00000  Uiso   1.00
H164   H     0.83659   0.70769   0.98002   0.00000  Uiso   1.00
H165   H     0.66211   0.70770   0.83492   0.00000  Uiso   1.00
H166   H     0.92524   0.64304   0.77848   0.00000  Uiso   1.00
H167   H     0.89596   0.64296   0.08788   0.00000  Uiso   1.00
H168   H     0.52801   0.64298   0.78191   0.00000  Uiso   1.00
H169   H     0.78306   0.03840   0.88272   0.00000  Uiso   1.00
H170   H     0.85048   0.02055   0.83327   0.00000  Uiso   1.00
H171   H     0.83660   0.02051   0.98001   0.00000  Uiso   1.00
H172   H     0.66211   0.02052   0.83491   0.00000  Uiso   1.00
H173   H     0.92524   0.08529   0.77847   0.00000  Uiso   1.00
H174   H     0.89596   0.08521   0.08787   0.00000  Uiso   1.00
H175   H     0.52802   0.08523   0.78191   0.00000  Uiso   1.00
O176   O     0.96961   0.36417   0.74596   0.00000  Uiso   1.00
O177   O     0.93118   0.36407   0.15188   0.00000  Uiso   1.00
O178   O     0.44845   0.36410   0.75046   0.00000  Uiso   1.00
N179   N     0.91598   0.51422   0.78525   0.00000  Uiso   1.00
N180   N     0.88861   0.51415   0.07452   0.00000  Uiso   1.00
N181   N     0.54461   0.51417   0.78849   0.00000  Uiso   1.00
N182   N     0.91598   0.21410   0.78525   0.00000  Uiso   1.00
N183   N     0.88861   0.21403   0.07452   0.00000  Uiso   1.00
N184   N     0.54461   0.21405   0.78848   0.00000  Uiso   1.00
C185   C     0.90563   0.54040   0.61311   0.00000  Uiso   1.00
C186   C     0.97056   0.45976   0.64364   0.00000  Uiso   1.00
C187   C     0.02516   0.55913   0.66931   0.00000  Uiso   1.00
C188   C     0.07982   0.45991   0.69500   0.00000  Uiso   1.00
C189   C     0.18065   0.36386   0.74239   0.00000  Uiso   1.00
C190   C     0.88270   0.45979   0.56047   0.00000  Uiso   1.00
C191   C     0.86342   0.55919   0.51622   0.00000  Uiso   1.00
C192   C     0.84411   0.45998   0.47190   0.00000  Uiso   1.00
C193   C     0.80849   0.36398   0.39016   0.00000  Uiso   1.00
C194   C     0.86363   0.45978   0.63520   0.00000  Uiso   1.00
C195   C     0.82830   0.55918   0.65377   0.00000  Uiso   1.00
C196   C     0.79292   0.45996   0.67236   0.00000  Uiso   1.00
C197   C     0.72768   0.36395   0.70666   0.00000  Uiso   1.00
C198   C     0.90562   0.18746   0.61310   0.00000  Uiso   1.00
C199   C     0.97055   0.26806   0.64363   0.00000  Uiso   1.00
C200   C     0.02515   0.16865   0.66930   0.00000  Uiso   1.00
C201   C     0.07982   0.26786   0.69500   0.00000  Uiso   1.00
C202   C     0.88269   0.26809   0.56047   0.00000  Uiso   1.00
C203   C     0.86341   0.16871   0.51621   0.00000  Uiso   1.00
C204   C     0.84411   0.26794   0.47189   0.00000  Uiso   1.00
C205   C     0.86362   0.26808   0.63520   0.00000  Uiso   1.00
C206   C     0.82829   0.16869   0.65376   0.00000  Uiso   1.00
C207   C     0.79291   0.26791   0.67236   0.00000  Uiso   1.00
H208   H     0.90564   0.68964   0.61311   0.00000  Uiso   1.00
H209   H     0.02515   0.70749   0.66930   0.00000  Uiso   1.00
H210   H     0.86343   0.70754   0.51623   0.00000  Uiso   1.00
H211   H     0.82831   0.70752   0.65377   0.00000  Uiso   1.00
H212   H     0.15765   0.64273   0.73158   0.00000  Uiso   1.00
H213   H     0.81663   0.64285   0.40882   0.00000  Uiso   1.00
H214   H     0.74258   0.64281   0.69885   0.00000  Uiso   1.00
H215   H     0.90561   0.03821   0.61310   0.00000  Uiso   1.00
H216   H     0.02513   0.02030   0.66929   0.00000  Uiso   1.00
H217   H     0.86341   0.02036   0.51622   0.00000  Uiso   1.00
H218   H     0.82829   0.02034   0.65375   0.00000  Uiso   1.00
H219   H     0.15763   0.08499   0.73157   0.00000  Uiso   1.00
H220   H     0.81661   0.08511   0.40881   0.00000  Uiso   1.00
H221   H     0.74257   0.08506   0.69883   0.00000  Uiso   1.00
O222   O     0.23626   0.36383   0.76852   0.00000  Uiso   1.00
O223   O     0.78885   0.36399   0.34508   0.00000  Uiso   1.00
O224   O     0.69171   0.36394   0.72559   0.00000  Uiso   1.00
N225   N     0.14124   0.51392   0.72387   0.00000  Uiso   1.00
N226   N     0.82242   0.51403   0.42212   0.00000  Uiso   1.00
N227   N     0.75318   0.51400   0.69325   0.00000  Uiso   1.00
N228   N     0.14123   0.21380   0.72387   0.00000  Uiso   1.00
N229   N     0.82241   0.21392   0.42211   0.00000  Uiso   1.00
N230   N     0.75317   0.21388   0.69324   0.00000  Uiso   1.00
C231   C     0.71694   0.04059   0.11727   0.00000  Uiso   1.00
C232   C     0.68032   0.95998   0.14415   0.00000  Uiso   1.00
C233   C     0.64952   0.05938   0.16673   0.00000  Uiso   1.00
C234   C     0.61868   0.96018   0.18934   0.00000  Uiso   1.00
C235   C     0.56178   0.86417   0.23105   0.00000  Uiso   1.00
C236   C     0.68785   0.95996   0.06442   0.00000  Uiso   1.00
C237   C     0.66339   0.05935   0.01997   0.00000  Uiso   1.00
C238   C     0.63890   0.96012   0.97547   0.00000  Uiso   1.00
C239   C     0.59374   0.86408   0.89340   0.00000  Uiso   1.00
C240   C     0.78265   0.95997   0.14326   0.00000  Uiso   1.00
C241   C     0.83791   0.05936   0.16509   0.00000  Uiso   1.00
C242   C     0.89324   0.96013   0.18695   0.00000  Uiso   1.00
C243   C     0.99527   0.86411   0.22729   0.00000  Uiso   1.00
C244   C     0.71694   0.68765   0.11728   0.00000  Uiso   1.00
C245   C     0.68032   0.76828   0.14414   0.00000  Uiso   1.00
C246   C     0.64952   0.66890   0.16673   0.00000  Uiso   1.00
C247   C     0.61868   0.76813   0.18935   0.00000  Uiso   1.00
C248   C     0.68785   0.76827   0.06442   0.00000  Uiso   1.00
C249   C     0.66339   0.66886   0.01997   0.00000  Uiso   1.00
C250   C     0.63890   0.76807   0.97547   0.00000  Uiso   1.00
C251   C     0.78265   0.76827   0.14326   0.00000  Uiso   1.00
C252   C     0.83791   0.66887   0.16509   0.00000  Uiso   1.00
C253   C     0.89324   0.76809   0.18695   0.00000  Uiso   1.00
H254   H     0.71694   0.18984   0.11727   0.00000  Uiso   1.00
H255   H     0.64953   0.20774   0.16672   0.00000  Uiso   1.00
H256   H     0.66341   0.20769   0.01998   0.00000  Uiso   1.00
H257   H     0.83789   0.20770   0.16508   0.00000  Uiso   1.00
H258   H     0.57476   0.14304   0.22152   0.00000  Uiso   1.00
H259   H     0.60404   0.14296   0.91212   0.00000  Uiso   1.00
H260   H     0.97199   0.14298   0.21809   0.00000  Uiso   1.00
H261   H     0.71694   0.53840   0.11728   0.00000  Uiso   1.00
H262   H     0.64952   0.52055   0.16673   0.00000  Uiso   1.00
H263   H     0.66340   0.52051   0.01999   0.00000  Uiso   1.00
H264   H     0.83789   0.52052   0.16509   0.00000  Uiso   1.00
H265   H     0.57476   0.58529   0.22153   0.00000  Uiso   1.00
H266   H     0.60404   0.58521   0.91213   0.00000  Uiso   1.00
H267   H     0.97198   0.58523   0.21809   0.00000  Uiso   1.00
O268   O     0.53039   0.86417   0.25404   0.00000  Uiso   1.00
O269   O     0.56882   0.86407   0.84812   0.00000  Uiso   1.00
O270   O     0.05155   0.86410   0.24954   0.00000  Uiso   1.00
N271   N     0.58402   0.01422   0.21475   0.00000  Uiso   1.00
N272   N     0.61139   0.01415   0.92548   0.00000  Uiso   1.00
N273   N     0.95539   0.01417   0.21151   0.00000  Uiso   1.00
N274   N     0.58402   0.71410   0.21475   0.00000  Uiso   1.00
N275   N     0.61139   0.71403   0.92548   0.00000  Uiso   1.00
N276   N     0.95539   0.71405   0.21152   0.00000  Uiso   1.00
C277   C     0.40563   0.04040   0.61311   0.00000  Uiso   1.00
C278   C     0.47056   0.95976   0.64364   0.00000  Uiso   1.00
C279   C     0.52516   0.05913   0.66931   0.00000  Uiso   1.00
C280   C     0.57982   0.95991   0.69500   0.00000  Uiso   1.00
C281   C     0.68065   0.86386   0.74239   0.00000  Uiso   1.00
C282   C     0.38270   0.95979   0.56047   0.00000  Uiso   1.00
C283   C     0.36342   0.05919   0.51622   0.00000  Uiso   1.00
C284   C     0.34411   0.95998   0.47190   0.00000  Uiso   1.00
C285   C     0.30849   0.86398   0.39016   0.00000  Uiso   1.00
C286   C     0.36363   0.95978   0.63520   0.00000  Uiso   1.00
C287   C     0.32830   0.05918   0.65377   0.00000  Uiso   1.00
C288   C     0.29292   0.95996   0.67236   0.00000  Uiso   1.00
C289   C     0.22768   0.86395   0.70666   0.00000  Uiso   1.00
C290   C     0.40562   0.68746   0.61310   0.00000  Uiso   1.00
C291   C     0.47055   0.76806   0.64363   0.00000  Uiso   1.00
C292   C     0.52515   0.66865   0.66930   0.00000  Uiso   1.00
C293   C     0.57982   0.76786   0.69500   0.00000  Uiso   1.00
C294   C     0.38269   0.76809   0.56047   0.00000  Uiso   1.00
C295   C     0.36341   0.66871   0.51621   0.00000  Uiso   1.00
C296   C     0.34411   0.76794   0.47189   0.00000  Uiso   1.00
C297   C     0.36362   0.76808   0.63520   0.00000  Uiso   1.00
C298   C     0.32829   0.66869   0.65376   0.00000  Uiso   1.00
C299   C     0.29291   0.76791   0.67236   0.00000  Uiso   1.00
H300   H     0.40564   0.18964   0.61311   0.00000  Uiso   1.00
H301   H     0.52515   0.20749   0.66930   0.00000  Uiso   1.00
H302   H     0.36343   0.20754   0.51623   0.00000  Uiso   1.00
H303   H     0.32831   0.20752   0.65377   0.00000  Uiso   1.00
H304   H     0.65765   0.14273   0.73158   0.00000  Uiso   1.00
H305   H     0.31663   0.14285   0.40882   0.00000  Uiso   1.00
H306   H     0.24258   0.14281   0.69885   0.00000  Uiso   1.00
H307   H     0.40561   0.53821   0.61310   0.00000  Uiso   1.00
H308   H     0.52513   0.52030   0.66929   0.00000  Uiso   1.00
H309   H     0.36341   0.52036   0.51622   0.00000  Uiso   1.00
H310   H     0.32829   0.52034   0.65375   0.00000  Uiso   1.00
H311   H     0.65763   0.58499   0.73157   0.00000  Uiso   1.00
H312   H     0.31661   0.58511   0.40881   0.00000  Uiso   1.00
H313   H     0.24257   0.58506   0.69883   0.00000  Uiso   1.00
O314   O     0.73626   0.86383   0.76852   0.00000  Uiso   1.00
O315   O     0.28885   0.86399   0.34508   0.00000  Uiso   1.00
O316   O     0.19171   0.86394   0.72559   0.00000  Uiso   1.00
N317   N     0.64124   0.01392   0.72387   0.00000  Uiso   1.00
N318   N     0.32242   0.01403   0.42212   0.00000  Uiso   1.00
N319   N     0.25318   0.01400   0.69325   0.00000  Uiso   1.00
N320   N     0.64123   0.71380   0.72387   0.00000  Uiso   1.00
N321   N     0.32241   0.71392   0.42211   0.00000  Uiso   1.00
N322   N     0.25317   0.71388   0.69324   0.00000  Uiso   1.00
C323   C     0.21694   0.54059   0.11727   0.00000  Uiso   1.00
C324   C     0.18032   0.45998   0.14415   0.00000  Uiso   1.00
C325   C     0.14952   0.55938   0.16673   0.00000  Uiso   1.00
C326   C     0.11868   0.46018   0.18934   0.00000  Uiso   1.00
C327   C     0.06178   0.36417   0.23105   0.00000  Uiso   1.00
C328   C     0.18785   0.45996   0.06442   0.00000  Uiso   1.00
C329   C     0.16339   0.55935   0.01997   0.00000  Uiso   1.00
C330   C     0.13890   0.46012   0.97547   0.00000  Uiso   1.00
C331   C     0.09374   0.36408   0.89340   0.00000  Uiso   1.00
C332   C     0.28265   0.45997   0.14326   0.00000  Uiso   1.00
C333   C     0.33791   0.55936   0.16509   0.00000  Uiso   1.00
C334   C     0.39324   0.46013   0.18695   0.00000  Uiso   1.00
C335   C     0.49527   0.36411   0.22729   0.00000  Uiso   1.00
C336   C     0.21694   0.18765   0.11728   0.00000  Uiso   1.00
C337   C     0.18032   0.26828   0.14414   0.00000  Uiso   1.00
C338   C     0.14952   0.16890   0.16673   0.00000  Uiso   1.00
C339   C     0.11868   0.26813   0.18935   0.00000  Uiso   1.00
C340   C     0.18785   0.26827   0.06442   0.00000  Uiso   1.00
C341   C     0.16339   0.16886   0.01997   0.00000  Uiso   1.00
C342   C     0.13890   0.26807   0.97547   0.00000  Uiso   1.00
C343   C     0.28265   0.26827   0.14326   0.00000  Uiso   1.00
C344   C     0.33791   0.16887   0.16509   0.00000  Uiso   1.00
C345   C     0.39324   0.26809   0.18695   0.00000  Uiso   1.00
H346   H     0.21694   0.68984   0.11727   0.00000  Uiso   1.00
H347   H     0.14953   0.70774   0.16672   0.00000  Uiso   1.00
H348   H     0.16341   0.70769   0.01998   0.00000  Uiso   1.00
H349   H     0.33789   0.70770   0.16508   0.00000  Uiso   1.00
H350   H     0.07476   0.64304   0.22152   0.00000  Uiso   1.00
H351   H     0.10404   0.64296   0.91212   0.00000  Uiso   1.00
H352   H     0.47199   0.64298   0.21809   0.00000  Uiso   1.00
H353   H     0.21694   0.03840   0.11728   0.00000  Uiso   1.00
H354   H     0.14952   0.02055   0.16673   0.00000  Uiso   1.00
H355   H     0.16340   0.02051   0.01999   0.00000  Uiso   1.00
H356   H     0.33789   0.02052   0.16509   0.00000  Uiso   1.00
H357   H     0.07476   0.08529   0.22153   0.00000  Uiso   1.00
H358   H     0.10404   0.08521   0.91213   0.00000  Uiso   1.00
H359   H     0.47198   0.08523   0.21809   0.00000  Uiso   1.00
O360   O     0.03039   0.36417   0.25404   0.00000  Uiso   1.00
O361   O     0.06882   0.36407   0.84812   0.00000  Uiso   1.00
O362   O     0.55155   0.36410   0.24954   0.00000  Uiso   1.00
N363   N     0.08402   0.51422   0.21475   0.00000  Uiso   1.00
N364   N     0.11139   0.51415   0.92548   0.00000  Uiso   1.00
N365   N     0.45539   0.51417   0.21151   0.00000  Uiso   1.00
N366   N     0.08402   0.21410   0.21475   0.00000  Uiso   1.00
N367   N     0.11139   0.21403   0.92548   0.00000  Uiso   1.00
N368   N     0.45539   0.21405   0.21152   0.00000  Uiso   1.00
