data_job_01814
_audit_creation_date              2018-12-19
_audit_creation_method            'Materials Studio'
_symmetry_space_group_name_H-M    'P1'
_symmetry_Int_Tables_number       1
_symmetry_cell_setting            triclinic
loop_
_symmetry_equiv_pos_as_xyz
  x,y,z
_cell_length_a                    25.4054
_cell_length_b                    25.4054
_cell_length_c                    8.3834
_cell_angle_alpha                 90.0000
_cell_angle_beta                  90.0000
_cell_angle_gamma                 90.0000
loop_
_atom_site_label
_atom_site_type_symbol
_atom_site_fract_x
_atom_site_fract_y
_atom_site_fract_z
_atom_site_U_iso_or_equiv
_atom_site_adp_type
_atom_site_occupancy
C1     C     0.23743   0.07127   0.61645   0.00000  Uiso   1.00
C2     C     0.22652   0.10541   0.47055   0.00000  Uiso   1.00
C3     C     0.22394   0.15997   0.46905   0.00000  Uiso   1.00
C4     C     0.21351   0.18387   0.32350   0.00000  Uiso   1.00
C5     C     0.19770   0.24140   0.11810   0.00000  Uiso   1.00
C6     C     0.19108   0.03336   0.62945   0.00000  Uiso   1.00
C7     C     0.15872   0.02735   0.76157   0.00000  Uiso   1.00
C8     C     0.11846   0.99059   0.74979   0.00000  Uiso   1.00
C9     C     0.04766   0.93623   0.79114   0.00000  Uiso   1.00
C10    C     0.28512   0.03762   0.57406   0.00000  Uiso   1.00
C11    C     0.33182   0.03517   0.65962   0.00000  Uiso   1.00
C12    C     0.37074   0.00198   0.60122   0.00000  Uiso   1.00
C13    C     0.44594   0.95424   0.55656   0.00000  Uiso   1.00
C14    C     0.22349   0.01668   0.36064   0.00000  Uiso   1.00
C15    C     0.21894   0.07576   0.33161   0.00000  Uiso   1.00
C16    C     0.20852   0.09958   0.18602   0.00000  Uiso   1.00
C17    C     0.20593   0.15417   0.18430   0.00000  Uiso   1.00
C18    C     0.18351   0.00372   0.49051   0.00000  Uiso   1.00
C19    C     0.14329   0.96696   0.47854   0.00000  Uiso   1.00
C20    C     0.11088   0.96089   0.61060   0.00000  Uiso   1.00
C21    C     0.27755   0.00797   0.43511   0.00000  Uiso   1.00
C22    C     0.31640   0.97478   0.37658   0.00000  Uiso   1.00
C23    C     0.36315   0.97228   0.46203   0.00000  Uiso   1.00
H24    H     0.24332   0.09435   0.72463   0.00000  Uiso   1.00
H25    H     0.22980   0.18290   0.57661   0.00000  Uiso   1.00
H26    H     0.16459   0.05029   0.86908   0.00000  Uiso   1.00
H27    H     0.33767   0.05812   0.76713   0.00000  Uiso   1.00
H28    H     0.21145   0.26801   0.35122   0.00000  Uiso   1.00
H29    H     0.07397   0.98838   0.96795   0.00000  Uiso   1.00
H30    H     0.43893   0.00488   0.75298   0.00000  Uiso   1.00
H31    H     0.21759   0.99360   0.25246   0.00000  Uiso   1.00
H32    H     0.20266   0.07663   0.07852   0.00000  Uiso   1.00
H33    H     0.13745   0.94402   0.37100   0.00000  Uiso   1.00
H34    H     0.31053   0.95184   0.26905   0.00000  Uiso   1.00
H35    H     0.18942   0.18175   0.94696   0.00000  Uiso   1.00
H36    H     0.05194   0.90212   0.56369   0.00000  Uiso   1.00
H37    H     0.41690   0.91862   0.34872   0.00000  Uiso   1.00
O38    O     0.19106   0.28132   0.04320   0.00000  Uiso   1.00
O39    O     0.01069   0.91444   0.85233   0.00000  Uiso   1.00
O40    O     0.48952   0.93610   0.57029   0.00000  Uiso   1.00
N41    N     0.20832   0.23631   0.27995   0.00000  Uiso   1.00
N42    N     0.07978   0.97488   0.85654   0.00000  Uiso   1.00
N43    N     0.42099   0.99030   0.65559   0.00000  Uiso   1.00
N44    N     0.19647   0.18990   0.06241   0.00000  Uiso   1.00
N45    N     0.06793   0.92847   0.63901   0.00000  Uiso   1.00
N46    N     0.40913   0.94388   0.43805   0.00000  Uiso   1.00
C47    C     0.76257   0.92873   0.61645   0.00000  Uiso   1.00
C48    C     0.77348   0.89459   0.47055   0.00000  Uiso   1.00
C49    C     0.77606   0.84003   0.46905   0.00000  Uiso   1.00
C50    C     0.78649   0.81613   0.32350   0.00000  Uiso   1.00
C51    C     0.80230   0.75860   0.11810   0.00000  Uiso   1.00
C52    C     0.80892   0.96664   0.62945   0.00000  Uiso   1.00
C53    C     0.84128   0.97265   0.76157   0.00000  Uiso   1.00
C54    C     0.88154   0.00941   0.74979   0.00000  Uiso   1.00
C55    C     0.95234   0.06377   0.79114   0.00000  Uiso   1.00
C56    C     0.71488   0.96238   0.57406   0.00000  Uiso   1.00
C57    C     0.66818   0.96483   0.65962   0.00000  Uiso   1.00
C58    C     0.62926   0.99802   0.60122   0.00000  Uiso   1.00
C59    C     0.55406   0.04576   0.55656   0.00000  Uiso   1.00
C60    C     0.77651   0.98332   0.36064   0.00000  Uiso   1.00
C61    C     0.78106   0.92424   0.33161   0.00000  Uiso   1.00
C62    C     0.79148   0.90042   0.18602   0.00000  Uiso   1.00
C63    C     0.79407   0.84583   0.18430   0.00000  Uiso   1.00
C64    C     0.81649   0.99628   0.49051   0.00000  Uiso   1.00
C65    C     0.85671   0.03304   0.47854   0.00000  Uiso   1.00
C66    C     0.88912   0.03911   0.61060   0.00000  Uiso   1.00
C67    C     0.72245   0.99203   0.43511   0.00000  Uiso   1.00
C68    C     0.68360   0.02522   0.37658   0.00000  Uiso   1.00
C69    C     0.63685   0.02772   0.46203   0.00000  Uiso   1.00
H70    H     0.75668   0.90565   0.72463   0.00000  Uiso   1.00
H71    H     0.77020   0.81710   0.57661   0.00000  Uiso   1.00
H72    H     0.83541   0.94971   0.86908   0.00000  Uiso   1.00
H73    H     0.66233   0.94188   0.76713   0.00000  Uiso   1.00
H74    H     0.78855   0.73199   0.35122   0.00000  Uiso   1.00
H75    H     0.92603   0.01162   0.96795   0.00000  Uiso   1.00
H76    H     0.56107   0.99512   0.75298   0.00000  Uiso   1.00
H77    H     0.78241   0.00640   0.25246   0.00000  Uiso   1.00
H78    H     0.79734   0.92337   0.07852   0.00000  Uiso   1.00
H79    H     0.86255   0.05598   0.37100   0.00000  Uiso   1.00
H80    H     0.68947   0.04816   0.26905   0.00000  Uiso   1.00
H81    H     0.81058   0.81825   0.94696   0.00000  Uiso   1.00
H82    H     0.94806   0.09788   0.56369   0.00000  Uiso   1.00
H83    H     0.58310   0.08138   0.34872   0.00000  Uiso   1.00
O84    O     0.80894   0.71868   0.04320   0.00000  Uiso   1.00
O85    O     0.98931   0.08556   0.85233   0.00000  Uiso   1.00
O86    O     0.51048   0.06390   0.57029   0.00000  Uiso   1.00
N87    N     0.79168   0.76369   0.27995   0.00000  Uiso   1.00
N88    N     0.92022   0.02512   0.85654   0.00000  Uiso   1.00
N89    N     0.57901   0.00970   0.65559   0.00000  Uiso   1.00
N90    N     0.80353   0.81010   0.06241   0.00000  Uiso   1.00
N91    N     0.93207   0.07153   0.63901   0.00000  Uiso   1.00
N92    N     0.59087   0.05612   0.43805   0.00000  Uiso   1.00
C93    C     0.07127   0.76257   0.38355   0.00000  Uiso   1.00
C94    C     0.10541   0.77348   0.52945   0.00000  Uiso   1.00
C95    C     0.15997   0.77606   0.53095   0.00000  Uiso   1.00
C96    C     0.18387   0.78649   0.67650   0.00000  Uiso   1.00
C97    C     0.24140   0.80230   0.88190   0.00000  Uiso   1.00
C98    C     0.03336   0.80892   0.37055   0.00000  Uiso   1.00
C99    C     0.02735   0.84128   0.23843   0.00000  Uiso   1.00
C100   C     0.99059   0.88154   0.25021   0.00000  Uiso   1.00
C101   C     0.93623   0.95234   0.20886   0.00000  Uiso   1.00
C102   C     0.03762   0.71488   0.42594   0.00000  Uiso   1.00
C103   C     0.03517   0.66818   0.34038   0.00000  Uiso   1.00
C104   C     0.00198   0.62926   0.39878   0.00000  Uiso   1.00
C105   C     0.95424   0.55406   0.44344   0.00000  Uiso   1.00
C106   C     0.01668   0.77651   0.63936   0.00000  Uiso   1.00
C107   C     0.07576   0.78106   0.66839   0.00000  Uiso   1.00
C108   C     0.09958   0.79148   0.81398   0.00000  Uiso   1.00
C109   C     0.15417   0.79407   0.81570   0.00000  Uiso   1.00
C110   C     0.00372   0.81649   0.50949   0.00000  Uiso   1.00
C111   C     0.96696   0.85671   0.52146   0.00000  Uiso   1.00
C112   C     0.96089   0.88912   0.38940   0.00000  Uiso   1.00
C113   C     0.00797   0.72245   0.56489   0.00000  Uiso   1.00
C114   C     0.97478   0.68360   0.62342   0.00000  Uiso   1.00
C115   C     0.97228   0.63685   0.53797   0.00000  Uiso   1.00
H116   H     0.09435   0.75668   0.27537   0.00000  Uiso   1.00
H117   H     0.18290   0.77020   0.42339   0.00000  Uiso   1.00
H118   H     0.05029   0.83541   0.13092   0.00000  Uiso   1.00
H119   H     0.05812   0.66233   0.23287   0.00000  Uiso   1.00
H120   H     0.26801   0.78855   0.64878   0.00000  Uiso   1.00
H121   H     0.98838   0.92603   0.03205   0.00000  Uiso   1.00
H122   H     0.00488   0.56107   0.24702   0.00000  Uiso   1.00
H123   H     0.99360   0.78241   0.74754   0.00000  Uiso   1.00
H124   H     0.07663   0.79734   0.92148   0.00000  Uiso   1.00
H125   H     0.94402   0.86255   0.62900   0.00000  Uiso   1.00
H126   H     0.95184   0.68947   0.73095   0.00000  Uiso   1.00
H127   H     0.18175   0.81058   0.05304   0.00000  Uiso   1.00
H128   H     0.90212   0.94806   0.43631   0.00000  Uiso   1.00
H129   H     0.91862   0.58310   0.65128   0.00000  Uiso   1.00
O130   O     0.28132   0.80894   0.95680   0.00000  Uiso   1.00
O131   O     0.91444   0.98931   0.14767   0.00000  Uiso   1.00
O132   O     0.93610   0.51048   0.42971   0.00000  Uiso   1.00
N133   N     0.23631   0.79168   0.72005   0.00000  Uiso   1.00
N134   N     0.97488   0.92022   0.14346   0.00000  Uiso   1.00
N135   N     0.99030   0.57901   0.34441   0.00000  Uiso   1.00
N136   N     0.18990   0.80353   0.93759   0.00000  Uiso   1.00
N137   N     0.92847   0.93207   0.36099   0.00000  Uiso   1.00
N138   N     0.94388   0.59087   0.56195   0.00000  Uiso   1.00
C139   C     0.92873   0.23743   0.38355   0.00000  Uiso   1.00
C140   C     0.89459   0.22652   0.52945   0.00000  Uiso   1.00
C141   C     0.84003   0.22394   0.53095   0.00000  Uiso   1.00
C142   C     0.81613   0.21351   0.67650   0.00000  Uiso   1.00
C143   C     0.75860   0.19770   0.88190   0.00000  Uiso   1.00
C144   C     0.96664   0.19108   0.37055   0.00000  Uiso   1.00
C145   C     0.97265   0.15872   0.23843   0.00000  Uiso   1.00
C146   C     0.00941   0.11846   0.25021   0.00000  Uiso   1.00
C147   C     0.06377   0.04766   0.20886   0.00000  Uiso   1.00
C148   C     0.96238   0.28512   0.42594   0.00000  Uiso   1.00
C149   C     0.96483   0.33182   0.34038   0.00000  Uiso   1.00
C150   C     0.99802   0.37074   0.39878   0.00000  Uiso   1.00
C151   C     0.04576   0.44594   0.44344   0.00000  Uiso   1.00
C152   C     0.98332   0.22349   0.63936   0.00000  Uiso   1.00
C153   C     0.92424   0.21894   0.66839   0.00000  Uiso   1.00
C154   C     0.90042   0.20852   0.81398   0.00000  Uiso   1.00
C155   C     0.84583   0.20593   0.81570   0.00000  Uiso   1.00
C156   C     0.99628   0.18351   0.50949   0.00000  Uiso   1.00
C157   C     0.03304   0.14329   0.52146   0.00000  Uiso   1.00
C158   C     0.03911   0.11088   0.38940   0.00000  Uiso   1.00
C159   C     0.99203   0.27755   0.56489   0.00000  Uiso   1.00
C160   C     0.02522   0.31640   0.62342   0.00000  Uiso   1.00
C161   C     0.02772   0.36315   0.53797   0.00000  Uiso   1.00
H162   H     0.90565   0.24332   0.27537   0.00000  Uiso   1.00
H163   H     0.81710   0.22980   0.42339   0.00000  Uiso   1.00
H164   H     0.94971   0.16459   0.13092   0.00000  Uiso   1.00
H165   H     0.94188   0.33767   0.23287   0.00000  Uiso   1.00
H166   H     0.73199   0.21145   0.64878   0.00000  Uiso   1.00
H167   H     0.01162   0.07397   0.03205   0.00000  Uiso   1.00
H168   H     0.99512   0.43893   0.24702   0.00000  Uiso   1.00
H169   H     0.00640   0.21759   0.74754   0.00000  Uiso   1.00
H170   H     0.92337   0.20266   0.92148   0.00000  Uiso   1.00
H171   H     0.05598   0.13745   0.62900   0.00000  Uiso   1.00
H172   H     0.04816   0.31053   0.73095   0.00000  Uiso   1.00
H173   H     0.81825   0.18942   0.05304   0.00000  Uiso   1.00
H174   H     0.09788   0.05194   0.43631   0.00000  Uiso   1.00
H175   H     0.08138   0.41690   0.65128   0.00000  Uiso   1.00
O176   O     0.71868   0.19106   0.95680   0.00000  Uiso   1.00
O177   O     0.08556   0.01069   0.14767   0.00000  Uiso   1.00
O178   O     0.06390   0.48952   0.42971   0.00000  Uiso   1.00
N179   N     0.76369   0.20832   0.72005   0.00000  Uiso   1.00
N180   N     0.02512   0.07978   0.14346   0.00000  Uiso   1.00
N181   N     0.00970   0.42099   0.34441   0.00000  Uiso   1.00
N182   N     0.81010   0.19647   0.93759   0.00000  Uiso   1.00
N183   N     0.07153   0.06793   0.36099   0.00000  Uiso   1.00
N184   N     0.05612   0.40913   0.56195   0.00000  Uiso   1.00
C185   C     0.26257   0.57127   0.88355   0.00000  Uiso   1.00
C186   C     0.27348   0.60541   0.02945   0.00000  Uiso   1.00
C187   C     0.27606   0.65997   0.03095   0.00000  Uiso   1.00
C188   C     0.28649   0.68387   0.17650   0.00000  Uiso   1.00
C189   C     0.30230   0.74140   0.38190   0.00000  Uiso   1.00
C190   C     0.30892   0.53336   0.87055   0.00000  Uiso   1.00
C191   C     0.34128   0.52735   0.73843   0.00000  Uiso   1.00
C192   C     0.38154   0.49059   0.75021   0.00000  Uiso   1.00
C193   C     0.45234   0.43623   0.70886   0.00000  Uiso   1.00
C194   C     0.21488   0.53762   0.92594   0.00000  Uiso   1.00
C195   C     0.16818   0.53517   0.84038   0.00000  Uiso   1.00
C196   C     0.12926   0.50198   0.89878   0.00000  Uiso   1.00
C197   C     0.05406   0.45424   0.94344   0.00000  Uiso   1.00
C198   C     0.27651   0.51668   0.13936   0.00000  Uiso   1.00
C199   C     0.28106   0.57576   0.16839   0.00000  Uiso   1.00
C200   C     0.29148   0.59958   0.31398   0.00000  Uiso   1.00
C201   C     0.29407   0.65417   0.31570   0.00000  Uiso   1.00
C202   C     0.31649   0.50372   0.00949   0.00000  Uiso   1.00
C203   C     0.35671   0.46696   0.02146   0.00000  Uiso   1.00
C204   C     0.38912   0.46089   0.88940   0.00000  Uiso   1.00
C205   C     0.22245   0.50797   0.06489   0.00000  Uiso   1.00
C206   C     0.18360   0.47478   0.12342   0.00000  Uiso   1.00
C207   C     0.13685   0.47228   0.03797   0.00000  Uiso   1.00
H208   H     0.25668   0.59435   0.77537   0.00000  Uiso   1.00
H209   H     0.27020   0.68290   0.92339   0.00000  Uiso   1.00
H210   H     0.33541   0.55029   0.63092   0.00000  Uiso   1.00
H211   H     0.16233   0.55812   0.73287   0.00000  Uiso   1.00
H212   H     0.28855   0.76801   0.14878   0.00000  Uiso   1.00
H213   H     0.42603   0.48838   0.53205   0.00000  Uiso   1.00
H214   H     0.06107   0.50488   0.74702   0.00000  Uiso   1.00
H215   H     0.28241   0.49360   0.24754   0.00000  Uiso   1.00
H216   H     0.29734   0.57663   0.42148   0.00000  Uiso   1.00
H217   H     0.36255   0.44402   0.12900   0.00000  Uiso   1.00
H218   H     0.18947   0.45184   0.23095   0.00000  Uiso   1.00
H219   H     0.31058   0.68175   0.55304   0.00000  Uiso   1.00
H220   H     0.44806   0.40212   0.93631   0.00000  Uiso   1.00
H221   H     0.08310   0.41862   0.15128   0.00000  Uiso   1.00
O222   O     0.30894   0.78132   0.45680   0.00000  Uiso   1.00
O223   O     0.48931   0.41444   0.64767   0.00000  Uiso   1.00
O224   O     0.01048   0.43610   0.92971   0.00000  Uiso   1.00
N225   N     0.29168   0.73631   0.22005   0.00000  Uiso   1.00
N226   N     0.42022   0.47488   0.64346   0.00000  Uiso   1.00
N227   N     0.07901   0.49030   0.84441   0.00000  Uiso   1.00
N228   N     0.30353   0.68990   0.43759   0.00000  Uiso   1.00
N229   N     0.43207   0.42847   0.86099   0.00000  Uiso   1.00
N230   N     0.09087   0.44388   0.06195   0.00000  Uiso   1.00
C231   C     0.73743   0.42873   0.88355   0.00000  Uiso   1.00
C232   C     0.72652   0.39459   0.02945   0.00000  Uiso   1.00
C233   C     0.72394   0.34003   0.03095   0.00000  Uiso   1.00
C234   C     0.71351   0.31613   0.17650   0.00000  Uiso   1.00
C235   C     0.69770   0.25860   0.38190   0.00000  Uiso   1.00
C236   C     0.69108   0.46664   0.87055   0.00000  Uiso   1.00
C237   C     0.65872   0.47265   0.73843   0.00000  Uiso   1.00
C238   C     0.61846   0.50941   0.75021   0.00000  Uiso   1.00
C239   C     0.54766   0.56377   0.70886   0.00000  Uiso   1.00
C240   C     0.78512   0.46238   0.92594   0.00000  Uiso   1.00
C241   C     0.83182   0.46483   0.84038   0.00000  Uiso   1.00
C242   C     0.87074   0.49802   0.89878   0.00000  Uiso   1.00
C243   C     0.94594   0.54576   0.94344   0.00000  Uiso   1.00
C244   C     0.72349   0.48332   0.13936   0.00000  Uiso   1.00
C245   C     0.71894   0.42424   0.16839   0.00000  Uiso   1.00
C246   C     0.70852   0.40042   0.31398   0.00000  Uiso   1.00
C247   C     0.70593   0.34583   0.31570   0.00000  Uiso   1.00
C248   C     0.68351   0.49628   0.00949   0.00000  Uiso   1.00
C249   C     0.64329   0.53304   0.02146   0.00000  Uiso   1.00
C250   C     0.61088   0.53911   0.88940   0.00000  Uiso   1.00
C251   C     0.77755   0.49203   0.06489   0.00000  Uiso   1.00
C252   C     0.81640   0.52522   0.12342   0.00000  Uiso   1.00
C253   C     0.86315   0.52772   0.03797   0.00000  Uiso   1.00
H254   H     0.74332   0.40565   0.77537   0.00000  Uiso   1.00
H255   H     0.72980   0.31710   0.92339   0.00000  Uiso   1.00
H256   H     0.66459   0.44971   0.63092   0.00000  Uiso   1.00
H257   H     0.83767   0.44188   0.73287   0.00000  Uiso   1.00
H258   H     0.71145   0.23199   0.14878   0.00000  Uiso   1.00
H259   H     0.57397   0.51162   0.53205   0.00000  Uiso   1.00
H260   H     0.93893   0.49512   0.74702   0.00000  Uiso   1.00
H261   H     0.71759   0.50640   0.24754   0.00000  Uiso   1.00
H262   H     0.70266   0.42337   0.42148   0.00000  Uiso   1.00
H263   H     0.63745   0.55598   0.12900   0.00000  Uiso   1.00
H264   H     0.81053   0.54816   0.23095   0.00000  Uiso   1.00
H265   H     0.68942   0.31825   0.55304   0.00000  Uiso   1.00
H266   H     0.55194   0.59788   0.93631   0.00000  Uiso   1.00
H267   H     0.91690   0.58138   0.15128   0.00000  Uiso   1.00
O268   O     0.69106   0.21868   0.45680   0.00000  Uiso   1.00
O269   O     0.51069   0.58556   0.64767   0.00000  Uiso   1.00
O270   O     0.98952   0.56390   0.92971   0.00000  Uiso   1.00
N271   N     0.70832   0.26369   0.22005   0.00000  Uiso   1.00
N272   N     0.57978   0.52512   0.64346   0.00000  Uiso   1.00
N273   N     0.92099   0.50970   0.84441   0.00000  Uiso   1.00
N274   N     0.69647   0.31010   0.43759   0.00000  Uiso   1.00
N275   N     0.56793   0.57153   0.86099   0.00000  Uiso   1.00
N276   N     0.90913   0.55612   0.06195   0.00000  Uiso   1.00
C277   C     0.42873   0.26257   0.11645   0.00000  Uiso   1.00
C278   C     0.39459   0.27348   0.97055   0.00000  Uiso   1.00
C279   C     0.34003   0.27606   0.96905   0.00000  Uiso   1.00
C280   C     0.31613   0.28649   0.82350   0.00000  Uiso   1.00
C281   C     0.25860   0.30230   0.61810   0.00000  Uiso   1.00
C282   C     0.46664   0.30892   0.12945   0.00000  Uiso   1.00
C283   C     0.47265   0.34128   0.26157   0.00000  Uiso   1.00
C284   C     0.50941   0.38154   0.24979   0.00000  Uiso   1.00
C285   C     0.56377   0.45234   0.29114   0.00000  Uiso   1.00
C286   C     0.46238   0.21488   0.07406   0.00000  Uiso   1.00
C287   C     0.46483   0.16818   0.15962   0.00000  Uiso   1.00
C288   C     0.49802   0.12926   0.10122   0.00000  Uiso   1.00
C289   C     0.54576   0.05406   0.05656   0.00000  Uiso   1.00
C290   C     0.48332   0.27651   0.86064   0.00000  Uiso   1.00
C291   C     0.42424   0.28106   0.83161   0.00000  Uiso   1.00
C292   C     0.40042   0.29148   0.68602   0.00000  Uiso   1.00
C293   C     0.34583   0.29407   0.68430   0.00000  Uiso   1.00
C294   C     0.49628   0.31649   0.99051   0.00000  Uiso   1.00
C295   C     0.53304   0.35671   0.97854   0.00000  Uiso   1.00
C296   C     0.53911   0.38912   0.11060   0.00000  Uiso   1.00
C297   C     0.49203   0.22245   0.93511   0.00000  Uiso   1.00
C298   C     0.52522   0.18360   0.87658   0.00000  Uiso   1.00
C299   C     0.52772   0.13685   0.96203   0.00000  Uiso   1.00
H300   H     0.40565   0.25668   0.22463   0.00000  Uiso   1.00
H301   H     0.31710   0.27020   0.07661   0.00000  Uiso   1.00
H302   H     0.44971   0.33541   0.36908   0.00000  Uiso   1.00
H303   H     0.44188   0.16233   0.26713   0.00000  Uiso   1.00
H304   H     0.23199   0.28855   0.85122   0.00000  Uiso   1.00
H305   H     0.51162   0.42603   0.46795   0.00000  Uiso   1.00
H306   H     0.49512   0.06107   0.25298   0.00000  Uiso   1.00
H307   H     0.50640   0.28241   0.75246   0.00000  Uiso   1.00
H308   H     0.42337   0.29734   0.57852   0.00000  Uiso   1.00
H309   H     0.55598   0.36255   0.87100   0.00000  Uiso   1.00
H310   H     0.54816   0.18947   0.76905   0.00000  Uiso   1.00
H311   H     0.31825   0.31058   0.44696   0.00000  Uiso   1.00
H312   H     0.59788   0.44806   0.06369   0.00000  Uiso   1.00
H313   H     0.58138   0.08310   0.84872   0.00000  Uiso   1.00
O314   O     0.21868   0.30894   0.54320   0.00000  Uiso   1.00
O315   O     0.58556   0.48931   0.35233   0.00000  Uiso   1.00
O316   O     0.56390   0.01048   0.07029   0.00000  Uiso   1.00
N317   N     0.26369   0.29168   0.77995   0.00000  Uiso   1.00
N318   N     0.52512   0.42022   0.35654   0.00000  Uiso   1.00
N319   N     0.50970   0.07901   0.15559   0.00000  Uiso   1.00
N320   N     0.31010   0.30353   0.56241   0.00000  Uiso   1.00
N321   N     0.57153   0.43207   0.13901   0.00000  Uiso   1.00
N322   N     0.55612   0.09087   0.93805   0.00000  Uiso   1.00
C323   C     0.57127   0.73743   0.11645   0.00000  Uiso   1.00
C324   C     0.60541   0.72652   0.97055   0.00000  Uiso   1.00
C325   C     0.65997   0.72394   0.96905   0.00000  Uiso   1.00
C326   C     0.68387   0.71351   0.82350   0.00000  Uiso   1.00
C327   C     0.74140   0.69770   0.61810   0.00000  Uiso   1.00
C328   C     0.53336   0.69108   0.12945   0.00000  Uiso   1.00
C329   C     0.52735   0.65872   0.26157   0.00000  Uiso   1.00
C330   C     0.49059   0.61846   0.24979   0.00000  Uiso   1.00
C331   C     0.43623   0.54766   0.29114   0.00000  Uiso   1.00
C332   C     0.53762   0.78512   0.07406   0.00000  Uiso   1.00
C333   C     0.53517   0.83182   0.15962   0.00000  Uiso   1.00
C334   C     0.50198   0.87074   0.10122   0.00000  Uiso   1.00
C335   C     0.45424   0.94594   0.05656   0.00000  Uiso   1.00
C336   C     0.51668   0.72349   0.86064   0.00000  Uiso   1.00
C337   C     0.57576   0.71894   0.83161   0.00000  Uiso   1.00
C338   C     0.59958   0.70852   0.68602   0.00000  Uiso   1.00
C339   C     0.65417   0.70593   0.68430   0.00000  Uiso   1.00
C340   C     0.50372   0.68351   0.99051   0.00000  Uiso   1.00
C341   C     0.46696   0.64329   0.97854   0.00000  Uiso   1.00
C342   C     0.46089   0.61088   0.11060   0.00000  Uiso   1.00
C343   C     0.50797   0.77755   0.93511   0.00000  Uiso   1.00
C344   C     0.47478   0.81640   0.87658   0.00000  Uiso   1.00
C345   C     0.47228   0.86315   0.96203   0.00000  Uiso   1.00
H346   H     0.59435   0.74332   0.22463   0.00000  Uiso   1.00
H347   H     0.68290   0.72980   0.07661   0.00000  Uiso   1.00
H348   H     0.55029   0.66459   0.36908   0.00000  Uiso   1.00
H349   H     0.55812   0.83767   0.26713   0.00000  Uiso   1.00
H350   H     0.76801   0.71145   0.85122   0.00000  Uiso   1.00
H351   H     0.48838   0.57397   0.46795   0.00000  Uiso   1.00
H352   H     0.50488   0.93893   0.25298   0.00000  Uiso   1.00
H353   H     0.49360   0.71759   0.75246   0.00000  Uiso   1.00
H354   H     0.57663   0.70266   0.57852   0.00000  Uiso   1.00
H355   H     0.44402   0.63745   0.87100   0.00000  Uiso   1.00
H356   H     0.45184   0.81053   0.76905   0.00000  Uiso   1.00
H357   H     0.68175   0.68942   0.44696   0.00000  Uiso   1.00
H358   H     0.40212   0.55194   0.06369   0.00000  Uiso   1.00
H359   H     0.41862   0.91690   0.84872   0.00000  Uiso   1.00
O360   O     0.78132   0.69106   0.54320   0.00000  Uiso   1.00
O361   O     0.41444   0.51069   0.35233   0.00000  Uiso   1.00
O362   O     0.43610   0.98952   0.07029   0.00000  Uiso   1.00
N363   N     0.73631   0.70832   0.77995   0.00000  Uiso   1.00
N364   N     0.47488   0.57978   0.35654   0.00000  Uiso   1.00
N365   N     0.49030   0.92099   0.15559   0.00000  Uiso   1.00
N366   N     0.68990   0.69647   0.56241   0.00000  Uiso   1.00
N367   N     0.42847   0.56793   0.13901   0.00000  Uiso   1.00
N368   N     0.44388   0.90913   0.93805   0.00000  Uiso   1.00
