data_job_03738
_audit_creation_date              2018-12-19
_audit_creation_method            'Materials Studio'
_symmetry_space_group_name_H-M    'P1'
_symmetry_Int_Tables_number       1
_symmetry_cell_setting            triclinic
loop_
_symmetry_equiv_pos_as_xyz
  x,y,z
_cell_length_a                    27.6289
_cell_length_b                    13.2506
_cell_length_c                    17.7899
_cell_angle_alpha                 90.0000
_cell_angle_beta                  143.9701
_cell_angle_gamma                 90.0000
loop_
_atom_site_label
_atom_site_type_symbol
_atom_site_fract_x
_atom_site_fract_y
_atom_site_fract_z
_atom_site_U_iso_or_equiv
_atom_site_adp_type
_atom_site_occupancy
C1     C     0.75468   0.55917   0.83668   0.00000  Uiso   1.00
C2     C     0.74527   0.54018   0.74076   0.00000  Uiso   1.00
C3     C     0.72127   0.44988   0.67773   0.00000  Uiso   1.00
C4     C     0.71638   0.44781   0.59369   0.00000  Uiso   1.00
C5     C     0.69900   0.40534   0.44787   0.00000  Uiso   1.00
C6     C     0.84273   0.59596   0.95856   0.00000  Uiso   1.00
C7     C     0.90065   0.55257   0.07866   0.00000  Uiso   1.00
C8     C     0.97779   0.59748   0.17797   0.00000  Uiso   1.00
C9     C     0.11169   0.64166   0.37031   0.00000  Uiso   1.00
C10    C     0.69936   0.64890   0.78525   0.00000  Uiso   1.00
C11    C     0.63675   0.65004   0.75967   0.00000  Uiso   1.00
C12    C     0.59320   0.73953   0.71309   0.00000  Uiso   1.00
C13    C     0.50450   0.86590   0.63635   0.00000  Uiso   1.00
C14    C     0.78869   0.71608   0.79951   0.00000  Uiso   1.00
C15    C     0.76375   0.62540   0.72057   0.00000  Uiso   1.00
C16    C     0.75889   0.62348   0.63660   0.00000  Uiso   1.00
C17    C     0.73488   0.53319   0.57346   0.00000  Uiso   1.00
C18    C     0.86120   0.68118   0.93838   0.00000  Uiso   1.00
C19    C     0.93827   0.72617   0.03753   0.00000  Uiso   1.00
C20    C     0.99630   0.68286   0.15775   0.00000  Uiso   1.00
C21    C     0.71783   0.73413   0.76506   0.00000  Uiso   1.00
C22    C     0.67437   0.82364   0.71854   0.00000  Uiso   1.00
C23    C     0.61171   0.82491   0.69287   0.00000  Uiso   1.00
H24    H     0.74031   0.49282   0.85240   0.00000  Uiso   1.00
H25    H     0.70699   0.38394   0.69339   0.00000  Uiso   1.00
H26    H     0.88633   0.48663   0.09425   0.00000  Uiso   1.00
H27    H     0.62247   0.58407   0.77530   0.00000  Uiso   1.00
H28    H     0.67822   0.30079   0.50822   0.00000  Uiso   1.00
H29    H     0.05638   0.51734   0.35348   0.00000  Uiso   1.00
H30    H     0.49998   0.72283   0.68091   0.00000  Uiso   1.00
H31    H     0.80307   0.78243   0.78379   0.00000  Uiso   1.00
H32    H     0.77319   0.68944   0.62100   0.00000  Uiso   1.00
H33    H     0.95254   0.79213   0.02188   0.00000  Uiso   1.00
H34    H     0.68869   0.88957   0.70292   0.00000  Uiso   1.00
H35    H     0.73196   0.54875   0.44947   0.00000  Uiso   1.00
H36    H     0.11012   0.76530   0.29474   0.00000  Uiso   1.00
H37    H     0.55372   0.97078   0.62217   0.00000  Uiso   1.00
O38    O     0.68433   0.35836   0.37303   0.00000  Uiso   1.00
O39    O     0.18045   0.64247   0.48198   0.00000  Uiso   1.00
O40    O     0.45047   0.91206   0.59958   0.00000  Uiso   1.00
N41    N     0.69495   0.37192   0.51671   0.00000  Uiso   1.00
N42    N     0.04851   0.57436   0.30698   0.00000  Uiso   1.00
N43    N     0.52834   0.76648   0.67822   0.00000  Uiso   1.00
N44    N     0.72387   0.50534   0.48510   0.00000  Uiso   1.00
N45    N     0.07743   0.70779   0.27537   0.00000  Uiso   1.00
N46    N     0.55726   0.89991   0.64661   0.00000  Uiso   1.00
C47    C     0.25468   0.05917   0.83668   0.00000  Uiso   1.00
C48    C     0.24527   0.04018   0.74076   0.00000  Uiso   1.00
C49    C     0.22127   0.94988   0.67773   0.00000  Uiso   1.00
C50    C     0.21638   0.94781   0.59369   0.00000  Uiso   1.00
C51    C     0.19900   0.90534   0.44787   0.00000  Uiso   1.00
C52    C     0.34273   0.09596   0.95856   0.00000  Uiso   1.00
C53    C     0.40065   0.05257   0.07866   0.00000  Uiso   1.00
C54    C     0.47779   0.09748   0.17797   0.00000  Uiso   1.00
C55    C     0.61169   0.14166   0.37031   0.00000  Uiso   1.00
C56    C     0.19936   0.14890   0.78525   0.00000  Uiso   1.00
C57    C     0.13675   0.15004   0.75967   0.00000  Uiso   1.00
C58    C     0.09320   0.23953   0.71309   0.00000  Uiso   1.00
C59    C     0.00450   0.36590   0.63635   0.00000  Uiso   1.00
C60    C     0.28869   0.21608   0.79951   0.00000  Uiso   1.00
C61    C     0.26375   0.12540   0.72057   0.00000  Uiso   1.00
C62    C     0.25889   0.12348   0.63660   0.00000  Uiso   1.00
C63    C     0.23488   0.03319   0.57346   0.00000  Uiso   1.00
C64    C     0.36120   0.18118   0.93838   0.00000  Uiso   1.00
C65    C     0.43827   0.22617   0.03753   0.00000  Uiso   1.00
C66    C     0.49630   0.18286   0.15775   0.00000  Uiso   1.00
C67    C     0.21783   0.23413   0.76506   0.00000  Uiso   1.00
C68    C     0.17437   0.32364   0.71854   0.00000  Uiso   1.00
C69    C     0.11171   0.32491   0.69287   0.00000  Uiso   1.00
H70    H     0.24031   0.99282   0.85240   0.00000  Uiso   1.00
H71    H     0.20699   0.88394   0.69339   0.00000  Uiso   1.00
H72    H     0.38633   0.98663   0.09425   0.00000  Uiso   1.00
H73    H     0.12247   0.08407   0.77530   0.00000  Uiso   1.00
H74    H     0.17822   0.80079   0.50822   0.00000  Uiso   1.00
H75    H     0.55638   0.01734   0.35348   0.00000  Uiso   1.00
H76    H     0.99998   0.22283   0.68091   0.00000  Uiso   1.00
H77    H     0.30307   0.28243   0.78379   0.00000  Uiso   1.00
H78    H     0.27319   0.18944   0.62100   0.00000  Uiso   1.00
H79    H     0.45254   0.29213   0.02188   0.00000  Uiso   1.00
H80    H     0.18869   0.38957   0.70292   0.00000  Uiso   1.00
H81    H     0.23196   0.04875   0.44947   0.00000  Uiso   1.00
H82    H     0.61012   0.26530   0.29474   0.00000  Uiso   1.00
H83    H     0.05372   0.47078   0.62217   0.00000  Uiso   1.00
O84    O     0.18433   0.85836   0.37303   0.00000  Uiso   1.00
O85    O     0.68045   0.14247   0.48198   0.00000  Uiso   1.00
O86    O     0.95047   0.41206   0.59958   0.00000  Uiso   1.00
N87    N     0.19495   0.87192   0.51671   0.00000  Uiso   1.00
N88    N     0.54851   0.07436   0.30698   0.00000  Uiso   1.00
N89    N     0.02834   0.26648   0.67822   0.00000  Uiso   1.00
N90    N     0.22387   0.00534   0.48510   0.00000  Uiso   1.00
N91    N     0.57743   0.20779   0.27537   0.00000  Uiso   1.00
N92    N     0.05726   0.39991   0.64661   0.00000  Uiso   1.00
C93    C     0.24532   0.55917   0.16332   0.00000  Uiso   1.00
C94    C     0.25473   0.54018   0.25924   0.00000  Uiso   1.00
C95    C     0.27873   0.44988   0.32227   0.00000  Uiso   1.00
C96    C     0.28362   0.44781   0.40631   0.00000  Uiso   1.00
C97    C     0.30100   0.40534   0.55213   0.00000  Uiso   1.00
C98    C     0.15727   0.59596   0.04144   0.00000  Uiso   1.00
C99    C     0.09935   0.55257   0.92134   0.00000  Uiso   1.00
C100   C     0.02221   0.59748   0.82203   0.00000  Uiso   1.00
C101   C     0.88831   0.64166   0.62969   0.00000  Uiso   1.00
C102   C     0.30064   0.64890   0.21475   0.00000  Uiso   1.00
C103   C     0.36325   0.65004   0.24033   0.00000  Uiso   1.00
C104   C     0.40680   0.73953   0.28691   0.00000  Uiso   1.00
C105   C     0.49550   0.86590   0.36365   0.00000  Uiso   1.00
C106   C     0.21131   0.71608   0.20049   0.00000  Uiso   1.00
C107   C     0.23625   0.62540   0.27943   0.00000  Uiso   1.00
C108   C     0.24111   0.62348   0.36340   0.00000  Uiso   1.00
C109   C     0.26512   0.53319   0.42654   0.00000  Uiso   1.00
C110   C     0.13880   0.68118   0.06162   0.00000  Uiso   1.00
C111   C     0.06173   0.72617   0.96247   0.00000  Uiso   1.00
C112   C     0.00370   0.68286   0.84225   0.00000  Uiso   1.00
C113   C     0.28217   0.73413   0.23494   0.00000  Uiso   1.00
C114   C     0.32563   0.82364   0.28146   0.00000  Uiso   1.00
C115   C     0.38829   0.82491   0.30713   0.00000  Uiso   1.00
H116   H     0.25969   0.49282   0.14760   0.00000  Uiso   1.00
H117   H     0.29301   0.38394   0.30661   0.00000  Uiso   1.00
H118   H     0.11367   0.48663   0.90575   0.00000  Uiso   1.00
H119   H     0.37753   0.58407   0.22470   0.00000  Uiso   1.00
H120   H     0.32178   0.30079   0.49178   0.00000  Uiso   1.00
H121   H     0.94362   0.51734   0.64652   0.00000  Uiso   1.00
H122   H     0.50002   0.72283   0.31909   0.00000  Uiso   1.00
H123   H     0.19693   0.78243   0.21621   0.00000  Uiso   1.00
H124   H     0.22681   0.68944   0.37900   0.00000  Uiso   1.00
H125   H     0.04746   0.79213   0.97812   0.00000  Uiso   1.00
H126   H     0.31131   0.88957   0.29708   0.00000  Uiso   1.00
H127   H     0.26804   0.54875   0.55053   0.00000  Uiso   1.00
H128   H     0.88988   0.76530   0.70526   0.00000  Uiso   1.00
H129   H     0.44628   0.97078   0.37783   0.00000  Uiso   1.00
O130   O     0.31567   0.35836   0.62697   0.00000  Uiso   1.00
O131   O     0.81955   0.64247   0.51802   0.00000  Uiso   1.00
O132   O     0.54953   0.91206   0.40042   0.00000  Uiso   1.00
N133   N     0.30505   0.37192   0.48329   0.00000  Uiso   1.00
N134   N     0.95149   0.57436   0.69302   0.00000  Uiso   1.00
N135   N     0.47166   0.76648   0.32178   0.00000  Uiso   1.00
N136   N     0.27613   0.50534   0.51490   0.00000  Uiso   1.00
N137   N     0.92257   0.70779   0.72463   0.00000  Uiso   1.00
N138   N     0.44274   0.89991   0.35339   0.00000  Uiso   1.00
C139   C     0.74532   0.05917   0.16332   0.00000  Uiso   1.00
C140   C     0.75473   0.04018   0.25924   0.00000  Uiso   1.00
C141   C     0.77873   0.94988   0.32227   0.00000  Uiso   1.00
C142   C     0.78362   0.94781   0.40631   0.00000  Uiso   1.00
C143   C     0.80100   0.90534   0.55213   0.00000  Uiso   1.00
C144   C     0.65727   0.09596   0.04144   0.00000  Uiso   1.00
C145   C     0.59935   0.05257   0.92134   0.00000  Uiso   1.00
C146   C     0.52221   0.09748   0.82203   0.00000  Uiso   1.00
C147   C     0.38831   0.14166   0.62969   0.00000  Uiso   1.00
C148   C     0.80064   0.14890   0.21475   0.00000  Uiso   1.00
C149   C     0.86325   0.15004   0.24033   0.00000  Uiso   1.00
C150   C     0.90680   0.23953   0.28691   0.00000  Uiso   1.00
C151   C     0.99550   0.36590   0.36365   0.00000  Uiso   1.00
C152   C     0.71131   0.21608   0.20049   0.00000  Uiso   1.00
C153   C     0.73625   0.12540   0.27943   0.00000  Uiso   1.00
C154   C     0.74111   0.12348   0.36340   0.00000  Uiso   1.00
C155   C     0.76512   0.03319   0.42654   0.00000  Uiso   1.00
C156   C     0.63880   0.18118   0.06162   0.00000  Uiso   1.00
C157   C     0.56173   0.22617   0.96247   0.00000  Uiso   1.00
C158   C     0.50370   0.18286   0.84225   0.00000  Uiso   1.00
C159   C     0.78217   0.23413   0.23494   0.00000  Uiso   1.00
C160   C     0.82563   0.32364   0.28146   0.00000  Uiso   1.00
C161   C     0.88829   0.32491   0.30713   0.00000  Uiso   1.00
H162   H     0.75969   0.99282   0.14760   0.00000  Uiso   1.00
H163   H     0.79301   0.88394   0.30661   0.00000  Uiso   1.00
H164   H     0.61367   0.98663   0.90575   0.00000  Uiso   1.00
H165   H     0.87753   0.08407   0.22470   0.00000  Uiso   1.00
H166   H     0.82178   0.80079   0.49178   0.00000  Uiso   1.00
H167   H     0.44362   0.01734   0.64652   0.00000  Uiso   1.00
H168   H     0.00002   0.22283   0.31909   0.00000  Uiso   1.00
H169   H     0.69693   0.28243   0.21621   0.00000  Uiso   1.00
H170   H     0.72681   0.18944   0.37900   0.00000  Uiso   1.00
H171   H     0.54746   0.29213   0.97812   0.00000  Uiso   1.00
H172   H     0.81131   0.38957   0.29708   0.00000  Uiso   1.00
H173   H     0.76804   0.04875   0.55053   0.00000  Uiso   1.00
H174   H     0.38988   0.26530   0.70526   0.00000  Uiso   1.00
H175   H     0.94628   0.47078   0.37783   0.00000  Uiso   1.00
O176   O     0.81567   0.85836   0.62697   0.00000  Uiso   1.00
O177   O     0.31955   0.14247   0.51802   0.00000  Uiso   1.00
O178   O     0.04953   0.41206   0.40042   0.00000  Uiso   1.00
N179   N     0.80505   0.87192   0.48329   0.00000  Uiso   1.00
N180   N     0.45149   0.07436   0.69302   0.00000  Uiso   1.00
N181   N     0.97166   0.26648   0.32178   0.00000  Uiso   1.00
N182   N     0.77613   0.00534   0.51490   0.00000  Uiso   1.00
N183   N     0.42257   0.20779   0.72463   0.00000  Uiso   1.00
N184   N     0.94274   0.39991   0.35339   0.00000  Uiso   1.00
