data_job_04340
_audit_creation_date              2018-12-19
_audit_creation_method            'Materials Studio'
_symmetry_space_group_name_H-M    'P1'
_symmetry_Int_Tables_number       1
_symmetry_cell_setting            triclinic
loop_
_symmetry_equiv_pos_as_xyz
  x,y,z
_cell_length_a                    16.5550
_cell_length_b                    20.7479
_cell_length_c                    12.4009
_cell_angle_alpha                 88.7121
_cell_angle_beta                  106.3730
_cell_angle_gamma                 92.6024
loop_
_atom_site_label
_atom_site_type_symbol
_atom_site_fract_x
_atom_site_fract_y
_atom_site_fract_z
_atom_site_U_iso_or_equiv
_atom_site_adp_type
_atom_site_occupancy
C1     C     0.26675   0.01782   0.81604   0.00000  Uiso   1.00
C2     C     0.20296   0.99271   0.70953   0.00000  Uiso   1.00
C3     C     0.18526   0.02217   0.60435   0.00000  Uiso   1.00
C4     C     0.12481   0.99156   0.51762   0.00000  Uiso   1.00
C5     C     0.03200   0.96142   0.34954   0.00000  Uiso   1.00
C6     C     0.21797   0.02397   0.90262   0.00000  Uiso   1.00
C7     C     0.21292   0.07972   0.95979   0.00000  Uiso   1.00
C8     C     0.16512   0.07542   0.03562   0.00000  Uiso   1.00
C9     C     0.09568   0.09380   0.16736   0.00000  Uiso   1.00
C10    C     0.32729   0.96362   0.85859   0.00000  Uiso   1.00
C11    C     0.41416   0.96861   0.87877   0.00000  Uiso   1.00
C12    C     0.45840   0.91350   0.91756   0.00000  Uiso   1.00
C13    C     0.55869   0.83817   0.98094   0.00000  Uiso   1.00
C14    C     0.19086   0.91108   0.84907   0.00000  Uiso   1.00
C15    C     0.16174   0.93474   0.72748   0.00000  Uiso   1.00
C16    C     0.10130   0.90407   0.64089   0.00000  Uiso   1.00
C17    C     0.08352   0.93348   0.53559   0.00000  Uiso   1.00
C18    C     0.17676   0.96600   0.92057   0.00000  Uiso   1.00
C19    C     0.12896   0.96162   0.99634   0.00000  Uiso   1.00
C20    C     0.12382   0.01734   0.05359   0.00000  Uiso   1.00
C21    C     0.28607   0.90564   0.87654   0.00000  Uiso   1.00
C22    C     0.33019   0.85051   0.91531   0.00000  Uiso   1.00
C23    C     0.41710   0.85542   0.93554   0.00000  Uiso   1.00
H24    H     0.29883   0.06296   0.80207   0.00000  Uiso   1.00
H25    H     0.21717   0.06704   0.59050   0.00000  Uiso   1.00
H26    H     0.24483   0.12457   0.94589   0.00000  Uiso   1.00
H27    H     0.44603   0.01348   0.86488   0.00000  Uiso   1.00
H28    H     0.10842   0.04602   0.36385   0.00000  Uiso   1.00
H29    H     0.16678   0.16732   0.11324   0.00000  Uiso   1.00
H30    H     0.59105   0.93307   0.94242   0.00000  Uiso   1.00
H31    H     0.15876   0.86594   0.86305   0.00000  Uiso   1.00
H32    H     0.06941   0.85921   0.65481   0.00000  Uiso   1.00
H33    H     0.09707   0.91674   0.01020   0.00000  Uiso   1.00
H34    H     0.29827   0.80566   0.92919   0.00000  Uiso   1.00
H35    H     0.98849   0.87733   0.41604   0.00000  Uiso   1.00
H36    H     0.04685   0.99864   0.16545   0.00000  Uiso   1.00
H37    H     0.47112   0.76439   0.99461   0.00000  Uiso   1.00
O38    O     0.99219   0.96082   0.25187   0.00000  Uiso   1.00
O39    O     0.06876   0.11996   0.23506   0.00000  Uiso   1.00
O40    O     0.62539   0.81263   0.01093   0.00000  Uiso   1.00
N41    N     0.09247   0.00723   0.40470   0.00000  Uiso   1.00
N42    N     0.14702   0.12065   0.10533   0.00000  Uiso   1.00
N43    N     0.54368   0.90165   0.94565   0.00000  Uiso   1.00
N44    N     0.02794   0.91647   0.43279   0.00000  Uiso   1.00
N45    N     0.08249   0.02988   0.13342   0.00000  Uiso   1.00
N46    N     0.47915   0.81088   0.97374   0.00000  Uiso   1.00
C47    C     0.90894   0.69010   0.82900   0.00000  Uiso   1.00
C48    C     0.84006   0.71355   0.72792   0.00000  Uiso   1.00
C49    C     0.85262   0.75214   0.64074   0.00000  Uiso   1.00
C50    C     0.78141   0.76835   0.55607   0.00000  Uiso   1.00
C51    C     0.68675   0.80808   0.39876   0.00000  Uiso   1.00
C52    C     0.88640   0.71274   0.93265   0.00000  Uiso   1.00
C53    C     0.93794   0.75065   0.01761   0.00000  Uiso   1.00
C54    C     0.90575   0.76618   0.10528   0.00000  Uiso   1.00
C55    C     0.88306   0.80463   0.26585   0.00000  Uiso   1.00
C56    C     0.89839   0.61671   0.82963   0.00000  Uiso   1.00
C57    C     0.96002   0.57387   0.82800   0.00000  Uiso   1.00
C58    C     0.93793   0.50854   0.82896   0.00000  Uiso   1.00
C59    C     0.93385   0.39787   0.82958   0.00000  Uiso   1.00
C60    C     0.76014   0.65026   0.83365   0.00000  Uiso   1.00
C61    C     0.75924   0.69191   0.73045   0.00000  Uiso   1.00
C62    C     0.68799   0.70806   0.64588   0.00000  Uiso   1.00
C63    C     0.70045   0.74667   0.55859   0.00000  Uiso   1.00
C64    C     0.80558   0.69111   0.93517   0.00000  Uiso   1.00
C65    C     0.77331   0.70658   0.02274   0.00000  Uiso   1.00
C66    C     0.82478   0.74451   0.10781   0.00000  Uiso   1.00
C67    C     0.81757   0.59507   0.83215   0.00000  Uiso   1.00
C68    C     0.79538   0.52979   0.83313   0.00000  Uiso   1.00
C69    C     0.85696   0.48686   0.83149   0.00000  Uiso   1.00
H70    H     0.97186   0.70694   0.82705   0.00000  Uiso   1.00
H71    H     0.91518   0.76888   0.63883   0.00000  Uiso   1.00
H72    H     0.00048   0.76739   0.01563   0.00000  Uiso   1.00
H73    H     0.02255   0.59063   0.82604   0.00000  Uiso   1.00
H74    H     0.81668   0.82802   0.43129   0.00000  Uiso   1.00
H75    H     0.99657   0.82486   0.22582   0.00000  Uiso   1.00
H76    H     0.04311   0.45213   0.82604   0.00000  Uiso   1.00
H77    H     0.69722   0.63341   0.83562   0.00000  Uiso   1.00
H78    H     0.62546   0.69131   0.64786   0.00000  Uiso   1.00
H79    H     0.71077   0.68982   0.02467   0.00000  Uiso   1.00
H80    H     0.73284   0.51306   0.83508   0.00000  Uiso   1.00
H81    H     0.58153   0.76507   0.43862   0.00000  Uiso   1.00
H82    H     0.76143   0.76190   0.23316   0.00000  Uiso   1.00
H83    H     0.80796   0.38917   0.83337   0.00000  Uiso   1.00
O84    O     0.65685   0.83598   0.31131   0.00000  Uiso   1.00
O85    O     0.89287   0.83182   0.35372   0.00000  Uiso   1.00
O86    O     0.95392   0.34280   0.82920   0.00000  Uiso   1.00
N87    N     0.77119   0.80525   0.45877   0.00000  Uiso   1.00
N88    N     0.93937   0.80230   0.20160   0.00000  Uiso   1.00
N89    N     0.98289   0.45383   0.82787   0.00000  Uiso   1.00
N90    N     0.64466   0.77137   0.46271   0.00000  Uiso   1.00
N91    N     0.81284   0.76842   0.20555   0.00000  Uiso   1.00
N92    N     0.85636   0.41995   0.83182   0.00000  Uiso   1.00
C93    C     0.59336   0.17892   0.65627   0.00000  Uiso   1.00
C94    C     0.65914   0.21182   0.75308   0.00000  Uiso   1.00
C95    C     0.64237   0.24866   0.83569   0.00000  Uiso   1.00
C96    C     0.71126   0.27465   0.91695   0.00000  Uiso   1.00
C97    C     0.80083   0.32736   0.06745   0.00000  Uiso   1.00
C98    C     0.61207   0.20406   0.54896   0.00000  Uiso   1.00
C99    C     0.55571   0.23437   0.45994   0.00000  Uiso   1.00
C100   C     0.58497   0.25382   0.36936   0.00000  Uiso   1.00
C101   C     0.60143   0.29445   0.20293   0.00000  Uiso   1.00
C102   C     0.61316   0.10760   0.66499   0.00000  Uiso   1.00
C103   C     0.55771   0.05681   0.67351   0.00000  Uiso   1.00
C104   C     0.58789   0.99505   0.68060   0.00000  Uiso   1.00
C105   C     0.60605   0.88591   0.69433   0.00000  Uiso   1.00
C106   C     0.74554   0.15954   0.65368   0.00000  Uiso   1.00
C107   C     0.74180   0.20129   0.75167   0.00000  Uiso   1.00
C108   C     0.81074   0.22723   0.83283   0.00000  Uiso   1.00
C109   C     0.79407   0.26411   0.91555   0.00000  Uiso   1.00
C110   C     0.69472   0.19354   0.54755   0.00000  Uiso   1.00
C111   C     0.72407   0.21294   0.45708   0.00000  Uiso   1.00
C112   C     0.66778   0.24328   0.36796   0.00000  Uiso   1.00
C113   C     0.69582   0.09708   0.66359   0.00000  Uiso   1.00
C114   C     0.72608   0.03538   0.67066   0.00000  Uiso   1.00
C115   C     0.67070   0.98451   0.67919   0.00000  Uiso   1.00
H116   H     0.52901   0.18711   0.65735   0.00000  Uiso   1.00
H117   H     0.57839   0.25680   0.83674   0.00000  Uiso   1.00
H118   H     0.49174   0.24251   0.46105   0.00000  Uiso   1.00
H119   H     0.49375   0.06497   0.67459   0.00000  Uiso   1.00
H120   H     0.66960   0.32944   0.03498   0.00000  Uiso   1.00
H121   H     0.48688   0.29928   0.24279   0.00000  Uiso   1.00
H122   H     0.49112   0.92492   0.69309   0.00000  Uiso   1.00
H123   H     0.80989   0.15135   0.65259   0.00000  Uiso   1.00
H124   H     0.87470   0.21908   0.83172   0.00000  Uiso   1.00
H125   H     0.78804   0.20478   0.45602   0.00000  Uiso   1.00
H126   H     0.79005   0.02725   0.66957   0.00000  Uiso   1.00
H127   H     0.91009   0.29883   0.03090   0.00000  Uiso   1.00
H128   H     0.72737   0.26867   0.23871   0.00000  Uiso   1.00
H129   H     0.73160   0.89431   0.68901   0.00000  Uiso   1.00
O130   O     0.82740   0.35935   0.15084   0.00000  Uiso   1.00
O131   O     0.58768   0.31977   0.11152   0.00000  Uiso   1.00
O132   O     0.59324   0.82862   0.70230   0.00000  Uiso   1.00
N133   N     0.71731   0.31293   0.00945   0.00000  Uiso   1.00
N134   N     0.54648   0.28474   0.26881   0.00000  Uiso   1.00
N135   N     0.55043   0.93475   0.68977   0.00000  Uiso   1.00
N136   N     0.84671   0.29646   0.00726   0.00000  Uiso   1.00
N137   N     0.67588   0.26827   0.26662   0.00000  Uiso   1.00
N138   N     0.67984   0.91827   0.68758   0.00000  Uiso   1.00
C139   C     0.23930   0.51843   0.68632   0.00000  Uiso   1.00
C140   C     0.30002   0.49214   0.79298   0.00000  Uiso   1.00
C141   C     0.32172   0.52088   0.89777   0.00000  Uiso   1.00
C142   C     0.37837   0.48923   0.98473   0.00000  Uiso   1.00
C143   C     0.46757   0.45729   0.15297   0.00000  Uiso   1.00
C144   C     0.28855   0.52445   0.59931   0.00000  Uiso   1.00
C145   C     0.30059   0.58037   0.54127   0.00000  Uiso   1.00
C146   C     0.34757   0.57590   0.46518   0.00000  Uiso   1.00
C147   C     0.41891   0.59413   0.33269   0.00000  Uiso   1.00
C148   C     0.17181   0.46513   0.64478   0.00000  Uiso   1.00
C149   C     0.08569   0.47118   0.62494   0.00000  Uiso   1.00
C150   C     0.03437   0.41677   0.58711   0.00000  Uiso   1.00
C151   C     0.92445   0.34289   0.52522   0.00000  Uiso   1.00
C152   C     0.30130   0.41108   0.65439   0.00000  Uiso   1.00
C153   C     0.33370   0.43383   0.77563   0.00000  Uiso   1.00
C154   C     0.39032   0.40211   0.86245   0.00000  Uiso   1.00
C155   C     0.41210   0.43081   0.96736   0.00000  Uiso   1.00
C156   C     0.32223   0.46615   0.58197   0.00000  Uiso   1.00
C157   C     0.36919   0.46160   0.50594   0.00000  Uiso   1.00
C158   C     0.38131   0.51749   0.44781   0.00000  Uiso   1.00
C159   C     0.20549   0.40682   0.62744   0.00000  Uiso   1.00
C160   C     0.15429   0.35240   0.58962   0.00000  Uiso   1.00
C161   C     0.06811   0.35836   0.56973   0.00000  Uiso   1.00
H162   H     0.21308   0.56382   0.69981   0.00000  Uiso   1.00
H163   H     0.29565   0.56601   0.91116   0.00000  Uiso   1.00
H164   H     0.27452   0.62548   0.55470   0.00000  Uiso   1.00
H165   H     0.05965   0.51631   0.63837   0.00000  Uiso   1.00
H166   H     0.40208   0.54274   0.13782   0.00000  Uiso   1.00
H167   H     0.35749   0.66812   0.38617   0.00000  Uiso   1.00
H168   H     0.90440   0.43791   0.56260   0.00000  Uiso   1.00
H169   H     0.32752   0.36568   0.64089   0.00000  Uiso   1.00
H170   H     0.41638   0.35699   0.84901   0.00000  Uiso   1.00
H171   H     0.39524   0.41647   0.49254   0.00000  Uiso   1.00
H172   H     0.18038   0.30729   0.57621   0.00000  Uiso   1.00
H173   H     0.50007   0.37309   0.08737   0.00000  Uiso   1.00
H174   H     0.45547   0.49848   0.33572   0.00000  Uiso   1.00
H175   H     0.00238   0.26826   0.51215   0.00000  Uiso   1.00
O176   O     0.50748   0.45579   0.25056   0.00000  Uiso   1.00
O177   O     0.44897   0.62029   0.26441   0.00000  Uiso   1.00
O178   O     0.85452   0.31825   0.49589   0.00000  Uiso   1.00
N179   N     0.41293   0.50400   0.09739   0.00000  Uiso   1.00
N180   N     0.37126   0.62123   0.39466   0.00000  Uiso   1.00
N181   N     0.94765   0.40600   0.55957   0.00000  Uiso   1.00
N182   N     0.46566   0.41271   0.07024   0.00000  Uiso   1.00
N183   N     0.42398   0.52994   0.36751   0.00000  Uiso   1.00
N184   N     0.00037   0.31472   0.53243   0.00000  Uiso   1.00
C185   C     0.73325   0.98218   0.18396   0.00000  Uiso   1.00
C186   C     0.79704   0.00729   0.29047   0.00000  Uiso   1.00
C187   C     0.81474   0.97783   0.39565   0.00000  Uiso   1.00
C188   C     0.87519   0.00844   0.48238   0.00000  Uiso   1.00
C189   C     0.96800   0.03858   0.65046   0.00000  Uiso   1.00
C190   C     0.78203   0.97603   0.09738   0.00000  Uiso   1.00
C191   C     0.78708   0.92028   0.04021   0.00000  Uiso   1.00
C192   C     0.83488   0.92458   0.96438   0.00000  Uiso   1.00
C193   C     0.90432   0.90620   0.83264   0.00000  Uiso   1.00
C194   C     0.67271   0.03638   0.14141   0.00000  Uiso   1.00
C195   C     0.58584   0.03139   0.12123   0.00000  Uiso   1.00
C196   C     0.54160   0.08650   0.08244   0.00000  Uiso   1.00
C197   C     0.44131   0.16183   0.01906   0.00000  Uiso   1.00
C198   C     0.80914   0.08892   0.15093   0.00000  Uiso   1.00
C199   C     0.83826   0.06526   0.27252   0.00000  Uiso   1.00
C200   C     0.89870   0.09593   0.35911   0.00000  Uiso   1.00
C201   C     0.91648   0.06652   0.46441   0.00000  Uiso   1.00
C202   C     0.82324   0.03400   0.07943   0.00000  Uiso   1.00
C203   C     0.87104   0.03838   0.00366   0.00000  Uiso   1.00
C204   C     0.87618   0.98266   0.94641   0.00000  Uiso   1.00
C205   C     0.71393   0.09436   0.12346   0.00000  Uiso   1.00
C206   C     0.66981   0.14949   0.08469   0.00000  Uiso   1.00
C207   C     0.58290   0.14458   0.06446   0.00000  Uiso   1.00
H208   H     0.70117   0.93704   0.19793   0.00000  Uiso   1.00
H209   H     0.78283   0.93296   0.40950   0.00000  Uiso   1.00
H210   H     0.75517   0.87543   0.05411   0.00000  Uiso   1.00
H211   H     0.55397   0.98652   0.13512   0.00000  Uiso   1.00
H212   H     0.89158   0.95398   0.63615   0.00000  Uiso   1.00
H213   H     0.83322   0.83268   0.88676   0.00000  Uiso   1.00
H214   H     0.40895   0.06693   0.05758   0.00000  Uiso   1.00
H215   H     0.84124   0.13406   0.13695   0.00000  Uiso   1.00
H216   H     0.93059   0.14079   0.34519   0.00000  Uiso   1.00
H217   H     0.90293   0.08326   0.98980   0.00000  Uiso   1.00
H218   H     0.70173   0.19434   0.07081   0.00000  Uiso   1.00
H219   H     0.01151   0.12267   0.58396   0.00000  Uiso   1.00
H220   H     0.95315   0.00136   0.83455   0.00000  Uiso   1.00
H221   H     0.52888   0.23561   0.00539   0.00000  Uiso   1.00
O222   O     0.00781   0.03918   0.74813   0.00000  Uiso   1.00
O223   O     0.93124   0.88004   0.76494   0.00000  Uiso   1.00
O224   O     0.37461   0.18737   0.98907   0.00000  Uiso   1.00
N225   N     0.90753   0.99277   0.59530   0.00000  Uiso   1.00
N226   N     0.85298   0.87935   0.89467   0.00000  Uiso   1.00
N227   N     0.45632   0.09835   0.05435   0.00000  Uiso   1.00
N228   N     0.97206   0.08353   0.56721   0.00000  Uiso   1.00
N229   N     0.91751   0.97012   0.86658   0.00000  Uiso   1.00
N230   N     0.52085   0.18912   0.02626   0.00000  Uiso   1.00
C231   C     0.09106   0.30990   0.17100   0.00000  Uiso   1.00
C232   C     0.15994   0.28645   0.27208   0.00000  Uiso   1.00
C233   C     0.14738   0.24786   0.35926   0.00000  Uiso   1.00
C234   C     0.21859   0.23165   0.44393   0.00000  Uiso   1.00
C235   C     0.31325   0.19192   0.60124   0.00000  Uiso   1.00
C236   C     0.11360   0.28726   0.06735   0.00000  Uiso   1.00
C237   C     0.06206   0.24935   0.98239   0.00000  Uiso   1.00
C238   C     0.09425   0.23382   0.89472   0.00000  Uiso   1.00
C239   C     0.11694   0.19537   0.73415   0.00000  Uiso   1.00
C240   C     0.10161   0.38329   0.17037   0.00000  Uiso   1.00
C241   C     0.03998   0.42613   0.17200   0.00000  Uiso   1.00
C242   C     0.06207   0.49146   0.17104   0.00000  Uiso   1.00
C243   C     0.06615   0.60213   0.17042   0.00000  Uiso   1.00
C244   C     0.23986   0.34974   0.16635   0.00000  Uiso   1.00
C245   C     0.24076   0.30809   0.26955   0.00000  Uiso   1.00
C246   C     0.31201   0.29194   0.35412   0.00000  Uiso   1.00
C247   C     0.29955   0.25333   0.44141   0.00000  Uiso   1.00
C248   C     0.19442   0.30889   0.06483   0.00000  Uiso   1.00
C249   C     0.22669   0.29342   0.97726   0.00000  Uiso   1.00
C250   C     0.17522   0.25549   0.89219   0.00000  Uiso   1.00
C251   C     0.18243   0.40493   0.16785   0.00000  Uiso   1.00
C252   C     0.20462   0.47021   0.16687   0.00000  Uiso   1.00
C253   C     0.14304   0.51314   0.16851   0.00000  Uiso   1.00
H254   H     0.02814   0.29306   0.17295   0.00000  Uiso   1.00
H255   H     0.08482   0.23112   0.36117   0.00000  Uiso   1.00
H256   H     0.99952   0.23261   0.98437   0.00000  Uiso   1.00
H257   H     0.97745   0.40937   0.17396   0.00000  Uiso   1.00
H258   H     0.18332   0.17198   0.56871   0.00000  Uiso   1.00
H259   H     0.00343   0.17514   0.77418   0.00000  Uiso   1.00
H260   H     0.95689   0.54787   0.17396   0.00000  Uiso   1.00
H261   H     0.30278   0.36659   0.16438   0.00000  Uiso   1.00
H262   H     0.37454   0.30869   0.35214   0.00000  Uiso   1.00
H263   H     0.28923   0.31018   0.97533   0.00000  Uiso   1.00
H264   H     0.26716   0.48694   0.16492   0.00000  Uiso   1.00
H265   H     0.41847   0.23493   0.56138   0.00000  Uiso   1.00
H266   H     0.23857   0.23810   0.76684   0.00000  Uiso   1.00
H267   H     0.19204   0.61083   0.16663   0.00000  Uiso   1.00
O268   O     0.34315   0.16402   0.68869   0.00000  Uiso   1.00
O269   O     0.10713   0.16818   0.64628   0.00000  Uiso   1.00
O270   O     0.04608   0.65720   0.17080   0.00000  Uiso   1.00
N271   N     0.22881   0.19475   0.54123   0.00000  Uiso   1.00
N272   N     0.06063   0.19770   0.79840   0.00000  Uiso   1.00
N273   N     0.01711   0.54617   0.17213   0.00000  Uiso   1.00
N274   N     0.35534   0.22863   0.53729   0.00000  Uiso   1.00
N275   N     0.18716   0.23158   0.79445   0.00000  Uiso   1.00
N276   N     0.14364   0.58005   0.16818   0.00000  Uiso   1.00
C277   C     0.40664   0.82108   0.34373   0.00000  Uiso   1.00
C278   C     0.34086   0.78818   0.24692   0.00000  Uiso   1.00
C279   C     0.35763   0.75134   0.16431   0.00000  Uiso   1.00
C280   C     0.28874   0.72535   0.08305   0.00000  Uiso   1.00
C281   C     0.19917   0.67264   0.93255   0.00000  Uiso   1.00
C282   C     0.38793   0.79594   0.45104   0.00000  Uiso   1.00
C283   C     0.44429   0.76563   0.54006   0.00000  Uiso   1.00
C284   C     0.41503   0.74618   0.63064   0.00000  Uiso   1.00
C285   C     0.39857   0.70555   0.79707   0.00000  Uiso   1.00
C286   C     0.38684   0.89240   0.33501   0.00000  Uiso   1.00
C287   C     0.44229   0.94319   0.32649   0.00000  Uiso   1.00
C288   C     0.41211   0.00495   0.31940   0.00000  Uiso   1.00
C289   C     0.39395   0.11409   0.30567   0.00000  Uiso   1.00
C290   C     0.25446   0.84046   0.34632   0.00000  Uiso   1.00
C291   C     0.25820   0.79871   0.24833   0.00000  Uiso   1.00
C292   C     0.18926   0.77277   0.16717   0.00000  Uiso   1.00
C293   C     0.20593   0.73589   0.08445   0.00000  Uiso   1.00
C294   C     0.30528   0.80646   0.45245   0.00000  Uiso   1.00
C295   C     0.27593   0.78706   0.54292   0.00000  Uiso   1.00
C296   C     0.33222   0.75672   0.63204   0.00000  Uiso   1.00
C297   C     0.30418   0.90292   0.33641   0.00000  Uiso   1.00
C298   C     0.27392   0.96462   0.32934   0.00000  Uiso   1.00
C299   C     0.32930   0.01549   0.32081   0.00000  Uiso   1.00
H300   H     0.47099   0.81289   0.34265   0.00000  Uiso   1.00
H301   H     0.42161   0.74320   0.16326   0.00000  Uiso   1.00
H302   H     0.50826   0.75749   0.53895   0.00000  Uiso   1.00
H303   H     0.50625   0.93503   0.32541   0.00000  Uiso   1.00
H304   H     0.33040   0.67056   0.96502   0.00000  Uiso   1.00
H305   H     0.51312   0.70072   0.75721   0.00000  Uiso   1.00
H306   H     0.50888   0.07508   0.30691   0.00000  Uiso   1.00
H307   H     0.19011   0.84865   0.34741   0.00000  Uiso   1.00
H308   H     0.12530   0.78092   0.16828   0.00000  Uiso   1.00
H309   H     0.21196   0.79522   0.54398   0.00000  Uiso   1.00
H310   H     0.20995   0.97275   0.33043   0.00000  Uiso   1.00
H311   H     0.08991   0.70117   0.96910   0.00000  Uiso   1.00
H312   H     0.27263   0.73133   0.76129   0.00000  Uiso   1.00
H313   H     0.26840   0.10569   0.31099   0.00000  Uiso   1.00
O314   O     0.17260   0.64065   0.84916   0.00000  Uiso   1.00
O315   O     0.41232   0.68023   0.88848   0.00000  Uiso   1.00
O316   O     0.40676   0.17138   0.29770   0.00000  Uiso   1.00
N317   N     0.28269   0.68707   0.99055   0.00000  Uiso   1.00
N318   N     0.45352   0.71526   0.73119   0.00000  Uiso   1.00
N319   N     0.44957   0.06525   0.31023   0.00000  Uiso   1.00
N320   N     0.15329   0.70354   0.99274   0.00000  Uiso   1.00
N321   N     0.32412   0.73173   0.73338   0.00000  Uiso   1.00
N322   N     0.32016   0.08173   0.31242   0.00000  Uiso   1.00
C323   C     0.76070   0.48157   0.31368   0.00000  Uiso   1.00
C324   C     0.69998   0.50786   0.20702   0.00000  Uiso   1.00
C325   C     0.67828   0.47912   0.10223   0.00000  Uiso   1.00
C326   C     0.62163   0.51077   0.01527   0.00000  Uiso   1.00
C327   C     0.53243   0.54271   0.84703   0.00000  Uiso   1.00
C328   C     0.71145   0.47555   0.40069   0.00000  Uiso   1.00
C329   C     0.69941   0.41963   0.45873   0.00000  Uiso   1.00
C330   C     0.65243   0.42410   0.53482   0.00000  Uiso   1.00
C331   C     0.58109   0.40587   0.66731   0.00000  Uiso   1.00
C332   C     0.82819   0.53487   0.35522   0.00000  Uiso   1.00
C333   C     0.91431   0.52882   0.37506   0.00000  Uiso   1.00
C334   C     0.96563   0.58323   0.41289   0.00000  Uiso   1.00
C335   C     0.07555   0.65711   0.47478   0.00000  Uiso   1.00
C336   C     0.69870   0.58892   0.34561   0.00000  Uiso   1.00
C337   C     0.66630   0.56617   0.22437   0.00000  Uiso   1.00
C338   C     0.60968   0.59789   0.13755   0.00000  Uiso   1.00
C339   C     0.58790   0.56919   0.03264   0.00000  Uiso   1.00
C340   C     0.67777   0.53385   0.41803   0.00000  Uiso   1.00
C341   C     0.63081   0.53840   0.49406   0.00000  Uiso   1.00
C342   C     0.61869   0.48251   0.55219   0.00000  Uiso   1.00
C343   C     0.79451   0.59318   0.37256   0.00000  Uiso   1.00
C344   C     0.84571   0.64760   0.41038   0.00000  Uiso   1.00
C345   C     0.93189   0.64164   0.43027   0.00000  Uiso   1.00
H346   H     0.78692   0.43618   0.30019   0.00000  Uiso   1.00
H347   H     0.70435   0.43399   0.08884   0.00000  Uiso   1.00
H348   H     0.72548   0.37452   0.44530   0.00000  Uiso   1.00
H349   H     0.94035   0.48369   0.36163   0.00000  Uiso   1.00
H350   H     0.59792   0.45726   0.86218   0.00000  Uiso   1.00
H351   H     0.64251   0.33188   0.61383   0.00000  Uiso   1.00
H352   H     0.09560   0.56209   0.43740   0.00000  Uiso   1.00
H353   H     0.67248   0.63432   0.35911   0.00000  Uiso   1.00
H354   H     0.58362   0.64301   0.15099   0.00000  Uiso   1.00
H355   H     0.60476   0.58353   0.50746   0.00000  Uiso   1.00
H356   H     0.81962   0.69271   0.42379   0.00000  Uiso   1.00
H357   H     0.49993   0.62691   0.91263   0.00000  Uiso   1.00
H358   H     0.54453   0.50152   0.66428   0.00000  Uiso   1.00
H359   H     0.99762   0.73174   0.48785   0.00000  Uiso   1.00
O360   O     0.49252   0.54421   0.74944   0.00000  Uiso   1.00
O361   O     0.55103   0.37971   0.73559   0.00000  Uiso   1.00
O362   O     0.14548   0.68175   0.50411   0.00000  Uiso   1.00
N363   N     0.58707   0.49600   0.90261   0.00000  Uiso   1.00
N364   N     0.62874   0.37877   0.60534   0.00000  Uiso   1.00
N365   N     0.05235   0.59400   0.44043   0.00000  Uiso   1.00
N366   N     0.53434   0.58729   0.92976   0.00000  Uiso   1.00
N367   N     0.57602   0.47006   0.63249   0.00000  Uiso   1.00
N368   N     0.99963   0.68528   0.46757   0.00000  Uiso   1.00
