data_job_02920
_audit_creation_date              2018-12-19
_audit_creation_method            'Materials Studio'
_symmetry_space_group_name_H-M    'P1'
_symmetry_Int_Tables_number       1
_symmetry_cell_setting            triclinic
loop_
_symmetry_equiv_pos_as_xyz
  x,y,z
_cell_length_a                    25.0289
_cell_length_b                    27.2451
_cell_length_c                    10.3338
_cell_angle_alpha                 90.0000
_cell_angle_beta                  65.8191
_cell_angle_gamma                 90.0000
loop_
_atom_site_label
_atom_site_type_symbol
_atom_site_fract_x
_atom_site_fract_y
_atom_site_fract_z
_atom_site_U_iso_or_equiv
_atom_site_adp_type
_atom_site_occupancy
C1     C     0.19550   0.36957   0.20368   0.00000  Uiso   1.00
C2     C     0.25701   0.35136   0.11106   0.00000  Uiso   1.00
C3     C     0.27516   0.33246   0.97497   0.00000  Uiso   1.00
C4     C     0.33324   0.31779   0.90793   0.00000  Uiso   1.00
C5     C     0.42289   0.28886   0.75400   0.00000  Uiso   1.00
C6     C     0.17543   0.34017   0.34107   0.00000  Uiso   1.00
C7     C     0.12499   0.31188   0.39836   0.00000  Uiso   1.00
C8     C     0.11438   0.28780   0.52495   0.00000  Uiso   1.00
C9     C     0.07736   0.24154   0.72815   0.00000  Uiso   1.00
C10    C     0.20261   0.42235   0.24316   0.00000  Uiso   1.00
C11    C     0.17500   0.46315   0.21817   0.00000  Uiso   1.00
C12    C     0.18727   0.50826   0.26236   0.00000  Uiso   1.00
C13    C     0.19244   0.58958   0.31355   0.00000  Uiso   1.00
C14    C     0.26635   0.37711   0.32663   0.00000  Uiso   1.00
C15    C     0.29549   0.35545   0.17786   0.00000  Uiso   1.00
C16    C     0.35356   0.34080   0.11100   0.00000  Uiso   1.00
C17    C     0.37179   0.32189   0.97483   0.00000  Uiso   1.00
C18    C     0.21391   0.34427   0.40786   0.00000  Uiso   1.00
C19    C     0.20338   0.32022   0.53440   0.00000  Uiso   1.00
C20    C     0.15294   0.29190   0.59186   0.00000  Uiso   1.00
C21    C     0.24109   0.42644   0.30995   0.00000  Uiso   1.00
C22    C     0.25340   0.47149   0.35420   0.00000  Uiso   1.00
C23    C     0.22583   0.51236   0.32927   0.00000  Uiso   1.00
H24    H     0.16553   0.36638   0.15169   0.00000  Uiso   1.00
H25    H     0.24536   0.32929   0.92332   0.00000  Uiso   1.00
H26    H     0.09521   0.30872   0.34666   0.00000  Uiso   1.00
H27    H     0.14522   0.45997   0.16648   0.00000  Uiso   1.00
H28    H     0.35084   0.28997   0.69961   0.00000  Uiso   1.00
H29    H     0.03422   0.24660   0.59226   0.00000  Uiso   1.00
H30    H     0.13968   0.56554   0.21233   0.00000  Uiso   1.00
H31    H     0.29631   0.38030   0.37864   0.00000  Uiso   1.00
H32    H     0.38333   0.34398   0.16271   0.00000  Uiso   1.00
H33    H     0.23317   0.32341   0.58605   0.00000  Uiso   1.00
H34    H     0.28318   0.47465   0.40588   0.00000  Uiso   1.00
H35    H     0.46282   0.30188   0.89391   0.00000  Uiso   1.00
H36    H     0.14619   0.25852   0.78657   0.00000  Uiso   1.00
H37    H     0.25166   0.57745   0.40664   0.00000  Uiso   1.00
O38    O     0.46170   0.27176   0.65065   0.00000  Uiso   1.00
O39    O     0.04630   0.21488   0.82178   0.00000  Uiso   1.00
O40    O     0.18467   0.63331   0.32332   0.00000  Uiso   1.00
N41    N     0.36526   0.29776   0.77496   0.00000  Uiso   1.00
N42    N     0.06924   0.25722   0.60952   0.00000  Uiso   1.00
N43    N     0.16783   0.55539   0.25436   0.00000  Uiso   1.00
N44    N     0.42551   0.30418   0.87951   0.00000  Uiso   1.00
N45    N     0.12949   0.26363   0.71407   0.00000  Uiso   1.00
N46    N     0.22808   0.56180   0.35891   0.00000  Uiso   1.00
C47    C     0.69550   0.86957   0.20368   0.00000  Uiso   1.00
C48    C     0.75701   0.85136   0.11106   0.00000  Uiso   1.00
C49    C     0.77516   0.83246   0.97497   0.00000  Uiso   1.00
C50    C     0.83324   0.81779   0.90793   0.00000  Uiso   1.00
C51    C     0.92289   0.78886   0.75400   0.00000  Uiso   1.00
C52    C     0.67543   0.84017   0.34107   0.00000  Uiso   1.00
C53    C     0.62499   0.81188   0.39836   0.00000  Uiso   1.00
C54    C     0.61438   0.78780   0.52495   0.00000  Uiso   1.00
C55    C     0.57736   0.74154   0.72815   0.00000  Uiso   1.00
C56    C     0.70261   0.92235   0.24316   0.00000  Uiso   1.00
C57    C     0.67500   0.96315   0.21817   0.00000  Uiso   1.00
C58    C     0.68727   0.00826   0.26236   0.00000  Uiso   1.00
C59    C     0.69244   0.08958   0.31355   0.00000  Uiso   1.00
C60    C     0.76635   0.87711   0.32663   0.00000  Uiso   1.00
C61    C     0.79549   0.85545   0.17786   0.00000  Uiso   1.00
C62    C     0.85356   0.84080   0.11100   0.00000  Uiso   1.00
C63    C     0.87179   0.82189   0.97483   0.00000  Uiso   1.00
C64    C     0.71391   0.84427   0.40786   0.00000  Uiso   1.00
C65    C     0.70338   0.82022   0.53440   0.00000  Uiso   1.00
C66    C     0.65294   0.79190   0.59186   0.00000  Uiso   1.00
C67    C     0.74109   0.92644   0.30995   0.00000  Uiso   1.00
C68    C     0.75340   0.97149   0.35420   0.00000  Uiso   1.00
C69    C     0.72583   0.01236   0.32927   0.00000  Uiso   1.00
H70    H     0.66553   0.86638   0.15169   0.00000  Uiso   1.00
H71    H     0.74536   0.82929   0.92332   0.00000  Uiso   1.00
H72    H     0.59521   0.80872   0.34666   0.00000  Uiso   1.00
H73    H     0.64522   0.95997   0.16648   0.00000  Uiso   1.00
H74    H     0.85084   0.78997   0.69961   0.00000  Uiso   1.00
H75    H     0.53422   0.74660   0.59226   0.00000  Uiso   1.00
H76    H     0.63968   0.06554   0.21233   0.00000  Uiso   1.00
H77    H     0.79631   0.88030   0.37864   0.00000  Uiso   1.00
H78    H     0.88333   0.84398   0.16271   0.00000  Uiso   1.00
H79    H     0.73317   0.82341   0.58605   0.00000  Uiso   1.00
H80    H     0.78318   0.97465   0.40588   0.00000  Uiso   1.00
H81    H     0.96282   0.80188   0.89391   0.00000  Uiso   1.00
H82    H     0.64619   0.75852   0.78657   0.00000  Uiso   1.00
H83    H     0.75166   0.07745   0.40664   0.00000  Uiso   1.00
O84    O     0.96170   0.77176   0.65065   0.00000  Uiso   1.00
O85    O     0.54630   0.71488   0.82178   0.00000  Uiso   1.00
O86    O     0.68467   0.13331   0.32332   0.00000  Uiso   1.00
N87    N     0.86526   0.79776   0.77496   0.00000  Uiso   1.00
N88    N     0.56924   0.75722   0.60952   0.00000  Uiso   1.00
N89    N     0.66783   0.05539   0.25436   0.00000  Uiso   1.00
N90    N     0.92551   0.80418   0.87951   0.00000  Uiso   1.00
N91    N     0.62949   0.76363   0.71407   0.00000  Uiso   1.00
N92    N     0.72808   0.06180   0.35891   0.00000  Uiso   1.00
C93    C     0.80450   0.36957   0.29632   0.00000  Uiso   1.00
C94    C     0.74299   0.35136   0.38894   0.00000  Uiso   1.00
C95    C     0.72484   0.33246   0.52503   0.00000  Uiso   1.00
C96    C     0.66676   0.31779   0.59207   0.00000  Uiso   1.00
C97    C     0.57711   0.28886   0.74600   0.00000  Uiso   1.00
C98    C     0.82457   0.34017   0.15893   0.00000  Uiso   1.00
C99    C     0.87501   0.31188   0.10164   0.00000  Uiso   1.00
C100   C     0.88562   0.28780   0.97505   0.00000  Uiso   1.00
C101   C     0.92264   0.24154   0.77185   0.00000  Uiso   1.00
C102   C     0.79739   0.42235   0.25684   0.00000  Uiso   1.00
C103   C     0.82500   0.46315   0.28183   0.00000  Uiso   1.00
C104   C     0.81273   0.50826   0.23764   0.00000  Uiso   1.00
C105   C     0.80756   0.58958   0.18645   0.00000  Uiso   1.00
C106   C     0.73365   0.37711   0.17337   0.00000  Uiso   1.00
C107   C     0.70451   0.35545   0.32214   0.00000  Uiso   1.00
C108   C     0.64644   0.34080   0.38900   0.00000  Uiso   1.00
C109   C     0.62821   0.32189   0.52517   0.00000  Uiso   1.00
C110   C     0.78609   0.34427   0.09214   0.00000  Uiso   1.00
C111   C     0.79662   0.32022   0.96560   0.00000  Uiso   1.00
C112   C     0.84706   0.29190   0.90814   0.00000  Uiso   1.00
C113   C     0.75891   0.42644   0.19005   0.00000  Uiso   1.00
C114   C     0.74660   0.47149   0.14580   0.00000  Uiso   1.00
C115   C     0.77417   0.51236   0.17073   0.00000  Uiso   1.00
H116   H     0.83447   0.36638   0.34831   0.00000  Uiso   1.00
H117   H     0.75464   0.32929   0.57668   0.00000  Uiso   1.00
H118   H     0.90479   0.30872   0.15334   0.00000  Uiso   1.00
H119   H     0.85478   0.45997   0.33352   0.00000  Uiso   1.00
H120   H     0.64916   0.28997   0.80039   0.00000  Uiso   1.00
H121   H     0.96578   0.24660   0.90774   0.00000  Uiso   1.00
H122   H     0.86032   0.56554   0.28767   0.00000  Uiso   1.00
H123   H     0.70369   0.38030   0.12136   0.00000  Uiso   1.00
H124   H     0.61667   0.34398   0.33729   0.00000  Uiso   1.00
H125   H     0.76683   0.32341   0.91395   0.00000  Uiso   1.00
H126   H     0.71682   0.47465   0.09412   0.00000  Uiso   1.00
H127   H     0.53718   0.30188   0.60609   0.00000  Uiso   1.00
H128   H     0.85381   0.25852   0.71343   0.00000  Uiso   1.00
H129   H     0.74834   0.57745   0.09336   0.00000  Uiso   1.00
O130   O     0.53830   0.27176   0.84935   0.00000  Uiso   1.00
O131   O     0.95370   0.21488   0.67822   0.00000  Uiso   1.00
O132   O     0.81533   0.63331   0.17668   0.00000  Uiso   1.00
N133   N     0.63474   0.29776   0.72504   0.00000  Uiso   1.00
N134   N     0.93076   0.25722   0.89048   0.00000  Uiso   1.00
N135   N     0.83217   0.55539   0.24564   0.00000  Uiso   1.00
N136   N     0.57449   0.30418   0.62049   0.00000  Uiso   1.00
N137   N     0.87051   0.26363   0.78593   0.00000  Uiso   1.00
N138   N     0.77192   0.56180   0.14109   0.00000  Uiso   1.00
C139   C     0.30450   0.86957   0.29632   0.00000  Uiso   1.00
C140   C     0.24299   0.85136   0.38894   0.00000  Uiso   1.00
C141   C     0.22484   0.83246   0.52503   0.00000  Uiso   1.00
C142   C     0.16676   0.81779   0.59207   0.00000  Uiso   1.00
C143   C     0.07711   0.78886   0.74600   0.00000  Uiso   1.00
C144   C     0.32457   0.84017   0.15893   0.00000  Uiso   1.00
C145   C     0.37501   0.81188   0.10164   0.00000  Uiso   1.00
C146   C     0.38562   0.78780   0.97505   0.00000  Uiso   1.00
C147   C     0.42264   0.74154   0.77185   0.00000  Uiso   1.00
C148   C     0.29739   0.92235   0.25684   0.00000  Uiso   1.00
C149   C     0.32500   0.96315   0.28183   0.00000  Uiso   1.00
C150   C     0.31273   0.00826   0.23764   0.00000  Uiso   1.00
C151   C     0.30756   0.08958   0.18645   0.00000  Uiso   1.00
C152   C     0.23365   0.87711   0.17337   0.00000  Uiso   1.00
C153   C     0.20451   0.85545   0.32214   0.00000  Uiso   1.00
C154   C     0.14644   0.84080   0.38900   0.00000  Uiso   1.00
C155   C     0.12821   0.82189   0.52517   0.00000  Uiso   1.00
C156   C     0.28609   0.84427   0.09214   0.00000  Uiso   1.00
C157   C     0.29662   0.82022   0.96560   0.00000  Uiso   1.00
C158   C     0.34706   0.79190   0.90814   0.00000  Uiso   1.00
C159   C     0.25891   0.92644   0.19005   0.00000  Uiso   1.00
C160   C     0.24660   0.97149   0.14580   0.00000  Uiso   1.00
C161   C     0.27417   0.01236   0.17073   0.00000  Uiso   1.00
H162   H     0.33447   0.86638   0.34831   0.00000  Uiso   1.00
H163   H     0.25464   0.82929   0.57668   0.00000  Uiso   1.00
H164   H     0.40479   0.80872   0.15334   0.00000  Uiso   1.00
H165   H     0.35478   0.95997   0.33352   0.00000  Uiso   1.00
H166   H     0.14916   0.78997   0.80039   0.00000  Uiso   1.00
H167   H     0.46578   0.74660   0.90774   0.00000  Uiso   1.00
H168   H     0.36032   0.06554   0.28767   0.00000  Uiso   1.00
H169   H     0.20369   0.88030   0.12136   0.00000  Uiso   1.00
H170   H     0.11667   0.84398   0.33729   0.00000  Uiso   1.00
H171   H     0.26683   0.82341   0.91395   0.00000  Uiso   1.00
H172   H     0.21682   0.97465   0.09412   0.00000  Uiso   1.00
H173   H     0.03718   0.80188   0.60609   0.00000  Uiso   1.00
H174   H     0.35381   0.75852   0.71343   0.00000  Uiso   1.00
H175   H     0.24834   0.07745   0.09336   0.00000  Uiso   1.00
O176   O     0.03830   0.77176   0.84935   0.00000  Uiso   1.00
O177   O     0.45370   0.71488   0.67822   0.00000  Uiso   1.00
O178   O     0.31533   0.13331   0.17668   0.00000  Uiso   1.00
N179   N     0.13474   0.79776   0.72504   0.00000  Uiso   1.00
N180   N     0.43076   0.75722   0.89048   0.00000  Uiso   1.00
N181   N     0.33217   0.05539   0.24564   0.00000  Uiso   1.00
N182   N     0.07449   0.80418   0.62049   0.00000  Uiso   1.00
N183   N     0.37051   0.76363   0.78593   0.00000  Uiso   1.00
N184   N     0.27192   0.06180   0.14109   0.00000  Uiso   1.00
C185   C     0.80450   0.63043   0.79632   0.00000  Uiso   1.00
C186   C     0.74299   0.64864   0.88894   0.00000  Uiso   1.00
C187   C     0.72484   0.66754   0.02503   0.00000  Uiso   1.00
C188   C     0.66676   0.68221   0.09207   0.00000  Uiso   1.00
C189   C     0.57711   0.71114   0.24600   0.00000  Uiso   1.00
C190   C     0.82457   0.65983   0.65893   0.00000  Uiso   1.00
C191   C     0.87501   0.68812   0.60164   0.00000  Uiso   1.00
C192   C     0.88562   0.71220   0.47505   0.00000  Uiso   1.00
C193   C     0.92264   0.75846   0.27185   0.00000  Uiso   1.00
C194   C     0.79739   0.57765   0.75684   0.00000  Uiso   1.00
C195   C     0.82500   0.53685   0.78183   0.00000  Uiso   1.00
C196   C     0.81273   0.49174   0.73764   0.00000  Uiso   1.00
C197   C     0.80756   0.41042   0.68645   0.00000  Uiso   1.00
C198   C     0.73365   0.62289   0.67337   0.00000  Uiso   1.00
C199   C     0.70451   0.64455   0.82214   0.00000  Uiso   1.00
C200   C     0.64644   0.65920   0.88900   0.00000  Uiso   1.00
C201   C     0.62821   0.67811   0.02517   0.00000  Uiso   1.00
C202   C     0.78609   0.65573   0.59214   0.00000  Uiso   1.00
C203   C     0.79662   0.67978   0.46560   0.00000  Uiso   1.00
C204   C     0.84706   0.70810   0.40814   0.00000  Uiso   1.00
C205   C     0.75891   0.57356   0.69005   0.00000  Uiso   1.00
C206   C     0.74660   0.52851   0.64580   0.00000  Uiso   1.00
C207   C     0.77417   0.48764   0.67073   0.00000  Uiso   1.00
H208   H     0.83447   0.63362   0.84831   0.00000  Uiso   1.00
H209   H     0.75464   0.67071   0.07668   0.00000  Uiso   1.00
H210   H     0.90479   0.69128   0.65334   0.00000  Uiso   1.00
H211   H     0.85478   0.54003   0.83352   0.00000  Uiso   1.00
H212   H     0.64916   0.71003   0.30039   0.00000  Uiso   1.00
H213   H     0.96578   0.75340   0.40774   0.00000  Uiso   1.00
H214   H     0.86032   0.43446   0.78767   0.00000  Uiso   1.00
H215   H     0.70369   0.61970   0.62136   0.00000  Uiso   1.00
H216   H     0.61667   0.65602   0.83729   0.00000  Uiso   1.00
H217   H     0.76683   0.67659   0.41395   0.00000  Uiso   1.00
H218   H     0.71682   0.52535   0.59412   0.00000  Uiso   1.00
H219   H     0.53718   0.69812   0.10609   0.00000  Uiso   1.00
H220   H     0.85381   0.74148   0.21343   0.00000  Uiso   1.00
H221   H     0.74834   0.42255   0.59336   0.00000  Uiso   1.00
O222   O     0.53830   0.72824   0.34935   0.00000  Uiso   1.00
O223   O     0.95370   0.78512   0.17822   0.00000  Uiso   1.00
O224   O     0.81533   0.36669   0.67668   0.00000  Uiso   1.00
N225   N     0.63474   0.70224   0.22504   0.00000  Uiso   1.00
N226   N     0.93076   0.74278   0.39048   0.00000  Uiso   1.00
N227   N     0.83217   0.44461   0.74564   0.00000  Uiso   1.00
N228   N     0.57449   0.69582   0.12049   0.00000  Uiso   1.00
N229   N     0.87051   0.73637   0.28593   0.00000  Uiso   1.00
N230   N     0.77192   0.43820   0.64109   0.00000  Uiso   1.00
C231   C     0.30450   0.13043   0.79632   0.00000  Uiso   1.00
C232   C     0.24299   0.14864   0.88894   0.00000  Uiso   1.00
C233   C     0.22484   0.16754   0.02503   0.00000  Uiso   1.00
C234   C     0.16676   0.18221   0.09207   0.00000  Uiso   1.00
C235   C     0.07711   0.21114   0.24600   0.00000  Uiso   1.00
C236   C     0.32457   0.15983   0.65893   0.00000  Uiso   1.00
C237   C     0.37501   0.18812   0.60164   0.00000  Uiso   1.00
C238   C     0.38562   0.21220   0.47505   0.00000  Uiso   1.00
C239   C     0.42264   0.25846   0.27185   0.00000  Uiso   1.00
C240   C     0.29739   0.07765   0.75684   0.00000  Uiso   1.00
C241   C     0.32500   0.03685   0.78183   0.00000  Uiso   1.00
C242   C     0.31273   0.99174   0.73764   0.00000  Uiso   1.00
C243   C     0.30756   0.91042   0.68645   0.00000  Uiso   1.00
C244   C     0.23365   0.12289   0.67337   0.00000  Uiso   1.00
C245   C     0.20451   0.14455   0.82214   0.00000  Uiso   1.00
C246   C     0.14644   0.15920   0.88900   0.00000  Uiso   1.00
C247   C     0.12821   0.17811   0.02517   0.00000  Uiso   1.00
C248   C     0.28609   0.15573   0.59214   0.00000  Uiso   1.00
C249   C     0.29662   0.17978   0.46560   0.00000  Uiso   1.00
C250   C     0.34706   0.20810   0.40814   0.00000  Uiso   1.00
C251   C     0.25891   0.07356   0.69005   0.00000  Uiso   1.00
C252   C     0.24660   0.02851   0.64580   0.00000  Uiso   1.00
C253   C     0.27417   0.98764   0.67073   0.00000  Uiso   1.00
H254   H     0.33447   0.13362   0.84831   0.00000  Uiso   1.00
H255   H     0.25464   0.17071   0.07668   0.00000  Uiso   1.00
H256   H     0.40479   0.19128   0.65334   0.00000  Uiso   1.00
H257   H     0.35478   0.04003   0.83352   0.00000  Uiso   1.00
H258   H     0.14916   0.21003   0.30039   0.00000  Uiso   1.00
H259   H     0.46578   0.25340   0.40774   0.00000  Uiso   1.00
H260   H     0.36032   0.93446   0.78767   0.00000  Uiso   1.00
H261   H     0.20369   0.11970   0.62136   0.00000  Uiso   1.00
H262   H     0.11667   0.15602   0.83729   0.00000  Uiso   1.00
H263   H     0.26683   0.17659   0.41395   0.00000  Uiso   1.00
H264   H     0.21682   0.02535   0.59412   0.00000  Uiso   1.00
H265   H     0.03718   0.19812   0.10609   0.00000  Uiso   1.00
H266   H     0.35381   0.24148   0.21343   0.00000  Uiso   1.00
H267   H     0.24834   0.92255   0.59336   0.00000  Uiso   1.00
O268   O     0.03830   0.22824   0.34935   0.00000  Uiso   1.00
O269   O     0.45370   0.28512   0.17822   0.00000  Uiso   1.00
O270   O     0.31533   0.86669   0.67668   0.00000  Uiso   1.00
N271   N     0.13474   0.20224   0.22504   0.00000  Uiso   1.00
N272   N     0.43076   0.24278   0.39048   0.00000  Uiso   1.00
N273   N     0.33217   0.94461   0.74564   0.00000  Uiso   1.00
N274   N     0.07449   0.19582   0.12049   0.00000  Uiso   1.00
N275   N     0.37051   0.23637   0.28593   0.00000  Uiso   1.00
N276   N     0.27192   0.93820   0.64109   0.00000  Uiso   1.00
C277   C     0.19550   0.63043   0.70368   0.00000  Uiso   1.00
C278   C     0.25701   0.64864   0.61106   0.00000  Uiso   1.00
C279   C     0.27516   0.66754   0.47497   0.00000  Uiso   1.00
C280   C     0.33324   0.68221   0.40793   0.00000  Uiso   1.00
C281   C     0.42289   0.71114   0.25400   0.00000  Uiso   1.00
C282   C     0.17543   0.65983   0.84107   0.00000  Uiso   1.00
C283   C     0.12499   0.68812   0.89836   0.00000  Uiso   1.00
C284   C     0.11438   0.71220   0.02495   0.00000  Uiso   1.00
C285   C     0.07736   0.75846   0.22815   0.00000  Uiso   1.00
C286   C     0.20261   0.57765   0.74316   0.00000  Uiso   1.00
C287   C     0.17500   0.53685   0.71817   0.00000  Uiso   1.00
C288   C     0.18727   0.49174   0.76236   0.00000  Uiso   1.00
C289   C     0.19244   0.41042   0.81355   0.00000  Uiso   1.00
C290   C     0.26635   0.62289   0.82663   0.00000  Uiso   1.00
C291   C     0.29549   0.64455   0.67786   0.00000  Uiso   1.00
C292   C     0.35356   0.65920   0.61100   0.00000  Uiso   1.00
C293   C     0.37179   0.67811   0.47483   0.00000  Uiso   1.00
C294   C     0.21391   0.65573   0.90786   0.00000  Uiso   1.00
C295   C     0.20338   0.67978   0.03440   0.00000  Uiso   1.00
C296   C     0.15294   0.70810   0.09186   0.00000  Uiso   1.00
C297   C     0.24109   0.57356   0.80995   0.00000  Uiso   1.00
C298   C     0.25340   0.52851   0.85420   0.00000  Uiso   1.00
C299   C     0.22583   0.48764   0.82927   0.00000  Uiso   1.00
H300   H     0.16553   0.63362   0.65169   0.00000  Uiso   1.00
H301   H     0.24536   0.67071   0.42332   0.00000  Uiso   1.00
H302   H     0.09521   0.69128   0.84666   0.00000  Uiso   1.00
H303   H     0.14522   0.54003   0.66648   0.00000  Uiso   1.00
H304   H     0.35084   0.71003   0.19961   0.00000  Uiso   1.00
H305   H     0.03422   0.75340   0.09226   0.00000  Uiso   1.00
H306   H     0.13968   0.43446   0.71233   0.00000  Uiso   1.00
H307   H     0.29631   0.61970   0.87864   0.00000  Uiso   1.00
H308   H     0.38333   0.65602   0.66271   0.00000  Uiso   1.00
H309   H     0.23317   0.67659   0.08605   0.00000  Uiso   1.00
H310   H     0.28318   0.52535   0.90588   0.00000  Uiso   1.00
H311   H     0.46282   0.69812   0.39391   0.00000  Uiso   1.00
H312   H     0.14619   0.74148   0.28657   0.00000  Uiso   1.00
H313   H     0.25166   0.42255   0.90664   0.00000  Uiso   1.00
O314   O     0.46170   0.72824   0.15065   0.00000  Uiso   1.00
O315   O     0.04630   0.78512   0.32178   0.00000  Uiso   1.00
O316   O     0.18467   0.36669   0.82332   0.00000  Uiso   1.00
N317   N     0.36526   0.70224   0.27496   0.00000  Uiso   1.00
N318   N     0.06924   0.74278   0.10952   0.00000  Uiso   1.00
N319   N     0.16783   0.44461   0.75436   0.00000  Uiso   1.00
N320   N     0.42551   0.69582   0.37951   0.00000  Uiso   1.00
N321   N     0.12949   0.73637   0.21407   0.00000  Uiso   1.00
N322   N     0.22808   0.43820   0.85891   0.00000  Uiso   1.00
C323   C     0.69550   0.13043   0.70368   0.00000  Uiso   1.00
C324   C     0.75701   0.14864   0.61106   0.00000  Uiso   1.00
C325   C     0.77516   0.16754   0.47497   0.00000  Uiso   1.00
C326   C     0.83324   0.18221   0.40793   0.00000  Uiso   1.00
C327   C     0.92289   0.21114   0.25400   0.00000  Uiso   1.00
C328   C     0.67543   0.15983   0.84107   0.00000  Uiso   1.00
C329   C     0.62499   0.18812   0.89836   0.00000  Uiso   1.00
C330   C     0.61438   0.21220   0.02495   0.00000  Uiso   1.00
C331   C     0.57736   0.25846   0.22815   0.00000  Uiso   1.00
C332   C     0.70261   0.07765   0.74316   0.00000  Uiso   1.00
C333   C     0.67500   0.03685   0.71817   0.00000  Uiso   1.00
C334   C     0.68727   0.99174   0.76236   0.00000  Uiso   1.00
C335   C     0.69244   0.91042   0.81355   0.00000  Uiso   1.00
C336   C     0.76635   0.12289   0.82663   0.00000  Uiso   1.00
C337   C     0.79549   0.14455   0.67786   0.00000  Uiso   1.00
C338   C     0.85356   0.15920   0.61100   0.00000  Uiso   1.00
C339   C     0.87179   0.17811   0.47483   0.00000  Uiso   1.00
C340   C     0.71391   0.15573   0.90786   0.00000  Uiso   1.00
C341   C     0.70338   0.17978   0.03440   0.00000  Uiso   1.00
C342   C     0.65294   0.20810   0.09186   0.00000  Uiso   1.00
C343   C     0.74109   0.07356   0.80995   0.00000  Uiso   1.00
C344   C     0.75340   0.02851   0.85420   0.00000  Uiso   1.00
C345   C     0.72583   0.98764   0.82927   0.00000  Uiso   1.00
H346   H     0.66553   0.13362   0.65169   0.00000  Uiso   1.00
H347   H     0.74536   0.17071   0.42332   0.00000  Uiso   1.00
H348   H     0.59521   0.19128   0.84666   0.00000  Uiso   1.00
H349   H     0.64522   0.04003   0.66648   0.00000  Uiso   1.00
H350   H     0.85084   0.21003   0.19961   0.00000  Uiso   1.00
H351   H     0.53422   0.25340   0.09226   0.00000  Uiso   1.00
H352   H     0.63968   0.93446   0.71233   0.00000  Uiso   1.00
H353   H     0.79631   0.11970   0.87864   0.00000  Uiso   1.00
H354   H     0.88333   0.15602   0.66271   0.00000  Uiso   1.00
H355   H     0.73317   0.17659   0.08605   0.00000  Uiso   1.00
H356   H     0.78318   0.02535   0.90588   0.00000  Uiso   1.00
H357   H     0.96282   0.19812   0.39391   0.00000  Uiso   1.00
H358   H     0.64619   0.24148   0.28657   0.00000  Uiso   1.00
H359   H     0.75166   0.92255   0.90664   0.00000  Uiso   1.00
O360   O     0.96170   0.22824   0.15065   0.00000  Uiso   1.00
O361   O     0.54630   0.28512   0.32178   0.00000  Uiso   1.00
O362   O     0.68467   0.86669   0.82332   0.00000  Uiso   1.00
N363   N     0.86526   0.20224   0.27496   0.00000  Uiso   1.00
N364   N     0.56924   0.24278   0.10952   0.00000  Uiso   1.00
N365   N     0.66783   0.94461   0.75436   0.00000  Uiso   1.00
N366   N     0.92551   0.19582   0.37951   0.00000  Uiso   1.00
N367   N     0.62949   0.23637   0.21407   0.00000  Uiso   1.00
N368   N     0.72808   0.93820   0.85891   0.00000  Uiso   1.00
