data_job_00262
_audit_creation_date              2018-12-19
_audit_creation_method            'Materials Studio'
_symmetry_space_group_name_H-M    'P1'
_symmetry_Int_Tables_number       1
_symmetry_cell_setting            triclinic
loop_
_symmetry_equiv_pos_as_xyz
  x,y,z
_cell_length_a                    17.1564
_cell_length_b                    10.9808
_cell_length_c                    24.1730
_cell_angle_alpha                 90.0000
_cell_angle_beta                  90.0000
_cell_angle_gamma                 90.0000
loop_
_atom_site_label
_atom_site_type_symbol
_atom_site_fract_x
_atom_site_fract_y
_atom_site_fract_z
_atom_site_U_iso_or_equiv
_atom_site_adp_type
_atom_site_occupancy
C1     C     0.77662   0.16485   0.20366   0.00000  Uiso   1.00
C2     C     0.74720   0.09410   0.15356   0.00000  Uiso   1.00
C3     C     0.67655   0.11251   0.12688   0.00000  Uiso   1.00
C4     C     0.66038   0.03833   0.08180   0.00000  Uiso   1.00
C5     C     0.60667   0.94202   0.00671   0.00000  Uiso   1.00
C6     C     0.79369   0.07009   0.24816   0.00000  Uiso   1.00
C7     C     0.76214   0.06834   0.30102   0.00000  Uiso   1.00
C8     C     0.78511   0.97395   0.33559   0.00000  Uiso   1.00
C9     C     0.80362   0.84043   0.40739   0.00000  Uiso   1.00
C10    C     0.85538   0.21762   0.18694   0.00000  Uiso   1.00
C11    C     0.87571   0.33991   0.18833   0.00000  Uiso   1.00
C12    C     0.95064   0.36974   0.17137   0.00000  Uiso   1.00
C13    C     0.06494   0.46528   0.14810   0.00000  Uiso   1.00
C14    C     0.87353   0.00036   0.17107   0.00000  Uiso   1.00
C15    C     0.79983   0.00475   0.13586   0.00000  Uiso   1.00
C16    C     0.78377   0.93052   0.09081   0.00000  Uiso   1.00
C17    C     0.71311   0.94882   0.06406   0.00000  Uiso   1.00
C18    C     0.84632   0.98075   0.23046   0.00000  Uiso   1.00
C19    C     0.86935   0.88635   0.26496   0.00000  Uiso   1.00
C20    C     0.83784   0.88445   0.31786   0.00000  Uiso   1.00
C21    C     0.90802   0.12828   0.16923   0.00000  Uiso   1.00
C22    C     0.98293   0.15792   0.15226   0.00000  Uiso   1.00
C23    C     0.00337   0.28023   0.15363   0.00000  Uiso   1.00
H24    H     0.73564   0.23440   0.21745   0.00000  Uiso   1.00
H25    H     0.63583   0.18166   0.14059   0.00000  Uiso   1.00
H26    H     0.72141   0.13750   0.31471   0.00000  Uiso   1.00
H27    H     0.83497   0.40903   0.20204   0.00000  Uiso   1.00
H28    H     0.54837   0.08374   0.04759   0.00000  Uiso   1.00
H29    H     0.72884   0.99066   0.41474   0.00000  Uiso   1.00
H30    H     0.96830   0.56323   0.17714   0.00000  Uiso   1.00
H31    H     0.91451   0.93079   0.15728   0.00000  Uiso   1.00
H32    H     0.82451   0.86139   0.07712   0.00000  Uiso   1.00
H33    H     0.91009   0.81723   0.25124   0.00000  Uiso   1.00
H34    H     0.02365   0.08876   0.13857   0.00000  Uiso   1.00
H35    H     0.70151   0.82380   0.99607   0.00000  Uiso   1.00
H36    H     0.88198   0.73072   0.36322   0.00000  Uiso   1.00
H37    H     0.12144   0.30329   0.12562   0.00000  Uiso   1.00
O38    O     0.56250   0.91356   0.97019   0.00000  Uiso   1.00
O39    O     0.79928   0.79146   0.45188   0.00000  Uiso   1.00
O40    O     0.11344   0.54266   0.14015   0.00000  Uiso   1.00
N41    N     0.59677   0.03211   0.04646   0.00000  Uiso   1.00
N42    N     0.76549   0.94507   0.38972   0.00000  Uiso   1.00
N43    N     0.98937   0.48037   0.16759   0.00000  Uiso   1.00
N44    N     0.67918   0.89223   0.01873   0.00000  Uiso   1.00
N45    N     0.84789   0.80519   0.36200   0.00000  Uiso   1.00
N46    N     0.07177   0.34050   0.13987   0.00000  Uiso   1.00
C47    C     0.72338   0.33515   0.70366   0.00000  Uiso   1.00
C48    C     0.75280   0.40590   0.65356   0.00000  Uiso   1.00
C49    C     0.82345   0.38749   0.62688   0.00000  Uiso   1.00
C50    C     0.83962   0.46167   0.58180   0.00000  Uiso   1.00
C51    C     0.89333   0.55798   0.50671   0.00000  Uiso   1.00
C52    C     0.70631   0.42991   0.74816   0.00000  Uiso   1.00
C53    C     0.73786   0.43166   0.80102   0.00000  Uiso   1.00
C54    C     0.71489   0.52605   0.83559   0.00000  Uiso   1.00
C55    C     0.69638   0.65957   0.90739   0.00000  Uiso   1.00
C56    C     0.64462   0.28238   0.68694   0.00000  Uiso   1.00
C57    C     0.62429   0.16009   0.68833   0.00000  Uiso   1.00
C58    C     0.54936   0.13026   0.67137   0.00000  Uiso   1.00
C59    C     0.43506   0.03472   0.64810   0.00000  Uiso   1.00
C60    C     0.62647   0.49964   0.67107   0.00000  Uiso   1.00
C61    C     0.70017   0.49525   0.63586   0.00000  Uiso   1.00
C62    C     0.71623   0.56948   0.59081   0.00000  Uiso   1.00
C63    C     0.78689   0.55118   0.56406   0.00000  Uiso   1.00
C64    C     0.65368   0.51925   0.73046   0.00000  Uiso   1.00
C65    C     0.63065   0.61365   0.76496   0.00000  Uiso   1.00
C66    C     0.66216   0.61555   0.81786   0.00000  Uiso   1.00
C67    C     0.59198   0.37172   0.66923   0.00000  Uiso   1.00
C68    C     0.51707   0.34208   0.65226   0.00000  Uiso   1.00
C69    C     0.49663   0.21977   0.65363   0.00000  Uiso   1.00
H70    H     0.76436   0.26560   0.71745   0.00000  Uiso   1.00
H71    H     0.86417   0.31834   0.64059   0.00000  Uiso   1.00
H72    H     0.77859   0.36250   0.81471   0.00000  Uiso   1.00
H73    H     0.66503   0.09097   0.70204   0.00000  Uiso   1.00
H74    H     0.95163   0.41626   0.54759   0.00000  Uiso   1.00
H75    H     0.77116   0.50934   0.91474   0.00000  Uiso   1.00
H76    H     0.53170   0.93677   0.67714   0.00000  Uiso   1.00
H77    H     0.58549   0.56921   0.65728   0.00000  Uiso   1.00
H78    H     0.67549   0.63861   0.57712   0.00000  Uiso   1.00
H79    H     0.58991   0.68277   0.75124   0.00000  Uiso   1.00
H80    H     0.47635   0.41124   0.63857   0.00000  Uiso   1.00
H81    H     0.79849   0.67620   0.49607   0.00000  Uiso   1.00
H82    H     0.61802   0.76928   0.86322   0.00000  Uiso   1.00
H83    H     0.37856   0.19671   0.62562   0.00000  Uiso   1.00
O84    O     0.93750   0.58644   0.47019   0.00000  Uiso   1.00
O85    O     0.70072   0.70854   0.95188   0.00000  Uiso   1.00
O86    O     0.38656   0.95734   0.64015   0.00000  Uiso   1.00
N87    N     0.90323   0.46789   0.54646   0.00000  Uiso   1.00
N88    N     0.73451   0.55493   0.88972   0.00000  Uiso   1.00
N89    N     0.51063   0.01963   0.66759   0.00000  Uiso   1.00
N90    N     0.82082   0.60777   0.51873   0.00000  Uiso   1.00
N91    N     0.65211   0.69481   0.86200   0.00000  Uiso   1.00
N92    N     0.42823   0.15950   0.63987   0.00000  Uiso   1.00
C93    C     0.22338   0.16485   0.29634   0.00000  Uiso   1.00
C94    C     0.25280   0.09410   0.34644   0.00000  Uiso   1.00
C95    C     0.32345   0.11251   0.37312   0.00000  Uiso   1.00
C96    C     0.33962   0.03833   0.41820   0.00000  Uiso   1.00
C97    C     0.39333   0.94202   0.49329   0.00000  Uiso   1.00
C98    C     0.20631   0.07009   0.25184   0.00000  Uiso   1.00
C99    C     0.23786   0.06834   0.19898   0.00000  Uiso   1.00
C100   C     0.21489   0.97395   0.16441   0.00000  Uiso   1.00
C101   C     0.19638   0.84043   0.09261   0.00000  Uiso   1.00
C102   C     0.14462   0.21762   0.31306   0.00000  Uiso   1.00
C103   C     0.12429   0.33991   0.31167   0.00000  Uiso   1.00
C104   C     0.04936   0.36974   0.32863   0.00000  Uiso   1.00
C105   C     0.93506   0.46528   0.35190   0.00000  Uiso   1.00
C106   C     0.12647   0.00036   0.32893   0.00000  Uiso   1.00
C107   C     0.20017   0.00475   0.36414   0.00000  Uiso   1.00
C108   C     0.21623   0.93052   0.40919   0.00000  Uiso   1.00
C109   C     0.28689   0.94882   0.43594   0.00000  Uiso   1.00
C110   C     0.15368   0.98075   0.26954   0.00000  Uiso   1.00
C111   C     0.13065   0.88635   0.23504   0.00000  Uiso   1.00
C112   C     0.16216   0.88445   0.18214   0.00000  Uiso   1.00
C113   C     0.09198   0.12828   0.33077   0.00000  Uiso   1.00
C114   C     0.01707   0.15792   0.34774   0.00000  Uiso   1.00
C115   C     0.99663   0.28023   0.34637   0.00000  Uiso   1.00
H116   H     0.26436   0.23440   0.28255   0.00000  Uiso   1.00
H117   H     0.36417   0.18166   0.35941   0.00000  Uiso   1.00
H118   H     0.27859   0.13750   0.18529   0.00000  Uiso   1.00
H119   H     0.16503   0.40903   0.29796   0.00000  Uiso   1.00
H120   H     0.45163   0.08374   0.45241   0.00000  Uiso   1.00
H121   H     0.27116   0.99066   0.08526   0.00000  Uiso   1.00
H122   H     0.03170   0.56323   0.32286   0.00000  Uiso   1.00
H123   H     0.08549   0.93079   0.34272   0.00000  Uiso   1.00
H124   H     0.17549   0.86139   0.42288   0.00000  Uiso   1.00
H125   H     0.08991   0.81723   0.24876   0.00000  Uiso   1.00
H126   H     0.97635   0.08876   0.36143   0.00000  Uiso   1.00
H127   H     0.29849   0.82380   0.50393   0.00000  Uiso   1.00
H128   H     0.11802   0.73072   0.13678   0.00000  Uiso   1.00
H129   H     0.87856   0.30329   0.37438   0.00000  Uiso   1.00
O130   O     0.43750   0.91356   0.52981   0.00000  Uiso   1.00
O131   O     0.20072   0.79146   0.04812   0.00000  Uiso   1.00
O132   O     0.88656   0.54266   0.35985   0.00000  Uiso   1.00
N133   N     0.40323   0.03211   0.45354   0.00000  Uiso   1.00
N134   N     0.23451   0.94507   0.11028   0.00000  Uiso   1.00
N135   N     0.01063   0.48037   0.33241   0.00000  Uiso   1.00
N136   N     0.32082   0.89223   0.48127   0.00000  Uiso   1.00
N137   N     0.15211   0.80519   0.13800   0.00000  Uiso   1.00
N138   N     0.92823   0.34050   0.36013   0.00000  Uiso   1.00
C139   C     0.27662   0.33515   0.79634   0.00000  Uiso   1.00
C140   C     0.24720   0.40590   0.84644   0.00000  Uiso   1.00
C141   C     0.17655   0.38749   0.87312   0.00000  Uiso   1.00
C142   C     0.16038   0.46167   0.91820   0.00000  Uiso   1.00
C143   C     0.10667   0.55798   0.99329   0.00000  Uiso   1.00
C144   C     0.29369   0.42991   0.75184   0.00000  Uiso   1.00
C145   C     0.26214   0.43166   0.69898   0.00000  Uiso   1.00
C146   C     0.28511   0.52605   0.66441   0.00000  Uiso   1.00
C147   C     0.30362   0.65957   0.59261   0.00000  Uiso   1.00
C148   C     0.35538   0.28238   0.81306   0.00000  Uiso   1.00
C149   C     0.37571   0.16009   0.81167   0.00000  Uiso   1.00
C150   C     0.45064   0.13026   0.82863   0.00000  Uiso   1.00
C151   C     0.56494   0.03472   0.85190   0.00000  Uiso   1.00
C152   C     0.37353   0.49964   0.82893   0.00000  Uiso   1.00
C153   C     0.29983   0.49525   0.86414   0.00000  Uiso   1.00
C154   C     0.28377   0.56948   0.90919   0.00000  Uiso   1.00
C155   C     0.21311   0.55118   0.93594   0.00000  Uiso   1.00
C156   C     0.34632   0.51925   0.76954   0.00000  Uiso   1.00
C157   C     0.36935   0.61365   0.73504   0.00000  Uiso   1.00
C158   C     0.33784   0.61555   0.68214   0.00000  Uiso   1.00
C159   C     0.40802   0.37172   0.83077   0.00000  Uiso   1.00
C160   C     0.48293   0.34208   0.84774   0.00000  Uiso   1.00
C161   C     0.50337   0.21977   0.84637   0.00000  Uiso   1.00
H162   H     0.23564   0.26560   0.78255   0.00000  Uiso   1.00
H163   H     0.13583   0.31834   0.85941   0.00000  Uiso   1.00
H164   H     0.22141   0.36250   0.68529   0.00000  Uiso   1.00
H165   H     0.33497   0.09097   0.79796   0.00000  Uiso   1.00
H166   H     0.04837   0.41626   0.95241   0.00000  Uiso   1.00
H167   H     0.22884   0.50934   0.58526   0.00000  Uiso   1.00
H168   H     0.46830   0.93677   0.82286   0.00000  Uiso   1.00
H169   H     0.41451   0.56921   0.84272   0.00000  Uiso   1.00
H170   H     0.32451   0.63861   0.92288   0.00000  Uiso   1.00
H171   H     0.41009   0.68277   0.74876   0.00000  Uiso   1.00
H172   H     0.52365   0.41124   0.86143   0.00000  Uiso   1.00
H173   H     0.20151   0.67620   0.00393   0.00000  Uiso   1.00
H174   H     0.38198   0.76928   0.63678   0.00000  Uiso   1.00
H175   H     0.62144   0.19671   0.87438   0.00000  Uiso   1.00
O176   O     0.06250   0.58644   0.02981   0.00000  Uiso   1.00
O177   O     0.29928   0.70854   0.54812   0.00000  Uiso   1.00
O178   O     0.61344   0.95734   0.85985   0.00000  Uiso   1.00
N179   N     0.09677   0.46789   0.95354   0.00000  Uiso   1.00
N180   N     0.26549   0.55493   0.61028   0.00000  Uiso   1.00
N181   N     0.48937   0.01963   0.83241   0.00000  Uiso   1.00
N182   N     0.17918   0.60777   0.98127   0.00000  Uiso   1.00
N183   N     0.34789   0.69481   0.63800   0.00000  Uiso   1.00
N184   N     0.57177   0.15950   0.86013   0.00000  Uiso   1.00
C185   C     0.22338   0.83515   0.79634   0.00000  Uiso   1.00
C186   C     0.25280   0.90590   0.84644   0.00000  Uiso   1.00
C187   C     0.32345   0.88749   0.87312   0.00000  Uiso   1.00
C188   C     0.33962   0.96167   0.91820   0.00000  Uiso   1.00
C189   C     0.39333   0.05798   0.99329   0.00000  Uiso   1.00
C190   C     0.20631   0.92991   0.75184   0.00000  Uiso   1.00
C191   C     0.23786   0.93166   0.69898   0.00000  Uiso   1.00
C192   C     0.21489   0.02605   0.66441   0.00000  Uiso   1.00
C193   C     0.19638   0.15957   0.59261   0.00000  Uiso   1.00
C194   C     0.14462   0.78238   0.81306   0.00000  Uiso   1.00
C195   C     0.12429   0.66009   0.81167   0.00000  Uiso   1.00
C196   C     0.04936   0.63026   0.82863   0.00000  Uiso   1.00
C197   C     0.93506   0.53472   0.85190   0.00000  Uiso   1.00
C198   C     0.12647   0.99964   0.82893   0.00000  Uiso   1.00
C199   C     0.20017   0.99525   0.86414   0.00000  Uiso   1.00
C200   C     0.21623   0.06948   0.90919   0.00000  Uiso   1.00
C201   C     0.28689   0.05118   0.93594   0.00000  Uiso   1.00
C202   C     0.15368   0.01925   0.76954   0.00000  Uiso   1.00
C203   C     0.13065   0.11365   0.73504   0.00000  Uiso   1.00
C204   C     0.16216   0.11555   0.68214   0.00000  Uiso   1.00
C205   C     0.09198   0.87172   0.83077   0.00000  Uiso   1.00
C206   C     0.01707   0.84208   0.84774   0.00000  Uiso   1.00
C207   C     0.99663   0.71977   0.84637   0.00000  Uiso   1.00
H208   H     0.26436   0.76560   0.78255   0.00000  Uiso   1.00
H209   H     0.36417   0.81834   0.85941   0.00000  Uiso   1.00
H210   H     0.27859   0.86250   0.68529   0.00000  Uiso   1.00
H211   H     0.16503   0.59097   0.79796   0.00000  Uiso   1.00
H212   H     0.45163   0.91626   0.95241   0.00000  Uiso   1.00
H213   H     0.27116   0.00934   0.58526   0.00000  Uiso   1.00
H214   H     0.03170   0.43677   0.82286   0.00000  Uiso   1.00
H215   H     0.08549   0.06921   0.84272   0.00000  Uiso   1.00
H216   H     0.17549   0.13861   0.92288   0.00000  Uiso   1.00
H217   H     0.08991   0.18277   0.74876   0.00000  Uiso   1.00
H218   H     0.97635   0.91124   0.86143   0.00000  Uiso   1.00
H219   H     0.29849   0.17620   0.00393   0.00000  Uiso   1.00
H220   H     0.11802   0.26928   0.63678   0.00000  Uiso   1.00
H221   H     0.87856   0.69671   0.87438   0.00000  Uiso   1.00
O222   O     0.43750   0.08644   0.02981   0.00000  Uiso   1.00
O223   O     0.20072   0.20854   0.54812   0.00000  Uiso   1.00
O224   O     0.88656   0.45734   0.85985   0.00000  Uiso   1.00
N225   N     0.40323   0.96789   0.95354   0.00000  Uiso   1.00
N226   N     0.23451   0.05493   0.61028   0.00000  Uiso   1.00
N227   N     0.01063   0.51963   0.83241   0.00000  Uiso   1.00
N228   N     0.32082   0.10777   0.98127   0.00000  Uiso   1.00
N229   N     0.15211   0.19481   0.63800   0.00000  Uiso   1.00
N230   N     0.92823   0.65950   0.86013   0.00000  Uiso   1.00
C231   C     0.27662   0.66485   0.29634   0.00000  Uiso   1.00
C232   C     0.24720   0.59410   0.34644   0.00000  Uiso   1.00
C233   C     0.17655   0.61251   0.37312   0.00000  Uiso   1.00
C234   C     0.16038   0.53833   0.41820   0.00000  Uiso   1.00
C235   C     0.10667   0.44202   0.49329   0.00000  Uiso   1.00
C236   C     0.29369   0.57009   0.25184   0.00000  Uiso   1.00
C237   C     0.26214   0.56834   0.19898   0.00000  Uiso   1.00
C238   C     0.28511   0.47395   0.16441   0.00000  Uiso   1.00
C239   C     0.30362   0.34043   0.09261   0.00000  Uiso   1.00
C240   C     0.35538   0.71762   0.31306   0.00000  Uiso   1.00
C241   C     0.37571   0.83991   0.31167   0.00000  Uiso   1.00
C242   C     0.45064   0.86974   0.32863   0.00000  Uiso   1.00
C243   C     0.56494   0.96528   0.35190   0.00000  Uiso   1.00
C244   C     0.37353   0.50036   0.32893   0.00000  Uiso   1.00
C245   C     0.29983   0.50475   0.36414   0.00000  Uiso   1.00
C246   C     0.28377   0.43052   0.40919   0.00000  Uiso   1.00
C247   C     0.21311   0.44882   0.43594   0.00000  Uiso   1.00
C248   C     0.34632   0.48075   0.26954   0.00000  Uiso   1.00
C249   C     0.36935   0.38635   0.23504   0.00000  Uiso   1.00
C250   C     0.33784   0.38445   0.18214   0.00000  Uiso   1.00
C251   C     0.40802   0.62828   0.33077   0.00000  Uiso   1.00
C252   C     0.48293   0.65792   0.34774   0.00000  Uiso   1.00
C253   C     0.50337   0.78023   0.34637   0.00000  Uiso   1.00
H254   H     0.23564   0.73440   0.28255   0.00000  Uiso   1.00
H255   H     0.13583   0.68166   0.35941   0.00000  Uiso   1.00
H256   H     0.22141   0.63750   0.18529   0.00000  Uiso   1.00
H257   H     0.33497   0.90903   0.29796   0.00000  Uiso   1.00
H258   H     0.04837   0.58374   0.45241   0.00000  Uiso   1.00
H259   H     0.22884   0.49066   0.08526   0.00000  Uiso   1.00
H260   H     0.46830   0.06323   0.32286   0.00000  Uiso   1.00
H261   H     0.41451   0.43079   0.34272   0.00000  Uiso   1.00
H262   H     0.32451   0.36139   0.42288   0.00000  Uiso   1.00
H263   H     0.41009   0.31723   0.24876   0.00000  Uiso   1.00
H264   H     0.52365   0.58876   0.36143   0.00000  Uiso   1.00
H265   H     0.20151   0.32380   0.50393   0.00000  Uiso   1.00
H266   H     0.38198   0.23072   0.13678   0.00000  Uiso   1.00
H267   H     0.62144   0.80329   0.37438   0.00000  Uiso   1.00
O268   O     0.06250   0.41356   0.52981   0.00000  Uiso   1.00
O269   O     0.29928   0.29146   0.04812   0.00000  Uiso   1.00
O270   O     0.61344   0.04266   0.35985   0.00000  Uiso   1.00
N271   N     0.09677   0.53211   0.45354   0.00000  Uiso   1.00
N272   N     0.26549   0.44507   0.11028   0.00000  Uiso   1.00
N273   N     0.48937   0.98037   0.33241   0.00000  Uiso   1.00
N274   N     0.17918   0.39223   0.48127   0.00000  Uiso   1.00
N275   N     0.34789   0.30519   0.13800   0.00000  Uiso   1.00
N276   N     0.57177   0.84050   0.36013   0.00000  Uiso   1.00
C277   C     0.77662   0.83515   0.70366   0.00000  Uiso   1.00
C278   C     0.74720   0.90590   0.65356   0.00000  Uiso   1.00
C279   C     0.67655   0.88749   0.62688   0.00000  Uiso   1.00
C280   C     0.66038   0.96167   0.58180   0.00000  Uiso   1.00
C281   C     0.60667   0.05798   0.50671   0.00000  Uiso   1.00
C282   C     0.79369   0.92991   0.74816   0.00000  Uiso   1.00
C283   C     0.76214   0.93166   0.80102   0.00000  Uiso   1.00
C284   C     0.78511   0.02605   0.83559   0.00000  Uiso   1.00
C285   C     0.80362   0.15957   0.90739   0.00000  Uiso   1.00
C286   C     0.85538   0.78238   0.68694   0.00000  Uiso   1.00
C287   C     0.87571   0.66009   0.68833   0.00000  Uiso   1.00
C288   C     0.95064   0.63026   0.67137   0.00000  Uiso   1.00
C289   C     0.06494   0.53472   0.64810   0.00000  Uiso   1.00
C290   C     0.87353   0.99964   0.67107   0.00000  Uiso   1.00
C291   C     0.79983   0.99525   0.63586   0.00000  Uiso   1.00
C292   C     0.78377   0.06948   0.59081   0.00000  Uiso   1.00
C293   C     0.71311   0.05118   0.56406   0.00000  Uiso   1.00
C294   C     0.84632   0.01925   0.73046   0.00000  Uiso   1.00
C295   C     0.86935   0.11365   0.76496   0.00000  Uiso   1.00
C296   C     0.83784   0.11555   0.81786   0.00000  Uiso   1.00
C297   C     0.90802   0.87172   0.66923   0.00000  Uiso   1.00
C298   C     0.98293   0.84208   0.65226   0.00000  Uiso   1.00
C299   C     0.00337   0.71977   0.65363   0.00000  Uiso   1.00
H300   H     0.73564   0.76560   0.71745   0.00000  Uiso   1.00
H301   H     0.63583   0.81834   0.64059   0.00000  Uiso   1.00
H302   H     0.72141   0.86250   0.81471   0.00000  Uiso   1.00
H303   H     0.83497   0.59097   0.70204   0.00000  Uiso   1.00
H304   H     0.54837   0.91626   0.54759   0.00000  Uiso   1.00
H305   H     0.72884   0.00934   0.91474   0.00000  Uiso   1.00
H306   H     0.96830   0.43677   0.67714   0.00000  Uiso   1.00
H307   H     0.91451   0.06921   0.65728   0.00000  Uiso   1.00
H308   H     0.82451   0.13861   0.57712   0.00000  Uiso   1.00
H309   H     0.91009   0.18277   0.75124   0.00000  Uiso   1.00
H310   H     0.02365   0.91124   0.63857   0.00000  Uiso   1.00
H311   H     0.70151   0.17620   0.49607   0.00000  Uiso   1.00
H312   H     0.88198   0.26928   0.86322   0.00000  Uiso   1.00
H313   H     0.12144   0.69671   0.62562   0.00000  Uiso   1.00
O314   O     0.56250   0.08644   0.47019   0.00000  Uiso   1.00
O315   O     0.79928   0.20854   0.95188   0.00000  Uiso   1.00
O316   O     0.11344   0.45734   0.64015   0.00000  Uiso   1.00
N317   N     0.59677   0.96789   0.54646   0.00000  Uiso   1.00
N318   N     0.76549   0.05493   0.88972   0.00000  Uiso   1.00
N319   N     0.98937   0.51963   0.66759   0.00000  Uiso   1.00
N320   N     0.67918   0.10777   0.51873   0.00000  Uiso   1.00
N321   N     0.84789   0.19481   0.86200   0.00000  Uiso   1.00
N322   N     0.07177   0.65950   0.63987   0.00000  Uiso   1.00
C323   C     0.72338   0.66485   0.20366   0.00000  Uiso   1.00
C324   C     0.75280   0.59410   0.15356   0.00000  Uiso   1.00
C325   C     0.82345   0.61251   0.12688   0.00000  Uiso   1.00
C326   C     0.83962   0.53833   0.08180   0.00000  Uiso   1.00
C327   C     0.89333   0.44202   0.00671   0.00000  Uiso   1.00
C328   C     0.70631   0.57009   0.24816   0.00000  Uiso   1.00
C329   C     0.73786   0.56834   0.30102   0.00000  Uiso   1.00
C330   C     0.71489   0.47395   0.33559   0.00000  Uiso   1.00
C331   C     0.69638   0.34043   0.40739   0.00000  Uiso   1.00
C332   C     0.64462   0.71762   0.18694   0.00000  Uiso   1.00
C333   C     0.62429   0.83991   0.18833   0.00000  Uiso   1.00
C334   C     0.54936   0.86974   0.17137   0.00000  Uiso   1.00
C335   C     0.43506   0.96528   0.14810   0.00000  Uiso   1.00
C336   C     0.62647   0.50036   0.17107   0.00000  Uiso   1.00
C337   C     0.70017   0.50475   0.13586   0.00000  Uiso   1.00
C338   C     0.71623   0.43052   0.09081   0.00000  Uiso   1.00
C339   C     0.78689   0.44882   0.06406   0.00000  Uiso   1.00
C340   C     0.65368   0.48075   0.23046   0.00000  Uiso   1.00
C341   C     0.63065   0.38635   0.26496   0.00000  Uiso   1.00
C342   C     0.66216   0.38445   0.31786   0.00000  Uiso   1.00
C343   C     0.59198   0.62828   0.16923   0.00000  Uiso   1.00
C344   C     0.51707   0.65792   0.15226   0.00000  Uiso   1.00
C345   C     0.49663   0.78023   0.15363   0.00000  Uiso   1.00
H346   H     0.76436   0.73440   0.21745   0.00000  Uiso   1.00
H347   H     0.86417   0.68166   0.14059   0.00000  Uiso   1.00
H348   H     0.77859   0.63750   0.31471   0.00000  Uiso   1.00
H349   H     0.66503   0.90903   0.20204   0.00000  Uiso   1.00
H350   H     0.95163   0.58374   0.04759   0.00000  Uiso   1.00
H351   H     0.77116   0.49066   0.41474   0.00000  Uiso   1.00
H352   H     0.53170   0.06323   0.17714   0.00000  Uiso   1.00
H353   H     0.58549   0.43079   0.15728   0.00000  Uiso   1.00
H354   H     0.67549   0.36139   0.07712   0.00000  Uiso   1.00
H355   H     0.58991   0.31723   0.25124   0.00000  Uiso   1.00
H356   H     0.47635   0.58876   0.13857   0.00000  Uiso   1.00
H357   H     0.79849   0.32380   0.99607   0.00000  Uiso   1.00
H358   H     0.61802   0.23072   0.36322   0.00000  Uiso   1.00
H359   H     0.37856   0.80329   0.12562   0.00000  Uiso   1.00
O360   O     0.93750   0.41356   0.97019   0.00000  Uiso   1.00
O361   O     0.70072   0.29146   0.45188   0.00000  Uiso   1.00
O362   O     0.38656   0.04266   0.14015   0.00000  Uiso   1.00
N363   N     0.90323   0.53211   0.04646   0.00000  Uiso   1.00
N364   N     0.73451   0.44507   0.38972   0.00000  Uiso   1.00
N365   N     0.51063   0.98037   0.16759   0.00000  Uiso   1.00
N366   N     0.82082   0.39223   0.01873   0.00000  Uiso   1.00
N367   N     0.65211   0.30519   0.36200   0.00000  Uiso   1.00
N368   N     0.42823   0.84050   0.13987   0.00000  Uiso   1.00
