data_job_03698
_audit_creation_date              2018-12-19
_audit_creation_method            'Materials Studio'
_symmetry_space_group_name_H-M    'P1'
_symmetry_Int_Tables_number       1
_symmetry_cell_setting            triclinic
loop_
_symmetry_equiv_pos_as_xyz
  x,y,z
_cell_length_a                    26.2371
_cell_length_b                    21.6674
_cell_length_c                    13.1264
_cell_angle_alpha                 90.0000
_cell_angle_beta                  90.0000
_cell_angle_gamma                 90.0000
loop_
_atom_site_label
_atom_site_type_symbol
_atom_site_fract_x
_atom_site_fract_y
_atom_site_fract_z
_atom_site_U_iso_or_equiv
_atom_site_adp_type
_atom_site_occupancy
C1     C     0.90484   0.32088   0.14173   0.00000  Uiso   1.00
C2     C     0.92885   0.34906   0.04671   0.00000  Uiso   1.00
C3     C     0.97980   0.36487   0.03542   0.00000  Uiso   1.00
C4     C     0.99424   0.39008   0.94258   0.00000  Uiso   1.00
C5     C     0.03689   0.43250   0.80702   0.00000  Uiso   1.00
C6     C     0.86150   0.36401   0.17206   0.00000  Uiso   1.00
C7     C     0.85581   0.39238   0.26617   0.00000  Uiso   1.00
C8     C     0.81355   0.43018   0.27885   0.00000  Uiso   1.00
C9     C     0.75160   0.49577   0.33793   0.00000  Uiso   1.00
C10    C     0.87967   0.26100   0.10717   0.00000  Uiso   1.00
C11    C     0.88925   0.20275   0.14674   0.00000  Uiso   1.00
C12    C     0.86229   0.15381   0.10480   0.00000  Uiso   1.00
C13    C     0.82856   0.05945   0.06312   0.00000  Uiso   1.00
C14    C     0.83990   0.33756   0.99690   0.00000  Uiso   1.00
C15    C     0.89358   0.35813   0.96805   0.00000  Uiso   1.00
C16    C     0.90795   0.38332   0.87519   0.00000  Uiso   1.00
C17    C     0.95891   0.39916   0.86377   0.00000  Uiso   1.00
C18    C     0.82622   0.37308   0.09340   0.00000  Uiso   1.00
C19    C     0.78396   0.41084   0.10594   0.00000  Uiso   1.00
C20    C     0.77821   0.43926   0.20004   0.00000  Uiso   1.00
C21    C     0.84440   0.27006   0.02850   0.00000  Uiso   1.00
C22    C     0.81741   0.22121   0.98650   0.00000  Uiso   1.00
C23    C     0.82695   0.16289   0.02599   0.00000  Uiso   1.00
H24    H     0.93230   0.31383   0.20297   0.00000  Uiso   1.00
H25    H     0.00708   0.35785   0.09632   0.00000  Uiso   1.00
H26    H     0.88311   0.38535   0.32704   0.00000  Uiso   1.00
H27    H     0.91655   0.19575   0.20761   0.00000  Uiso   1.00
H28    H     0.07443   0.41068   0.94340   0.00000  Uiso   1.00
H29    H     0.81302   0.46865   0.42988   0.00000  Uiso   1.00
H30    H     0.88354   0.06884   0.17807   0.00000  Uiso   1.00
H31    H     0.81244   0.34462   0.93566   0.00000  Uiso   1.00
H32    H     0.88065   0.39033   0.81433   0.00000  Uiso   1.00
H33    H     0.75667   0.41784   0.04505   0.00000  Uiso   1.00
H34    H     0.79012   0.22823   0.92563   0.00000  Uiso   1.00
H35    H     0.97181   0.43704   0.71453   0.00000  Uiso   1.00
H36    H     0.71039   0.49502   0.20102   0.00000  Uiso   1.00
H37    H     0.78092   0.09520   0.94919   0.00000  Uiso   1.00
O38    O     0.07015   0.45340   0.75399   0.00000  Uiso   1.00
O39    O     0.72718   0.52945   0.39224   0.00000  Uiso   1.00
O40    O     0.81971   0.00490   0.06186   0.00000  Uiso   1.00
N41    N     0.04092   0.41060   0.90618   0.00000  Uiso   1.00
N42    N     0.79652   0.46481   0.36101   0.00000  Uiso   1.00
N43    N     0.86244   0.09102   0.12560   0.00000  Uiso   1.00
N44    N     0.98570   0.42478   0.78302   0.00000  Uiso   1.00
N45    N     0.74130   0.47899   0.23785   0.00000  Uiso   1.00
N46    N     0.80722   0.10521   0.00244   0.00000  Uiso   1.00
C47    C     0.90484   0.82088   0.64173   0.00000  Uiso   1.00
C48    C     0.92885   0.84906   0.54671   0.00000  Uiso   1.00
C49    C     0.97980   0.86487   0.53542   0.00000  Uiso   1.00
C50    C     0.99424   0.89008   0.44258   0.00000  Uiso   1.00
C51    C     0.03689   0.93250   0.30702   0.00000  Uiso   1.00
C52    C     0.86150   0.86401   0.67206   0.00000  Uiso   1.00
C53    C     0.85581   0.89238   0.76617   0.00000  Uiso   1.00
C54    C     0.81355   0.93018   0.77885   0.00000  Uiso   1.00
C55    C     0.75160   0.99577   0.83793   0.00000  Uiso   1.00
C56    C     0.87967   0.76100   0.60717   0.00000  Uiso   1.00
C57    C     0.88925   0.70275   0.64674   0.00000  Uiso   1.00
C58    C     0.86229   0.65381   0.60480   0.00000  Uiso   1.00
C59    C     0.82856   0.55945   0.56312   0.00000  Uiso   1.00
C60    C     0.83990   0.83756   0.49690   0.00000  Uiso   1.00
C61    C     0.89358   0.85813   0.46805   0.00000  Uiso   1.00
C62    C     0.90795   0.88332   0.37519   0.00000  Uiso   1.00
C63    C     0.95891   0.89916   0.36377   0.00000  Uiso   1.00
C64    C     0.82622   0.87308   0.59340   0.00000  Uiso   1.00
C65    C     0.78396   0.91084   0.60594   0.00000  Uiso   1.00
C66    C     0.77821   0.93926   0.70004   0.00000  Uiso   1.00
C67    C     0.84440   0.77006   0.52850   0.00000  Uiso   1.00
C68    C     0.81741   0.72121   0.48650   0.00000  Uiso   1.00
C69    C     0.82695   0.66289   0.52599   0.00000  Uiso   1.00
H70    H     0.93230   0.81383   0.70297   0.00000  Uiso   1.00
H71    H     0.00708   0.85785   0.59632   0.00000  Uiso   1.00
H72    H     0.88311   0.88535   0.82704   0.00000  Uiso   1.00
H73    H     0.91655   0.69575   0.70761   0.00000  Uiso   1.00
H74    H     0.07443   0.91068   0.44340   0.00000  Uiso   1.00
H75    H     0.81302   0.96865   0.92988   0.00000  Uiso   1.00
H76    H     0.88354   0.56884   0.67807   0.00000  Uiso   1.00
H77    H     0.81244   0.84462   0.43566   0.00000  Uiso   1.00
H78    H     0.88065   0.89033   0.31433   0.00000  Uiso   1.00
H79    H     0.75667   0.91784   0.54505   0.00000  Uiso   1.00
H80    H     0.79012   0.72823   0.42563   0.00000  Uiso   1.00
H81    H     0.97181   0.93704   0.21453   0.00000  Uiso   1.00
H82    H     0.71039   0.99502   0.70102   0.00000  Uiso   1.00
H83    H     0.78092   0.59520   0.44919   0.00000  Uiso   1.00
O84    O     0.07015   0.95340   0.25399   0.00000  Uiso   1.00
O85    O     0.72718   0.02945   0.89224   0.00000  Uiso   1.00
O86    O     0.81971   0.50490   0.56186   0.00000  Uiso   1.00
N87    N     0.04092   0.91060   0.40618   0.00000  Uiso   1.00
N88    N     0.79652   0.96481   0.86101   0.00000  Uiso   1.00
N89    N     0.86244   0.59102   0.62560   0.00000  Uiso   1.00
N90    N     0.98570   0.92478   0.28302   0.00000  Uiso   1.00
N91    N     0.74130   0.97899   0.73785   0.00000  Uiso   1.00
N92    N     0.80722   0.60521   0.50244   0.00000  Uiso   1.00
C93    C     0.09516   0.67912   0.14173   0.00000  Uiso   1.00
C94    C     0.07115   0.65094   0.04671   0.00000  Uiso   1.00
C95    C     0.02020   0.63513   0.03542   0.00000  Uiso   1.00
C96    C     0.00576   0.60992   0.94258   0.00000  Uiso   1.00
C97    C     0.96311   0.56750   0.80702   0.00000  Uiso   1.00
C98    C     0.13850   0.63599   0.17206   0.00000  Uiso   1.00
C99    C     0.14419   0.60762   0.26617   0.00000  Uiso   1.00
C100   C     0.18645   0.56982   0.27885   0.00000  Uiso   1.00
C101   C     0.24840   0.50423   0.33793   0.00000  Uiso   1.00
C102   C     0.12033   0.73900   0.10717   0.00000  Uiso   1.00
C103   C     0.11075   0.79725   0.14674   0.00000  Uiso   1.00
C104   C     0.13771   0.84619   0.10480   0.00000  Uiso   1.00
C105   C     0.17144   0.94055   0.06312   0.00000  Uiso   1.00
C106   C     0.16010   0.66244   0.99690   0.00000  Uiso   1.00
C107   C     0.10642   0.64187   0.96805   0.00000  Uiso   1.00
C108   C     0.09205   0.61668   0.87519   0.00000  Uiso   1.00
C109   C     0.04109   0.60084   0.86377   0.00000  Uiso   1.00
C110   C     0.17378   0.62692   0.09340   0.00000  Uiso   1.00
C111   C     0.21604   0.58916   0.10594   0.00000  Uiso   1.00
C112   C     0.22179   0.56074   0.20004   0.00000  Uiso   1.00
C113   C     0.15560   0.72994   0.02850   0.00000  Uiso   1.00
C114   C     0.18259   0.77879   0.98650   0.00000  Uiso   1.00
C115   C     0.17305   0.83711   0.02599   0.00000  Uiso   1.00
H116   H     0.06770   0.68617   0.20297   0.00000  Uiso   1.00
H117   H     0.99292   0.64215   0.09632   0.00000  Uiso   1.00
H118   H     0.11689   0.61465   0.32704   0.00000  Uiso   1.00
H119   H     0.08345   0.80425   0.20761   0.00000  Uiso   1.00
H120   H     0.92557   0.58932   0.94340   0.00000  Uiso   1.00
H121   H     0.18698   0.53135   0.42988   0.00000  Uiso   1.00
H122   H     0.11646   0.93116   0.17807   0.00000  Uiso   1.00
H123   H     0.18756   0.65538   0.93566   0.00000  Uiso   1.00
H124   H     0.11935   0.60967   0.81433   0.00000  Uiso   1.00
H125   H     0.24333   0.58216   0.04505   0.00000  Uiso   1.00
H126   H     0.20988   0.77177   0.92563   0.00000  Uiso   1.00
H127   H     0.02819   0.56296   0.71453   0.00000  Uiso   1.00
H128   H     0.28961   0.50498   0.20102   0.00000  Uiso   1.00
H129   H     0.21908   0.90480   0.94919   0.00000  Uiso   1.00
O130   O     0.92985   0.54660   0.75399   0.00000  Uiso   1.00
O131   O     0.27282   0.47055   0.39224   0.00000  Uiso   1.00
O132   O     0.18029   0.99510   0.06186   0.00000  Uiso   1.00
N133   N     0.95908   0.58940   0.90618   0.00000  Uiso   1.00
N134   N     0.20348   0.53519   0.36101   0.00000  Uiso   1.00
N135   N     0.13756   0.90898   0.12560   0.00000  Uiso   1.00
N136   N     0.01430   0.57522   0.78302   0.00000  Uiso   1.00
N137   N     0.25870   0.52101   0.23785   0.00000  Uiso   1.00
N138   N     0.19278   0.89479   0.00244   0.00000  Uiso   1.00
C139   C     0.09516   0.17912   0.64173   0.00000  Uiso   1.00
C140   C     0.07115   0.15094   0.54671   0.00000  Uiso   1.00
C141   C     0.02020   0.13513   0.53542   0.00000  Uiso   1.00
C142   C     0.00576   0.10992   0.44258   0.00000  Uiso   1.00
C143   C     0.96311   0.06750   0.30702   0.00000  Uiso   1.00
C144   C     0.13850   0.13599   0.67206   0.00000  Uiso   1.00
C145   C     0.14419   0.10762   0.76617   0.00000  Uiso   1.00
C146   C     0.18645   0.06982   0.77885   0.00000  Uiso   1.00
C147   C     0.24840   0.00423   0.83793   0.00000  Uiso   1.00
C148   C     0.12033   0.23900   0.60717   0.00000  Uiso   1.00
C149   C     0.11075   0.29725   0.64674   0.00000  Uiso   1.00
C150   C     0.13771   0.34619   0.60480   0.00000  Uiso   1.00
C151   C     0.17144   0.44055   0.56312   0.00000  Uiso   1.00
C152   C     0.16010   0.16244   0.49690   0.00000  Uiso   1.00
C153   C     0.10642   0.14187   0.46805   0.00000  Uiso   1.00
C154   C     0.09205   0.11668   0.37519   0.00000  Uiso   1.00
C155   C     0.04109   0.10084   0.36377   0.00000  Uiso   1.00
C156   C     0.17378   0.12692   0.59340   0.00000  Uiso   1.00
C157   C     0.21604   0.08916   0.60594   0.00000  Uiso   1.00
C158   C     0.22179   0.06074   0.70004   0.00000  Uiso   1.00
C159   C     0.15560   0.22994   0.52850   0.00000  Uiso   1.00
C160   C     0.18259   0.27879   0.48650   0.00000  Uiso   1.00
C161   C     0.17305   0.33711   0.52599   0.00000  Uiso   1.00
H162   H     0.06770   0.18617   0.70297   0.00000  Uiso   1.00
H163   H     0.99292   0.14215   0.59632   0.00000  Uiso   1.00
H164   H     0.11689   0.11465   0.82704   0.00000  Uiso   1.00
H165   H     0.08345   0.30425   0.70761   0.00000  Uiso   1.00
H166   H     0.92557   0.08932   0.44340   0.00000  Uiso   1.00
H167   H     0.18698   0.03135   0.92988   0.00000  Uiso   1.00
H168   H     0.11646   0.43116   0.67807   0.00000  Uiso   1.00
H169   H     0.18756   0.15538   0.43566   0.00000  Uiso   1.00
H170   H     0.11935   0.10967   0.31433   0.00000  Uiso   1.00
H171   H     0.24333   0.08216   0.54505   0.00000  Uiso   1.00
H172   H     0.20988   0.27177   0.42563   0.00000  Uiso   1.00
H173   H     0.02819   0.06296   0.21453   0.00000  Uiso   1.00
H174   H     0.28961   0.00498   0.70102   0.00000  Uiso   1.00
H175   H     0.21908   0.40480   0.44919   0.00000  Uiso   1.00
O176   O     0.92985   0.04660   0.25399   0.00000  Uiso   1.00
O177   O     0.27282   0.97055   0.89224   0.00000  Uiso   1.00
O178   O     0.18029   0.49510   0.56186   0.00000  Uiso   1.00
N179   N     0.95908   0.08940   0.40618   0.00000  Uiso   1.00
N180   N     0.20348   0.03519   0.86101   0.00000  Uiso   1.00
N181   N     0.13756   0.40898   0.62560   0.00000  Uiso   1.00
N182   N     0.01430   0.07522   0.28302   0.00000  Uiso   1.00
N183   N     0.25870   0.02101   0.73785   0.00000  Uiso   1.00
N184   N     0.19278   0.39479   0.50244   0.00000  Uiso   1.00
C185   C     0.40484   0.17912   0.14173   0.00000  Uiso   1.00
C186   C     0.42885   0.15094   0.04671   0.00000  Uiso   1.00
C187   C     0.47980   0.13513   0.03542   0.00000  Uiso   1.00
C188   C     0.49424   0.10992   0.94258   0.00000  Uiso   1.00
C189   C     0.53689   0.06750   0.80702   0.00000  Uiso   1.00
C190   C     0.36150   0.13599   0.17206   0.00000  Uiso   1.00
C191   C     0.35581   0.10762   0.26617   0.00000  Uiso   1.00
C192   C     0.31355   0.06982   0.27885   0.00000  Uiso   1.00
C193   C     0.25160   0.00423   0.33793   0.00000  Uiso   1.00
C194   C     0.37967   0.23900   0.10717   0.00000  Uiso   1.00
C195   C     0.38925   0.29725   0.14674   0.00000  Uiso   1.00
C196   C     0.36229   0.34619   0.10480   0.00000  Uiso   1.00
C197   C     0.32856   0.44055   0.06312   0.00000  Uiso   1.00
C198   C     0.33990   0.16244   0.99690   0.00000  Uiso   1.00
C199   C     0.39358   0.14187   0.96805   0.00000  Uiso   1.00
C200   C     0.40795   0.11668   0.87519   0.00000  Uiso   1.00
C201   C     0.45891   0.10084   0.86377   0.00000  Uiso   1.00
C202   C     0.32622   0.12692   0.09340   0.00000  Uiso   1.00
C203   C     0.28396   0.08916   0.10594   0.00000  Uiso   1.00
C204   C     0.27821   0.06074   0.20004   0.00000  Uiso   1.00
C205   C     0.34440   0.22994   0.02850   0.00000  Uiso   1.00
C206   C     0.31741   0.27879   0.98650   0.00000  Uiso   1.00
C207   C     0.32695   0.33711   0.02599   0.00000  Uiso   1.00
H208   H     0.43230   0.18617   0.20297   0.00000  Uiso   1.00
H209   H     0.50708   0.14215   0.09632   0.00000  Uiso   1.00
H210   H     0.38311   0.11465   0.32704   0.00000  Uiso   1.00
H211   H     0.41655   0.30425   0.20761   0.00000  Uiso   1.00
H212   H     0.57443   0.08932   0.94340   0.00000  Uiso   1.00
H213   H     0.31302   0.03135   0.42988   0.00000  Uiso   1.00
H214   H     0.38354   0.43116   0.17807   0.00000  Uiso   1.00
H215   H     0.31244   0.15538   0.93566   0.00000  Uiso   1.00
H216   H     0.38065   0.10967   0.81433   0.00000  Uiso   1.00
H217   H     0.25667   0.08216   0.04505   0.00000  Uiso   1.00
H218   H     0.29012   0.27177   0.92563   0.00000  Uiso   1.00
H219   H     0.47181   0.06296   0.71453   0.00000  Uiso   1.00
H220   H     0.21039   0.00498   0.20102   0.00000  Uiso   1.00
H221   H     0.28092   0.40480   0.94919   0.00000  Uiso   1.00
O222   O     0.57015   0.04660   0.75399   0.00000  Uiso   1.00
O223   O     0.22718   0.97055   0.39224   0.00000  Uiso   1.00
O224   O     0.31971   0.49510   0.06186   0.00000  Uiso   1.00
N225   N     0.54092   0.08940   0.90618   0.00000  Uiso   1.00
N226   N     0.29652   0.03519   0.36101   0.00000  Uiso   1.00
N227   N     0.36244   0.40898   0.12560   0.00000  Uiso   1.00
N228   N     0.48570   0.07522   0.78302   0.00000  Uiso   1.00
N229   N     0.24130   0.02101   0.23785   0.00000  Uiso   1.00
N230   N     0.30722   0.39479   0.00244   0.00000  Uiso   1.00
C231   C     0.40484   0.67912   0.64173   0.00000  Uiso   1.00
C232   C     0.42885   0.65094   0.54671   0.00000  Uiso   1.00
C233   C     0.47980   0.63513   0.53542   0.00000  Uiso   1.00
C234   C     0.49424   0.60992   0.44258   0.00000  Uiso   1.00
C235   C     0.53689   0.56750   0.30702   0.00000  Uiso   1.00
C236   C     0.36150   0.63599   0.67206   0.00000  Uiso   1.00
C237   C     0.35581   0.60762   0.76617   0.00000  Uiso   1.00
C238   C     0.31355   0.56982   0.77885   0.00000  Uiso   1.00
C239   C     0.25160   0.50423   0.83793   0.00000  Uiso   1.00
C240   C     0.37967   0.73900   0.60717   0.00000  Uiso   1.00
C241   C     0.38925   0.79725   0.64674   0.00000  Uiso   1.00
C242   C     0.36229   0.84619   0.60480   0.00000  Uiso   1.00
C243   C     0.32856   0.94055   0.56312   0.00000  Uiso   1.00
C244   C     0.33990   0.66244   0.49690   0.00000  Uiso   1.00
C245   C     0.39358   0.64187   0.46805   0.00000  Uiso   1.00
C246   C     0.40795   0.61668   0.37519   0.00000  Uiso   1.00
C247   C     0.45891   0.60084   0.36377   0.00000  Uiso   1.00
C248   C     0.32622   0.62692   0.59340   0.00000  Uiso   1.00
C249   C     0.28396   0.58916   0.60594   0.00000  Uiso   1.00
C250   C     0.27821   0.56074   0.70004   0.00000  Uiso   1.00
C251   C     0.34440   0.72994   0.52850   0.00000  Uiso   1.00
C252   C     0.31741   0.77879   0.48650   0.00000  Uiso   1.00
C253   C     0.32695   0.83711   0.52599   0.00000  Uiso   1.00
H254   H     0.43230   0.68617   0.70297   0.00000  Uiso   1.00
H255   H     0.50708   0.64215   0.59632   0.00000  Uiso   1.00
H256   H     0.38311   0.61465   0.82704   0.00000  Uiso   1.00
H257   H     0.41655   0.80425   0.70761   0.00000  Uiso   1.00
H258   H     0.57443   0.58932   0.44340   0.00000  Uiso   1.00
H259   H     0.31302   0.53135   0.92988   0.00000  Uiso   1.00
H260   H     0.38354   0.93116   0.67807   0.00000  Uiso   1.00
H261   H     0.31244   0.65538   0.43566   0.00000  Uiso   1.00
H262   H     0.38065   0.60967   0.31433   0.00000  Uiso   1.00
H263   H     0.25667   0.58216   0.54505   0.00000  Uiso   1.00
H264   H     0.29012   0.77177   0.42563   0.00000  Uiso   1.00
H265   H     0.47181   0.56296   0.21453   0.00000  Uiso   1.00
H266   H     0.21039   0.50498   0.70102   0.00000  Uiso   1.00
H267   H     0.28092   0.90480   0.44919   0.00000  Uiso   1.00
O268   O     0.57015   0.54660   0.25399   0.00000  Uiso   1.00
O269   O     0.22718   0.47055   0.89224   0.00000  Uiso   1.00
O270   O     0.31971   0.99510   0.56186   0.00000  Uiso   1.00
N271   N     0.54092   0.58940   0.40618   0.00000  Uiso   1.00
N272   N     0.29652   0.53519   0.86101   0.00000  Uiso   1.00
N273   N     0.36244   0.90898   0.62560   0.00000  Uiso   1.00
N274   N     0.48570   0.57522   0.28302   0.00000  Uiso   1.00
N275   N     0.24130   0.52101   0.73785   0.00000  Uiso   1.00
N276   N     0.30722   0.89479   0.50244   0.00000  Uiso   1.00
C277   C     0.59516   0.82088   0.14173   0.00000  Uiso   1.00
C278   C     0.57115   0.84906   0.04671   0.00000  Uiso   1.00
C279   C     0.52020   0.86487   0.03542   0.00000  Uiso   1.00
C280   C     0.50576   0.89008   0.94258   0.00000  Uiso   1.00
C281   C     0.46311   0.93250   0.80702   0.00000  Uiso   1.00
C282   C     0.63850   0.86401   0.17206   0.00000  Uiso   1.00
C283   C     0.64419   0.89238   0.26617   0.00000  Uiso   1.00
C284   C     0.68645   0.93018   0.27885   0.00000  Uiso   1.00
C285   C     0.74840   0.99577   0.33793   0.00000  Uiso   1.00
C286   C     0.62033   0.76100   0.10717   0.00000  Uiso   1.00
C287   C     0.61075   0.70275   0.14674   0.00000  Uiso   1.00
C288   C     0.63771   0.65381   0.10480   0.00000  Uiso   1.00
C289   C     0.67144   0.55945   0.06312   0.00000  Uiso   1.00
C290   C     0.66010   0.83756   0.99690   0.00000  Uiso   1.00
C291   C     0.60642   0.85813   0.96805   0.00000  Uiso   1.00
C292   C     0.59205   0.88332   0.87519   0.00000  Uiso   1.00
C293   C     0.54109   0.89916   0.86377   0.00000  Uiso   1.00
C294   C     0.67378   0.87308   0.09340   0.00000  Uiso   1.00
C295   C     0.71604   0.91084   0.10594   0.00000  Uiso   1.00
C296   C     0.72179   0.93926   0.20004   0.00000  Uiso   1.00
C297   C     0.65560   0.77006   0.02850   0.00000  Uiso   1.00
C298   C     0.68259   0.72121   0.98650   0.00000  Uiso   1.00
C299   C     0.67305   0.66289   0.02599   0.00000  Uiso   1.00
H300   H     0.56770   0.81383   0.20297   0.00000  Uiso   1.00
H301   H     0.49292   0.85785   0.09632   0.00000  Uiso   1.00
H302   H     0.61689   0.88535   0.32704   0.00000  Uiso   1.00
H303   H     0.58345   0.69575   0.20761   0.00000  Uiso   1.00
H304   H     0.42557   0.91068   0.94340   0.00000  Uiso   1.00
H305   H     0.68698   0.96865   0.42988   0.00000  Uiso   1.00
H306   H     0.61646   0.56884   0.17807   0.00000  Uiso   1.00
H307   H     0.68756   0.84462   0.93566   0.00000  Uiso   1.00
H308   H     0.61935   0.89033   0.81433   0.00000  Uiso   1.00
H309   H     0.74333   0.91784   0.04505   0.00000  Uiso   1.00
H310   H     0.70988   0.72823   0.92563   0.00000  Uiso   1.00
H311   H     0.52819   0.93704   0.71453   0.00000  Uiso   1.00
H312   H     0.78961   0.99502   0.20102   0.00000  Uiso   1.00
H313   H     0.71908   0.59520   0.94919   0.00000  Uiso   1.00
O314   O     0.42985   0.95340   0.75399   0.00000  Uiso   1.00
O315   O     0.77282   0.02945   0.39224   0.00000  Uiso   1.00
O316   O     0.68029   0.50490   0.06186   0.00000  Uiso   1.00
N317   N     0.45908   0.91060   0.90618   0.00000  Uiso   1.00
N318   N     0.70348   0.96481   0.36101   0.00000  Uiso   1.00
N319   N     0.63756   0.59102   0.12560   0.00000  Uiso   1.00
N320   N     0.51430   0.92478   0.78302   0.00000  Uiso   1.00
N321   N     0.75870   0.97899   0.23785   0.00000  Uiso   1.00
N322   N     0.69278   0.60521   0.00244   0.00000  Uiso   1.00
C323   C     0.59516   0.32088   0.64173   0.00000  Uiso   1.00
C324   C     0.57115   0.34906   0.54671   0.00000  Uiso   1.00
C325   C     0.52020   0.36487   0.53542   0.00000  Uiso   1.00
C326   C     0.50576   0.39008   0.44258   0.00000  Uiso   1.00
C327   C     0.46311   0.43250   0.30702   0.00000  Uiso   1.00
C328   C     0.63850   0.36401   0.67206   0.00000  Uiso   1.00
C329   C     0.64419   0.39238   0.76617   0.00000  Uiso   1.00
C330   C     0.68645   0.43018   0.77885   0.00000  Uiso   1.00
C331   C     0.74840   0.49577   0.83793   0.00000  Uiso   1.00
C332   C     0.62033   0.26100   0.60717   0.00000  Uiso   1.00
C333   C     0.61075   0.20275   0.64674   0.00000  Uiso   1.00
C334   C     0.63771   0.15381   0.60480   0.00000  Uiso   1.00
C335   C     0.67144   0.05945   0.56312   0.00000  Uiso   1.00
C336   C     0.66010   0.33756   0.49690   0.00000  Uiso   1.00
C337   C     0.60642   0.35813   0.46805   0.00000  Uiso   1.00
C338   C     0.59205   0.38332   0.37519   0.00000  Uiso   1.00
C339   C     0.54109   0.39916   0.36377   0.00000  Uiso   1.00
C340   C     0.67378   0.37308   0.59340   0.00000  Uiso   1.00
C341   C     0.71604   0.41084   0.60594   0.00000  Uiso   1.00
C342   C     0.72179   0.43926   0.70004   0.00000  Uiso   1.00
C343   C     0.65560   0.27006   0.52850   0.00000  Uiso   1.00
C344   C     0.68259   0.22121   0.48650   0.00000  Uiso   1.00
C345   C     0.67305   0.16289   0.52599   0.00000  Uiso   1.00
H346   H     0.56770   0.31383   0.70297   0.00000  Uiso   1.00
H347   H     0.49292   0.35785   0.59632   0.00000  Uiso   1.00
H348   H     0.61689   0.38535   0.82704   0.00000  Uiso   1.00
H349   H     0.58345   0.19575   0.70761   0.00000  Uiso   1.00
H350   H     0.42557   0.41068   0.44340   0.00000  Uiso   1.00
H351   H     0.68698   0.46865   0.92988   0.00000  Uiso   1.00
H352   H     0.61646   0.06884   0.67807   0.00000  Uiso   1.00
H353   H     0.68756   0.34462   0.43566   0.00000  Uiso   1.00
H354   H     0.61935   0.39033   0.31433   0.00000  Uiso   1.00
H355   H     0.74333   0.41784   0.54505   0.00000  Uiso   1.00
H356   H     0.70988   0.22823   0.42563   0.00000  Uiso   1.00
H357   H     0.52819   0.43704   0.21453   0.00000  Uiso   1.00
H358   H     0.78961   0.49502   0.70102   0.00000  Uiso   1.00
H359   H     0.71908   0.09520   0.44919   0.00000  Uiso   1.00
O360   O     0.42985   0.45340   0.25399   0.00000  Uiso   1.00
O361   O     0.77282   0.52945   0.89224   0.00000  Uiso   1.00
O362   O     0.68029   0.00490   0.56186   0.00000  Uiso   1.00
N363   N     0.45908   0.41060   0.40618   0.00000  Uiso   1.00
N364   N     0.70348   0.46481   0.86101   0.00000  Uiso   1.00
N365   N     0.63756   0.09102   0.62560   0.00000  Uiso   1.00
N366   N     0.51430   0.42478   0.28302   0.00000  Uiso   1.00
N367   N     0.75870   0.47899   0.73785   0.00000  Uiso   1.00
N368   N     0.69278   0.10521   0.50244   0.00000  Uiso   1.00
