data_job_02686
_audit_creation_date              2018-12-19
_audit_creation_method            'Materials Studio'
_symmetry_space_group_name_H-M    'P1'
_symmetry_Int_Tables_number       1
_symmetry_cell_setting            triclinic
loop_
_symmetry_equiv_pos_as_xyz
  x,y,z
_cell_length_a                    20.2650
_cell_length_b                    10.2508
_cell_length_c                    29.6745
_cell_angle_alpha                 90.0000
_cell_angle_beta                  122.8283
_cell_angle_gamma                 90.0000
loop_
_atom_site_label
_atom_site_type_symbol
_atom_site_fract_x
_atom_site_fract_y
_atom_site_fract_z
_atom_site_U_iso_or_equiv
_atom_site_adp_type
_atom_site_occupancy
C1     C     0.01686   0.50047   0.11089   0.00000  Uiso   1.00
C2     C     0.96050   0.39524   0.07348   0.00000  Uiso   1.00
C3     C     0.94527   0.36487   0.02312   0.00000  Uiso   1.00
C4     C     0.89179   0.26541   0.99517   0.00000  Uiso   1.00
C5     C     0.80985   0.11219   0.93378   0.00000  Uiso   1.00
C6     C     0.96851   0.59038   0.12309   0.00000  Uiso   1.00
C7     C     0.96003   0.72409   0.11443   0.00000  Uiso   1.00
C8     C     0.91328   0.78889   0.12825   0.00000  Uiso   1.00
C9     C     0.84383   0.93865   0.14391   0.00000  Uiso   1.00
C10    C     0.07502   0.43174   0.16345   0.00000  Uiso   1.00
C11    C     0.15610   0.43209   0.18875   0.00000  Uiso   1.00
C12    C     0.19904   0.36336   0.23656   0.00000  Uiso   1.00
C13    C     0.29497   0.26681   0.31489   0.00000  Uiso   1.00
C14    C     0.94894   0.37782   0.15082   0.00000  Uiso   1.00
C15    C     0.92361   0.32863   0.09517   0.00000  Uiso   1.00
C16    C     0.87013   0.22918   0.06730   0.00000  Uiso   1.00
C17    C     0.85483   0.19867   0.01690   0.00000  Uiso   1.00
C18    C     0.93162   0.52377   0.14478   0.00000  Uiso   1.00
C19    C     0.88488   0.58839   0.15861   0.00000  Uiso   1.00
C20    C     0.87633   0.72216   0.14998   0.00000  Uiso   1.00
C21    C     0.03813   0.36512   0.18514   0.00000  Uiso   1.00
C22    C     0.08096   0.29639   0.23293   0.00000  Uiso   1.00
C23    C     0.16209   0.29663   0.25829   0.00000  Uiso   1.00
H24    H     0.04558   0.55234   0.09400   0.00000  Uiso   1.00
H25    H     0.97383   0.41646   0.00635   0.00000  Uiso   1.00
H26    H     0.98859   0.77561   0.09765   0.00000  Uiso   1.00
H27    H     0.18463   0.48365   0.17195   0.00000  Uiso   1.00
H28    H     0.87799   0.23646   0.91872   0.00000  Uiso   1.00
H29    H     0.90913   0.99377   0.11126   0.00000  Uiso   1.00
H30    H     0.32253   0.37812   0.26794   0.00000  Uiso   1.00
H31    H     0.92022   0.32596   0.16771   0.00000  Uiso   1.00
H32    H     0.84159   0.17765   0.08409   0.00000  Uiso   1.00
H33    H     0.85635   0.53681   0.17540   0.00000  Uiso   1.00
H34    H     0.05239   0.24485   0.24970   0.00000  Uiso   1.00
H35    H     0.77066   0.04264   0.98182   0.00000  Uiso   1.00
H36    H     0.80180   0.79996   0.17437   0.00000  Uiso   1.00
H37    H     0.21519   0.18430   0.33104   0.00000  Uiso   1.00
O38    O     0.77485   0.04610   0.89393   0.00000  Uiso   1.00
O39    O     0.81571   0.03967   0.14655   0.00000  Uiso   1.00
O40    O     0.35807   0.23194   0.35210   0.00000  Uiso   1.00
N41    N     0.86354   0.21118   0.94505   0.00000  Uiso   1.00
N42    N     0.89264   0.91922   0.12506   0.00000  Uiso   1.00
N43    N     0.27913   0.34367   0.27154   0.00000  Uiso   1.00
N44    N     0.80578   0.10688   0.97900   0.00000  Uiso   1.00
N45    N     0.83488   0.81492   0.15901   0.00000  Uiso   1.00
N46    N     0.22137   0.23937   0.30550   0.00000  Uiso   1.00
C47    C     0.51686   0.00047   0.11089   0.00000  Uiso   1.00
C48    C     0.46050   0.89524   0.07348   0.00000  Uiso   1.00
C49    C     0.44527   0.86487   0.02312   0.00000  Uiso   1.00
C50    C     0.39179   0.76541   0.99517   0.00000  Uiso   1.00
C51    C     0.30985   0.61219   0.93378   0.00000  Uiso   1.00
C52    C     0.46851   0.09038   0.12309   0.00000  Uiso   1.00
C53    C     0.46003   0.22409   0.11443   0.00000  Uiso   1.00
C54    C     0.41328   0.28889   0.12825   0.00000  Uiso   1.00
C55    C     0.34383   0.43865   0.14391   0.00000  Uiso   1.00
C56    C     0.57502   0.93174   0.16345   0.00000  Uiso   1.00
C57    C     0.65610   0.93209   0.18875   0.00000  Uiso   1.00
C58    C     0.69904   0.86336   0.23656   0.00000  Uiso   1.00
C59    C     0.79497   0.76681   0.31489   0.00000  Uiso   1.00
C60    C     0.44894   0.87782   0.15082   0.00000  Uiso   1.00
C61    C     0.42361   0.82863   0.09517   0.00000  Uiso   1.00
C62    C     0.37013   0.72918   0.06730   0.00000  Uiso   1.00
C63    C     0.35483   0.69867   0.01690   0.00000  Uiso   1.00
C64    C     0.43162   0.02377   0.14478   0.00000  Uiso   1.00
C65    C     0.38488   0.08839   0.15861   0.00000  Uiso   1.00
C66    C     0.37633   0.22216   0.14998   0.00000  Uiso   1.00
C67    C     0.53813   0.86512   0.18514   0.00000  Uiso   1.00
C68    C     0.58096   0.79639   0.23293   0.00000  Uiso   1.00
C69    C     0.66209   0.79663   0.25829   0.00000  Uiso   1.00
H70    H     0.54558   0.05234   0.09400   0.00000  Uiso   1.00
H71    H     0.47383   0.91646   0.00635   0.00000  Uiso   1.00
H72    H     0.48859   0.27561   0.09765   0.00000  Uiso   1.00
H73    H     0.68463   0.98365   0.17195   0.00000  Uiso   1.00
H74    H     0.37799   0.73646   0.91872   0.00000  Uiso   1.00
H75    H     0.40913   0.49377   0.11126   0.00000  Uiso   1.00
H76    H     0.82253   0.87812   0.26794   0.00000  Uiso   1.00
H77    H     0.42022   0.82596   0.16771   0.00000  Uiso   1.00
H78    H     0.34159   0.67765   0.08409   0.00000  Uiso   1.00
H79    H     0.35635   0.03681   0.17540   0.00000  Uiso   1.00
H80    H     0.55239   0.74485   0.24970   0.00000  Uiso   1.00
H81    H     0.27066   0.54264   0.98182   0.00000  Uiso   1.00
H82    H     0.30180   0.29996   0.17437   0.00000  Uiso   1.00
H83    H     0.71519   0.68430   0.33104   0.00000  Uiso   1.00
O84    O     0.27485   0.54610   0.89393   0.00000  Uiso   1.00
O85    O     0.31571   0.53967   0.14655   0.00000  Uiso   1.00
O86    O     0.85807   0.73194   0.35210   0.00000  Uiso   1.00
N87    N     0.36354   0.71118   0.94505   0.00000  Uiso   1.00
N88    N     0.39264   0.41922   0.12506   0.00000  Uiso   1.00
N89    N     0.77913   0.84367   0.27154   0.00000  Uiso   1.00
N90    N     0.30578   0.60688   0.97900   0.00000  Uiso   1.00
N91    N     0.33488   0.31492   0.15901   0.00000  Uiso   1.00
N92    N     0.72137   0.73937   0.30550   0.00000  Uiso   1.00
C93    C     0.98314   0.50047   0.38911   0.00000  Uiso   1.00
C94    C     0.03950   0.39524   0.42652   0.00000  Uiso   1.00
C95    C     0.05473   0.36487   0.47688   0.00000  Uiso   1.00
C96    C     0.10821   0.26541   0.50483   0.00000  Uiso   1.00
C97    C     0.19015   0.11219   0.56622   0.00000  Uiso   1.00
C98    C     0.03149   0.59038   0.37691   0.00000  Uiso   1.00
C99    C     0.03997   0.72409   0.38557   0.00000  Uiso   1.00
C100   C     0.08672   0.78889   0.37175   0.00000  Uiso   1.00
C101   C     0.15617   0.93865   0.35609   0.00000  Uiso   1.00
C102   C     0.92498   0.43174   0.33655   0.00000  Uiso   1.00
C103   C     0.84390   0.43209   0.31125   0.00000  Uiso   1.00
C104   C     0.80096   0.36336   0.26344   0.00000  Uiso   1.00
C105   C     0.70503   0.26681   0.18511   0.00000  Uiso   1.00
C106   C     0.05106   0.37782   0.34918   0.00000  Uiso   1.00
C107   C     0.07639   0.32863   0.40483   0.00000  Uiso   1.00
C108   C     0.12987   0.22918   0.43270   0.00000  Uiso   1.00
C109   C     0.14517   0.19867   0.48310   0.00000  Uiso   1.00
C110   C     0.06838   0.52377   0.35522   0.00000  Uiso   1.00
C111   C     0.11512   0.58839   0.34139   0.00000  Uiso   1.00
C112   C     0.12367   0.72216   0.35002   0.00000  Uiso   1.00
C113   C     0.96187   0.36512   0.31486   0.00000  Uiso   1.00
C114   C     0.91904   0.29639   0.26707   0.00000  Uiso   1.00
C115   C     0.83791   0.29663   0.24171   0.00000  Uiso   1.00
H116   H     0.95442   0.55234   0.40600   0.00000  Uiso   1.00
H117   H     0.02617   0.41646   0.49365   0.00000  Uiso   1.00
H118   H     0.01141   0.77561   0.40235   0.00000  Uiso   1.00
H119   H     0.81537   0.48365   0.32805   0.00000  Uiso   1.00
H120   H     0.12201   0.23646   0.58128   0.00000  Uiso   1.00
H121   H     0.09087   0.99377   0.38874   0.00000  Uiso   1.00
H122   H     0.67747   0.37812   0.23206   0.00000  Uiso   1.00
H123   H     0.07978   0.32596   0.33229   0.00000  Uiso   1.00
H124   H     0.15841   0.17765   0.41591   0.00000  Uiso   1.00
H125   H     0.14365   0.53681   0.32460   0.00000  Uiso   1.00
H126   H     0.94761   0.24485   0.25030   0.00000  Uiso   1.00
H127   H     0.22934   0.04264   0.51818   0.00000  Uiso   1.00
H128   H     0.19820   0.79996   0.32563   0.00000  Uiso   1.00
H129   H     0.78481   0.18430   0.16896   0.00000  Uiso   1.00
O130   O     0.22515   0.04610   0.60607   0.00000  Uiso   1.00
O131   O     0.18429   0.03967   0.35345   0.00000  Uiso   1.00
O132   O     0.64193   0.23194   0.14790   0.00000  Uiso   1.00
N133   N     0.13646   0.21118   0.55495   0.00000  Uiso   1.00
N134   N     0.10736   0.91922   0.37494   0.00000  Uiso   1.00
N135   N     0.72087   0.34367   0.22846   0.00000  Uiso   1.00
N136   N     0.19422   0.10688   0.52100   0.00000  Uiso   1.00
N137   N     0.16512   0.81492   0.34099   0.00000  Uiso   1.00
N138   N     0.77863   0.23937   0.19450   0.00000  Uiso   1.00
C139   C     0.48314   0.00047   0.38911   0.00000  Uiso   1.00
C140   C     0.53950   0.89524   0.42652   0.00000  Uiso   1.00
C141   C     0.55473   0.86487   0.47688   0.00000  Uiso   1.00
C142   C     0.60821   0.76541   0.50483   0.00000  Uiso   1.00
C143   C     0.69015   0.61219   0.56622   0.00000  Uiso   1.00
C144   C     0.53149   0.09038   0.37691   0.00000  Uiso   1.00
C145   C     0.53997   0.22409   0.38557   0.00000  Uiso   1.00
C146   C     0.58672   0.28889   0.37175   0.00000  Uiso   1.00
C147   C     0.65617   0.43865   0.35609   0.00000  Uiso   1.00
C148   C     0.42498   0.93174   0.33655   0.00000  Uiso   1.00
C149   C     0.34390   0.93209   0.31125   0.00000  Uiso   1.00
C150   C     0.30096   0.86336   0.26344   0.00000  Uiso   1.00
C151   C     0.20503   0.76681   0.18511   0.00000  Uiso   1.00
C152   C     0.55106   0.87782   0.34918   0.00000  Uiso   1.00
C153   C     0.57639   0.82863   0.40483   0.00000  Uiso   1.00
C154   C     0.62987   0.72918   0.43270   0.00000  Uiso   1.00
C155   C     0.64517   0.69867   0.48310   0.00000  Uiso   1.00
C156   C     0.56838   0.02377   0.35522   0.00000  Uiso   1.00
C157   C     0.61512   0.08839   0.34139   0.00000  Uiso   1.00
C158   C     0.62367   0.22216   0.35002   0.00000  Uiso   1.00
C159   C     0.46187   0.86512   0.31486   0.00000  Uiso   1.00
C160   C     0.41904   0.79639   0.26707   0.00000  Uiso   1.00
C161   C     0.33791   0.79663   0.24171   0.00000  Uiso   1.00
H162   H     0.45442   0.05234   0.40600   0.00000  Uiso   1.00
H163   H     0.52617   0.91646   0.49365   0.00000  Uiso   1.00
H164   H     0.51141   0.27561   0.40235   0.00000  Uiso   1.00
H165   H     0.31537   0.98365   0.32805   0.00000  Uiso   1.00
H166   H     0.62201   0.73646   0.58128   0.00000  Uiso   1.00
H167   H     0.59087   0.49377   0.38874   0.00000  Uiso   1.00
H168   H     0.17747   0.87812   0.23206   0.00000  Uiso   1.00
H169   H     0.57978   0.82596   0.33229   0.00000  Uiso   1.00
H170   H     0.65841   0.67765   0.41591   0.00000  Uiso   1.00
H171   H     0.64365   0.03681   0.32460   0.00000  Uiso   1.00
H172   H     0.44761   0.74485   0.25030   0.00000  Uiso   1.00
H173   H     0.72934   0.54264   0.51818   0.00000  Uiso   1.00
H174   H     0.69820   0.29996   0.32563   0.00000  Uiso   1.00
H175   H     0.28481   0.68430   0.16896   0.00000  Uiso   1.00
O176   O     0.72515   0.54610   0.60607   0.00000  Uiso   1.00
O177   O     0.68429   0.53967   0.35345   0.00000  Uiso   1.00
O178   O     0.14193   0.73194   0.14790   0.00000  Uiso   1.00
N179   N     0.63646   0.71118   0.55495   0.00000  Uiso   1.00
N180   N     0.60736   0.41922   0.37494   0.00000  Uiso   1.00
N181   N     0.22087   0.84367   0.22846   0.00000  Uiso   1.00
N182   N     0.69422   0.60688   0.52100   0.00000  Uiso   1.00
N183   N     0.66512   0.31492   0.34099   0.00000  Uiso   1.00
N184   N     0.27863   0.73937   0.19450   0.00000  Uiso   1.00
C185   C     0.98314   0.49953   0.88911   0.00000  Uiso   1.00
C186   C     0.03950   0.60476   0.92652   0.00000  Uiso   1.00
C187   C     0.05473   0.63513   0.97688   0.00000  Uiso   1.00
C188   C     0.10821   0.73459   0.00483   0.00000  Uiso   1.00
C189   C     0.19015   0.88781   0.06622   0.00000  Uiso   1.00
C190   C     0.03149   0.40962   0.87691   0.00000  Uiso   1.00
C191   C     0.03997   0.27591   0.88557   0.00000  Uiso   1.00
C192   C     0.08672   0.21111   0.87175   0.00000  Uiso   1.00
C193   C     0.15617   0.06135   0.85609   0.00000  Uiso   1.00
C194   C     0.92498   0.56826   0.83655   0.00000  Uiso   1.00
C195   C     0.84390   0.56791   0.81125   0.00000  Uiso   1.00
C196   C     0.80096   0.63664   0.76344   0.00000  Uiso   1.00
C197   C     0.70503   0.73319   0.68511   0.00000  Uiso   1.00
C198   C     0.05106   0.62218   0.84918   0.00000  Uiso   1.00
C199   C     0.07639   0.67137   0.90483   0.00000  Uiso   1.00
C200   C     0.12987   0.77082   0.93270   0.00000  Uiso   1.00
C201   C     0.14517   0.80133   0.98310   0.00000  Uiso   1.00
C202   C     0.06838   0.47623   0.85522   0.00000  Uiso   1.00
C203   C     0.11512   0.41161   0.84139   0.00000  Uiso   1.00
C204   C     0.12367   0.27784   0.85002   0.00000  Uiso   1.00
C205   C     0.96187   0.63488   0.81486   0.00000  Uiso   1.00
C206   C     0.91904   0.70361   0.76707   0.00000  Uiso   1.00
C207   C     0.83791   0.70337   0.74171   0.00000  Uiso   1.00
H208   H     0.95442   0.44766   0.90600   0.00000  Uiso   1.00
H209   H     0.02617   0.58354   0.99365   0.00000  Uiso   1.00
H210   H     0.01141   0.22439   0.90235   0.00000  Uiso   1.00
H211   H     0.81537   0.51635   0.82805   0.00000  Uiso   1.00
H212   H     0.12201   0.76354   0.08128   0.00000  Uiso   1.00
H213   H     0.09087   0.00623   0.88874   0.00000  Uiso   1.00
H214   H     0.67747   0.62188   0.73206   0.00000  Uiso   1.00
H215   H     0.07978   0.67404   0.83229   0.00000  Uiso   1.00
H216   H     0.15841   0.82235   0.91591   0.00000  Uiso   1.00
H217   H     0.14365   0.46319   0.82460   0.00000  Uiso   1.00
H218   H     0.94761   0.75515   0.75030   0.00000  Uiso   1.00
H219   H     0.22934   0.95736   0.01818   0.00000  Uiso   1.00
H220   H     0.19820   0.20004   0.82563   0.00000  Uiso   1.00
H221   H     0.78481   0.81570   0.66896   0.00000  Uiso   1.00
O222   O     0.22515   0.95390   0.10607   0.00000  Uiso   1.00
O223   O     0.18429   0.96033   0.85345   0.00000  Uiso   1.00
O224   O     0.64193   0.76806   0.64790   0.00000  Uiso   1.00
N225   N     0.13646   0.78882   0.05495   0.00000  Uiso   1.00
N226   N     0.10736   0.08078   0.87494   0.00000  Uiso   1.00
N227   N     0.72087   0.65633   0.72846   0.00000  Uiso   1.00
N228   N     0.19422   0.89312   0.02100   0.00000  Uiso   1.00
N229   N     0.16512   0.18508   0.84099   0.00000  Uiso   1.00
N230   N     0.77863   0.76063   0.69450   0.00000  Uiso   1.00
C231   C     0.48314   0.99953   0.88911   0.00000  Uiso   1.00
C232   C     0.53950   0.10476   0.92652   0.00000  Uiso   1.00
C233   C     0.55473   0.13513   0.97688   0.00000  Uiso   1.00
C234   C     0.60821   0.23459   0.00483   0.00000  Uiso   1.00
C235   C     0.69015   0.38781   0.06622   0.00000  Uiso   1.00
C236   C     0.53149   0.90962   0.87691   0.00000  Uiso   1.00
C237   C     0.53997   0.77591   0.88557   0.00000  Uiso   1.00
C238   C     0.58672   0.71111   0.87175   0.00000  Uiso   1.00
C239   C     0.65617   0.56135   0.85609   0.00000  Uiso   1.00
C240   C     0.42498   0.06826   0.83655   0.00000  Uiso   1.00
C241   C     0.34390   0.06791   0.81125   0.00000  Uiso   1.00
C242   C     0.30096   0.13664   0.76344   0.00000  Uiso   1.00
C243   C     0.20503   0.23319   0.68511   0.00000  Uiso   1.00
C244   C     0.55106   0.12218   0.84918   0.00000  Uiso   1.00
C245   C     0.57639   0.17137   0.90483   0.00000  Uiso   1.00
C246   C     0.62987   0.27082   0.93270   0.00000  Uiso   1.00
C247   C     0.64517   0.30133   0.98310   0.00000  Uiso   1.00
C248   C     0.56838   0.97623   0.85522   0.00000  Uiso   1.00
C249   C     0.61512   0.91161   0.84139   0.00000  Uiso   1.00
C250   C     0.62367   0.77784   0.85002   0.00000  Uiso   1.00
C251   C     0.46187   0.13488   0.81486   0.00000  Uiso   1.00
C252   C     0.41904   0.20361   0.76707   0.00000  Uiso   1.00
C253   C     0.33791   0.20337   0.74171   0.00000  Uiso   1.00
H254   H     0.45442   0.94766   0.90600   0.00000  Uiso   1.00
H255   H     0.52617   0.08354   0.99365   0.00000  Uiso   1.00
H256   H     0.51141   0.72439   0.90235   0.00000  Uiso   1.00
H257   H     0.31537   0.01635   0.82805   0.00000  Uiso   1.00
H258   H     0.62201   0.26354   0.08128   0.00000  Uiso   1.00
H259   H     0.59087   0.50623   0.88874   0.00000  Uiso   1.00
H260   H     0.17747   0.12188   0.73206   0.00000  Uiso   1.00
H261   H     0.57978   0.17404   0.83229   0.00000  Uiso   1.00
H262   H     0.65841   0.32235   0.91591   0.00000  Uiso   1.00
H263   H     0.64365   0.96319   0.82460   0.00000  Uiso   1.00
H264   H     0.44761   0.25515   0.75030   0.00000  Uiso   1.00
H265   H     0.72934   0.45736   0.01818   0.00000  Uiso   1.00
H266   H     0.69820   0.70004   0.82563   0.00000  Uiso   1.00
H267   H     0.28481   0.31570   0.66896   0.00000  Uiso   1.00
O268   O     0.72515   0.45390   0.10607   0.00000  Uiso   1.00
O269   O     0.68429   0.46033   0.85345   0.00000  Uiso   1.00
O270   O     0.14193   0.26806   0.64790   0.00000  Uiso   1.00
N271   N     0.63646   0.28882   0.05495   0.00000  Uiso   1.00
N272   N     0.60736   0.58078   0.87494   0.00000  Uiso   1.00
N273   N     0.22087   0.15633   0.72846   0.00000  Uiso   1.00
N274   N     0.69422   0.39312   0.02100   0.00000  Uiso   1.00
N275   N     0.66512   0.68508   0.84099   0.00000  Uiso   1.00
N276   N     0.27863   0.26063   0.69450   0.00000  Uiso   1.00
C277   C     0.01686   0.49953   0.61089   0.00000  Uiso   1.00
C278   C     0.96050   0.60476   0.57348   0.00000  Uiso   1.00
C279   C     0.94527   0.63513   0.52312   0.00000  Uiso   1.00
C280   C     0.89179   0.73459   0.49517   0.00000  Uiso   1.00
C281   C     0.80985   0.88781   0.43378   0.00000  Uiso   1.00
C282   C     0.96851   0.40962   0.62309   0.00000  Uiso   1.00
C283   C     0.96003   0.27591   0.61443   0.00000  Uiso   1.00
C284   C     0.91328   0.21111   0.62825   0.00000  Uiso   1.00
C285   C     0.84383   0.06135   0.64391   0.00000  Uiso   1.00
C286   C     0.07502   0.56826   0.66345   0.00000  Uiso   1.00
C287   C     0.15610   0.56791   0.68875   0.00000  Uiso   1.00
C288   C     0.19904   0.63664   0.73656   0.00000  Uiso   1.00
C289   C     0.29497   0.73319   0.81489   0.00000  Uiso   1.00
C290   C     0.94894   0.62218   0.65082   0.00000  Uiso   1.00
C291   C     0.92361   0.67137   0.59517   0.00000  Uiso   1.00
C292   C     0.87013   0.77082   0.56730   0.00000  Uiso   1.00
C293   C     0.85483   0.80133   0.51690   0.00000  Uiso   1.00
C294   C     0.93162   0.47623   0.64478   0.00000  Uiso   1.00
C295   C     0.88488   0.41161   0.65861   0.00000  Uiso   1.00
C296   C     0.87633   0.27784   0.64998   0.00000  Uiso   1.00
C297   C     0.03813   0.63488   0.68514   0.00000  Uiso   1.00
C298   C     0.08096   0.70361   0.73293   0.00000  Uiso   1.00
C299   C     0.16209   0.70337   0.75829   0.00000  Uiso   1.00
H300   H     0.04558   0.44766   0.59400   0.00000  Uiso   1.00
H301   H     0.97383   0.58354   0.50635   0.00000  Uiso   1.00
H302   H     0.98859   0.22439   0.59765   0.00000  Uiso   1.00
H303   H     0.18463   0.51635   0.67195   0.00000  Uiso   1.00
H304   H     0.87799   0.76354   0.41872   0.00000  Uiso   1.00
H305   H     0.90913   0.00623   0.61126   0.00000  Uiso   1.00
H306   H     0.32253   0.62188   0.76794   0.00000  Uiso   1.00
H307   H     0.92022   0.67404   0.66771   0.00000  Uiso   1.00
H308   H     0.84159   0.82235   0.58409   0.00000  Uiso   1.00
H309   H     0.85635   0.46319   0.67540   0.00000  Uiso   1.00
H310   H     0.05239   0.75515   0.74970   0.00000  Uiso   1.00
H311   H     0.77066   0.95736   0.48182   0.00000  Uiso   1.00
H312   H     0.80180   0.20004   0.67437   0.00000  Uiso   1.00
H313   H     0.21519   0.81570   0.83104   0.00000  Uiso   1.00
O314   O     0.77485   0.95390   0.39393   0.00000  Uiso   1.00
O315   O     0.81571   0.96033   0.64655   0.00000  Uiso   1.00
O316   O     0.35807   0.76806   0.85210   0.00000  Uiso   1.00
N317   N     0.86354   0.78882   0.44505   0.00000  Uiso   1.00
N318   N     0.89264   0.08078   0.62506   0.00000  Uiso   1.00
N319   N     0.27913   0.65633   0.77154   0.00000  Uiso   1.00
N320   N     0.80578   0.89312   0.47900   0.00000  Uiso   1.00
N321   N     0.83488   0.18508   0.65901   0.00000  Uiso   1.00
N322   N     0.22137   0.76063   0.80550   0.00000  Uiso   1.00
C323   C     0.51686   0.99953   0.61089   0.00000  Uiso   1.00
C324   C     0.46050   0.10476   0.57348   0.00000  Uiso   1.00
C325   C     0.44527   0.13513   0.52312   0.00000  Uiso   1.00
C326   C     0.39179   0.23459   0.49517   0.00000  Uiso   1.00
C327   C     0.30985   0.38781   0.43378   0.00000  Uiso   1.00
C328   C     0.46851   0.90962   0.62309   0.00000  Uiso   1.00
C329   C     0.46003   0.77591   0.61443   0.00000  Uiso   1.00
C330   C     0.41328   0.71111   0.62825   0.00000  Uiso   1.00
C331   C     0.34383   0.56135   0.64391   0.00000  Uiso   1.00
C332   C     0.57502   0.06826   0.66345   0.00000  Uiso   1.00
C333   C     0.65610   0.06791   0.68875   0.00000  Uiso   1.00
C334   C     0.69904   0.13664   0.73656   0.00000  Uiso   1.00
C335   C     0.79497   0.23319   0.81489   0.00000  Uiso   1.00
C336   C     0.44894   0.12218   0.65082   0.00000  Uiso   1.00
C337   C     0.42361   0.17137   0.59517   0.00000  Uiso   1.00
C338   C     0.37013   0.27082   0.56730   0.00000  Uiso   1.00
C339   C     0.35483   0.30133   0.51690   0.00000  Uiso   1.00
C340   C     0.43162   0.97623   0.64478   0.00000  Uiso   1.00
C341   C     0.38488   0.91161   0.65861   0.00000  Uiso   1.00
C342   C     0.37633   0.77784   0.64998   0.00000  Uiso   1.00
C343   C     0.53813   0.13488   0.68514   0.00000  Uiso   1.00
C344   C     0.58096   0.20361   0.73293   0.00000  Uiso   1.00
C345   C     0.66209   0.20337   0.75829   0.00000  Uiso   1.00
H346   H     0.54558   0.94766   0.59400   0.00000  Uiso   1.00
H347   H     0.47383   0.08354   0.50635   0.00000  Uiso   1.00
H348   H     0.48859   0.72439   0.59765   0.00000  Uiso   1.00
H349   H     0.68463   0.01635   0.67195   0.00000  Uiso   1.00
H350   H     0.37799   0.26354   0.41872   0.00000  Uiso   1.00
H351   H     0.40913   0.50623   0.61126   0.00000  Uiso   1.00
H352   H     0.82253   0.12188   0.76794   0.00000  Uiso   1.00
H353   H     0.42022   0.17404   0.66771   0.00000  Uiso   1.00
H354   H     0.34159   0.32235   0.58409   0.00000  Uiso   1.00
H355   H     0.35635   0.96319   0.67540   0.00000  Uiso   1.00
H356   H     0.55239   0.25515   0.74970   0.00000  Uiso   1.00
H357   H     0.27066   0.45736   0.48182   0.00000  Uiso   1.00
H358   H     0.30180   0.70004   0.67437   0.00000  Uiso   1.00
H359   H     0.71519   0.31570   0.83104   0.00000  Uiso   1.00
O360   O     0.27485   0.45390   0.39393   0.00000  Uiso   1.00
O361   O     0.31571   0.46033   0.64655   0.00000  Uiso   1.00
O362   O     0.85807   0.26806   0.85210   0.00000  Uiso   1.00
N363   N     0.36354   0.28882   0.44505   0.00000  Uiso   1.00
N364   N     0.39264   0.58078   0.62506   0.00000  Uiso   1.00
N365   N     0.77913   0.15633   0.77154   0.00000  Uiso   1.00
N366   N     0.30578   0.39312   0.47900   0.00000  Uiso   1.00
N367   N     0.33488   0.68508   0.65901   0.00000  Uiso   1.00
N368   N     0.72137   0.26063   0.80550   0.00000  Uiso   1.00
