data_job_02611
_audit_creation_date              2018-12-19
_audit_creation_method            'Materials Studio'
_symmetry_space_group_name_H-M    'P1'
_symmetry_Int_Tables_number       1
_symmetry_cell_setting            triclinic
loop_
_symmetry_equiv_pos_as_xyz
  x,y,z
_cell_length_a                    11.5647
_cell_length_b                    23.6033
_cell_length_c                    23.5440
_cell_angle_alpha                 90.0000
_cell_angle_beta                  90.0000
_cell_angle_gamma                 90.0000
loop_
_atom_site_label
_atom_site_type_symbol
_atom_site_fract_x
_atom_site_fract_y
_atom_site_fract_z
_atom_site_U_iso_or_equiv
_atom_site_adp_type
_atom_site_occupancy
C1     C     0.46837   0.91888   0.36563   0.00000  Uiso   1.00
C2     C     0.47898   0.87004   0.32355   0.00000  Uiso   1.00
C3     C     0.52231   0.87387   0.26872   0.00000  Uiso   1.00
C4     C     0.52477   0.82434   0.23694   0.00000  Uiso   1.00
C5     C     0.54719   0.75634   0.16820   0.00000  Uiso   1.00
C6     C     0.34141   0.92098   0.38299   0.00000  Uiso   1.00
C7     C     0.26909   0.96766   0.37814   0.00000  Uiso   1.00
C8     C     0.15575   0.96101   0.39641   0.00000  Uiso   1.00
C9     C     0.96461   0.97211   0.41999   0.00000  Uiso   1.00
C10    C     0.53490   0.90066   0.41848   0.00000  Uiso   1.00
C11    C     0.62525   0.93025   0.44348   0.00000  Uiso   1.00
C12    C     0.67479   0.90650   0.49163   0.00000  Uiso   1.00
C13    C     0.78408   0.88605   0.57032   0.00000  Uiso   1.00
C14    C     0.39568   0.82409   0.40669   0.00000  Uiso   1.00
C15    C     0.43949   0.81855   0.34586   0.00000  Uiso   1.00
C16    C     0.44188   0.76900   0.31415   0.00000  Uiso   1.00
C17    C     0.48522   0.77276   0.25928   0.00000  Uiso   1.00
C18    C     0.30192   0.86950   0.40529   0.00000  Uiso   1.00
C19    C     0.18866   0.86278   0.42358   0.00000  Uiso   1.00
C20    C     0.11619   0.90943   0.41875   0.00000  Uiso   1.00
C21    C     0.49542   0.84917   0.44078   0.00000  Uiso   1.00
C22    C     0.54482   0.82537   0.48891   0.00000  Uiso   1.00
C23    C     0.63523   0.85492   0.51398   0.00000  Uiso   1.00
H24    H     0.49911   0.95897   0.34826   0.00000  Uiso   1.00
H25    H     0.55285   0.91373   0.25147   0.00000  Uiso   1.00
H26    H     0.29968   0.00750   0.36088   0.00000  Uiso   1.00
H27    H     0.65578   0.97009   0.42621   0.00000  Uiso   1.00
H28    H     0.59499   0.84087   0.15399   0.00000  Uiso   1.00
H29    H     0.06116   0.03859   0.38471   0.00000  Uiso   1.00
H30    H     0.81207   0.95972   0.52246   0.00000  Uiso   1.00
H31    H     0.36493   0.78400   0.42406   0.00000  Uiso   1.00
H32    H     0.41132   0.72916   0.33142   0.00000  Uiso   1.00
H33    H     0.15814   0.82293   0.44084   0.00000  Uiso   1.00
H34    H     0.51424   0.78553   0.50616   0.00000  Uiso   1.00
H35    H     0.48011   0.69107   0.21888   0.00000  Uiso   1.00
H36    H     0.94628   0.88879   0.44961   0.00000  Uiso   1.00
H37    H     0.69719   0.80992   0.58735   0.00000  Uiso   1.00
O38    O     0.57045   0.73306   0.12412   0.00000  Uiso   1.00
O39    O     0.87009   0.99246   0.42683   0.00000  Uiso   1.00
O40    O     0.85527   0.88899   0.60755   0.00000  Uiso   1.00
N41    N     0.56161   0.81314   0.18198   0.00000  Uiso   1.00
N42    N     0.06250   0.99799   0.39768   0.00000  Uiso   1.00
N43    N     0.76452   0.92427   0.52647   0.00000  Uiso   1.00
N44    N     0.49979   0.73253   0.21690   0.00000  Uiso   1.00
N45    N     0.00069   0.91739   0.43260   0.00000  Uiso   1.00
N46    N     0.70271   0.84366   0.56139   0.00000  Uiso   1.00
C47    C     0.03163   0.58112   0.36563   0.00000  Uiso   1.00
C48    C     0.02102   0.62996   0.32355   0.00000  Uiso   1.00
C49    C     0.97769   0.62613   0.26872   0.00000  Uiso   1.00
C50    C     0.97523   0.67566   0.23694   0.00000  Uiso   1.00
C51    C     0.95281   0.74366   0.16820   0.00000  Uiso   1.00
C52    C     0.15859   0.57902   0.38299   0.00000  Uiso   1.00
C53    C     0.23091   0.53234   0.37814   0.00000  Uiso   1.00
C54    C     0.34425   0.53899   0.39641   0.00000  Uiso   1.00
C55    C     0.53539   0.52789   0.41999   0.00000  Uiso   1.00
C56    C     0.96510   0.59934   0.41848   0.00000  Uiso   1.00
C57    C     0.87475   0.56975   0.44348   0.00000  Uiso   1.00
C58    C     0.82521   0.59350   0.49163   0.00000  Uiso   1.00
C59    C     0.71592   0.61395   0.57032   0.00000  Uiso   1.00
C60    C     0.10432   0.67591   0.40669   0.00000  Uiso   1.00
C61    C     0.06051   0.68145   0.34586   0.00000  Uiso   1.00
C62    C     0.05812   0.73100   0.31415   0.00000  Uiso   1.00
C63    C     0.01478   0.72724   0.25928   0.00000  Uiso   1.00
C64    C     0.19808   0.63050   0.40529   0.00000  Uiso   1.00
C65    C     0.31134   0.63722   0.42358   0.00000  Uiso   1.00
C66    C     0.38381   0.59057   0.41875   0.00000  Uiso   1.00
C67    C     0.00458   0.65083   0.44078   0.00000  Uiso   1.00
C68    C     0.95518   0.67463   0.48891   0.00000  Uiso   1.00
C69    C     0.86477   0.64508   0.51398   0.00000  Uiso   1.00
H70    H     0.00089   0.54103   0.34826   0.00000  Uiso   1.00
H71    H     0.94715   0.58627   0.25147   0.00000  Uiso   1.00
H72    H     0.20032   0.49250   0.36088   0.00000  Uiso   1.00
H73    H     0.84422   0.52991   0.42621   0.00000  Uiso   1.00
H74    H     0.90501   0.65913   0.15399   0.00000  Uiso   1.00
H75    H     0.43884   0.46141   0.38471   0.00000  Uiso   1.00
H76    H     0.68793   0.54028   0.52246   0.00000  Uiso   1.00
H77    H     0.13507   0.71600   0.42406   0.00000  Uiso   1.00
H78    H     0.08868   0.77084   0.33142   0.00000  Uiso   1.00
H79    H     0.34186   0.67707   0.44084   0.00000  Uiso   1.00
H80    H     0.98576   0.71447   0.50616   0.00000  Uiso   1.00
H81    H     0.01989   0.80893   0.21888   0.00000  Uiso   1.00
H82    H     0.55372   0.61121   0.44961   0.00000  Uiso   1.00
H83    H     0.80281   0.69008   0.58735   0.00000  Uiso   1.00
O84    O     0.92955   0.76694   0.12412   0.00000  Uiso   1.00
O85    O     0.62991   0.50754   0.42683   0.00000  Uiso   1.00
O86    O     0.64473   0.61101   0.60755   0.00000  Uiso   1.00
N87    N     0.93839   0.68686   0.18198   0.00000  Uiso   1.00
N88    N     0.43750   0.50201   0.39768   0.00000  Uiso   1.00
N89    N     0.73548   0.57573   0.52647   0.00000  Uiso   1.00
N90    N     0.00021   0.76747   0.21690   0.00000  Uiso   1.00
N91    N     0.49931   0.58261   0.43260   0.00000  Uiso   1.00
N92    N     0.79729   0.65634   0.56139   0.00000  Uiso   1.00
C93    C     0.53163   0.41888   0.13437   0.00000  Uiso   1.00
C94    C     0.52102   0.37004   0.17645   0.00000  Uiso   1.00
C95    C     0.47769   0.37387   0.23128   0.00000  Uiso   1.00
C96    C     0.47523   0.32434   0.26306   0.00000  Uiso   1.00
C97    C     0.45281   0.25634   0.33180   0.00000  Uiso   1.00
C98    C     0.65859   0.42098   0.11701   0.00000  Uiso   1.00
C99    C     0.73091   0.46766   0.12186   0.00000  Uiso   1.00
C100   C     0.84425   0.46101   0.10359   0.00000  Uiso   1.00
C101   C     0.03539   0.47211   0.08001   0.00000  Uiso   1.00
C102   C     0.46510   0.40066   0.08152   0.00000  Uiso   1.00
C103   C     0.37475   0.43025   0.05652   0.00000  Uiso   1.00
C104   C     0.32521   0.40650   0.00837   0.00000  Uiso   1.00
C105   C     0.21592   0.38605   0.92968   0.00000  Uiso   1.00
C106   C     0.60432   0.32409   0.09331   0.00000  Uiso   1.00
C107   C     0.56051   0.31855   0.15414   0.00000  Uiso   1.00
C108   C     0.55812   0.26900   0.18585   0.00000  Uiso   1.00
C109   C     0.51478   0.27276   0.24072   0.00000  Uiso   1.00
C110   C     0.69808   0.36950   0.09471   0.00000  Uiso   1.00
C111   C     0.81134   0.36278   0.07642   0.00000  Uiso   1.00
C112   C     0.88381   0.40943   0.08125   0.00000  Uiso   1.00
C113   C     0.50458   0.34917   0.05922   0.00000  Uiso   1.00
C114   C     0.45518   0.32537   0.01109   0.00000  Uiso   1.00
C115   C     0.36477   0.35492   0.98602   0.00000  Uiso   1.00
H116   H     0.50089   0.45897   0.15174   0.00000  Uiso   1.00
H117   H     0.44715   0.41373   0.24853   0.00000  Uiso   1.00
H118   H     0.70032   0.50750   0.13912   0.00000  Uiso   1.00
H119   H     0.34422   0.47009   0.07379   0.00000  Uiso   1.00
H120   H     0.40501   0.34087   0.34601   0.00000  Uiso   1.00
H121   H     0.93884   0.53859   0.11529   0.00000  Uiso   1.00
H122   H     0.18793   0.45972   0.97754   0.00000  Uiso   1.00
H123   H     0.63507   0.28400   0.07594   0.00000  Uiso   1.00
H124   H     0.58868   0.22916   0.16858   0.00000  Uiso   1.00
H125   H     0.84186   0.32293   0.05916   0.00000  Uiso   1.00
H126   H     0.48576   0.28553   0.99384   0.00000  Uiso   1.00
H127   H     0.51989   0.19107   0.28112   0.00000  Uiso   1.00
H128   H     0.05372   0.38879   0.05039   0.00000  Uiso   1.00
H129   H     0.30281   0.30992   0.91265   0.00000  Uiso   1.00
O130   O     0.42955   0.23306   0.37588   0.00000  Uiso   1.00
O131   O     0.12991   0.49246   0.07317   0.00000  Uiso   1.00
O132   O     0.14473   0.38899   0.89245   0.00000  Uiso   1.00
N133   N     0.43839   0.31314   0.31802   0.00000  Uiso   1.00
N134   N     0.93750   0.49799   0.10232   0.00000  Uiso   1.00
N135   N     0.23548   0.42427   0.97353   0.00000  Uiso   1.00
N136   N     0.50021   0.23253   0.28310   0.00000  Uiso   1.00
N137   N     0.99931   0.41739   0.06740   0.00000  Uiso   1.00
N138   N     0.29729   0.34366   0.93861   0.00000  Uiso   1.00
C139   C     0.96837   0.08112   0.13437   0.00000  Uiso   1.00
C140   C     0.97898   0.12996   0.17645   0.00000  Uiso   1.00
C141   C     0.02231   0.12613   0.23128   0.00000  Uiso   1.00
C142   C     0.02477   0.17566   0.26306   0.00000  Uiso   1.00
C143   C     0.04719   0.24366   0.33180   0.00000  Uiso   1.00
C144   C     0.84141   0.07902   0.11701   0.00000  Uiso   1.00
C145   C     0.76909   0.03234   0.12186   0.00000  Uiso   1.00
C146   C     0.65575   0.03899   0.10359   0.00000  Uiso   1.00
C147   C     0.46461   0.02789   0.08001   0.00000  Uiso   1.00
C148   C     0.03490   0.09934   0.08152   0.00000  Uiso   1.00
C149   C     0.12525   0.06975   0.05652   0.00000  Uiso   1.00
C150   C     0.17479   0.09350   0.00837   0.00000  Uiso   1.00
C151   C     0.28408   0.11395   0.92968   0.00000  Uiso   1.00
C152   C     0.89568   0.17591   0.09331   0.00000  Uiso   1.00
C153   C     0.93949   0.18145   0.15414   0.00000  Uiso   1.00
C154   C     0.94188   0.23100   0.18585   0.00000  Uiso   1.00
C155   C     0.98522   0.22724   0.24072   0.00000  Uiso   1.00
C156   C     0.80192   0.13050   0.09471   0.00000  Uiso   1.00
C157   C     0.68866   0.13722   0.07642   0.00000  Uiso   1.00
C158   C     0.61619   0.09057   0.08125   0.00000  Uiso   1.00
C159   C     0.99542   0.15083   0.05922   0.00000  Uiso   1.00
C160   C     0.04482   0.17463   0.01109   0.00000  Uiso   1.00
C161   C     0.13523   0.14508   0.98602   0.00000  Uiso   1.00
H162   H     0.99911   0.04103   0.15174   0.00000  Uiso   1.00
H163   H     0.05285   0.08627   0.24853   0.00000  Uiso   1.00
H164   H     0.79968   0.99250   0.13912   0.00000  Uiso   1.00
H165   H     0.15578   0.02991   0.07379   0.00000  Uiso   1.00
H166   H     0.09499   0.15913   0.34601   0.00000  Uiso   1.00
H167   H     0.56116   0.96141   0.11529   0.00000  Uiso   1.00
H168   H     0.31207   0.04028   0.97754   0.00000  Uiso   1.00
H169   H     0.86493   0.21600   0.07594   0.00000  Uiso   1.00
H170   H     0.91132   0.27084   0.16858   0.00000  Uiso   1.00
H171   H     0.65814   0.17707   0.05916   0.00000  Uiso   1.00
H172   H     0.01424   0.21447   0.99384   0.00000  Uiso   1.00
H173   H     0.98011   0.30893   0.28112   0.00000  Uiso   1.00
H174   H     0.44628   0.11121   0.05039   0.00000  Uiso   1.00
H175   H     0.19719   0.19008   0.91265   0.00000  Uiso   1.00
O176   O     0.07045   0.26694   0.37588   0.00000  Uiso   1.00
O177   O     0.37009   0.00754   0.07317   0.00000  Uiso   1.00
O178   O     0.35527   0.11101   0.89245   0.00000  Uiso   1.00
N179   N     0.06161   0.18686   0.31802   0.00000  Uiso   1.00
N180   N     0.56250   0.00201   0.10232   0.00000  Uiso   1.00
N181   N     0.26452   0.07573   0.97353   0.00000  Uiso   1.00
N182   N     0.99979   0.26747   0.28310   0.00000  Uiso   1.00
N183   N     0.50069   0.08261   0.06740   0.00000  Uiso   1.00
N184   N     0.20271   0.15634   0.93861   0.00000  Uiso   1.00
C185   C     0.53163   0.08112   0.63437   0.00000  Uiso   1.00
C186   C     0.52102   0.12996   0.67645   0.00000  Uiso   1.00
C187   C     0.47769   0.12613   0.73128   0.00000  Uiso   1.00
C188   C     0.47523   0.17566   0.76306   0.00000  Uiso   1.00
C189   C     0.45281   0.24366   0.83180   0.00000  Uiso   1.00
C190   C     0.65859   0.07902   0.61701   0.00000  Uiso   1.00
C191   C     0.73091   0.03234   0.62186   0.00000  Uiso   1.00
C192   C     0.84425   0.03899   0.60359   0.00000  Uiso   1.00
C193   C     0.03539   0.02789   0.58001   0.00000  Uiso   1.00
C194   C     0.46510   0.09934   0.58152   0.00000  Uiso   1.00
C195   C     0.37475   0.06975   0.55652   0.00000  Uiso   1.00
C196   C     0.32521   0.09350   0.50837   0.00000  Uiso   1.00
C197   C     0.21592   0.11395   0.42968   0.00000  Uiso   1.00
C198   C     0.60432   0.17591   0.59331   0.00000  Uiso   1.00
C199   C     0.56051   0.18145   0.65414   0.00000  Uiso   1.00
C200   C     0.55812   0.23100   0.68585   0.00000  Uiso   1.00
C201   C     0.51478   0.22724   0.74072   0.00000  Uiso   1.00
C202   C     0.69808   0.13050   0.59471   0.00000  Uiso   1.00
C203   C     0.81134   0.13722   0.57642   0.00000  Uiso   1.00
C204   C     0.88381   0.09057   0.58125   0.00000  Uiso   1.00
C205   C     0.50458   0.15083   0.55922   0.00000  Uiso   1.00
C206   C     0.45518   0.17463   0.51109   0.00000  Uiso   1.00
C207   C     0.36477   0.14508   0.48602   0.00000  Uiso   1.00
H208   H     0.50089   0.04103   0.65174   0.00000  Uiso   1.00
H209   H     0.44715   0.08627   0.74853   0.00000  Uiso   1.00
H210   H     0.70032   0.99250   0.63912   0.00000  Uiso   1.00
H211   H     0.34422   0.02991   0.57379   0.00000  Uiso   1.00
H212   H     0.40501   0.15913   0.84601   0.00000  Uiso   1.00
H213   H     0.93884   0.96141   0.61529   0.00000  Uiso   1.00
H214   H     0.18793   0.04028   0.47754   0.00000  Uiso   1.00
H215   H     0.63507   0.21600   0.57594   0.00000  Uiso   1.00
H216   H     0.58868   0.27084   0.66858   0.00000  Uiso   1.00
H217   H     0.84186   0.17707   0.55916   0.00000  Uiso   1.00
H218   H     0.48576   0.21447   0.49384   0.00000  Uiso   1.00
H219   H     0.51989   0.30893   0.78112   0.00000  Uiso   1.00
H220   H     0.05372   0.11121   0.55039   0.00000  Uiso   1.00
H221   H     0.30281   0.19008   0.41265   0.00000  Uiso   1.00
O222   O     0.42955   0.26694   0.87588   0.00000  Uiso   1.00
O223   O     0.12991   0.00754   0.57317   0.00000  Uiso   1.00
O224   O     0.14473   0.11101   0.39245   0.00000  Uiso   1.00
N225   N     0.43839   0.18686   0.81802   0.00000  Uiso   1.00
N226   N     0.93750   0.00201   0.60232   0.00000  Uiso   1.00
N227   N     0.23548   0.07573   0.47353   0.00000  Uiso   1.00
N228   N     0.50021   0.26747   0.78310   0.00000  Uiso   1.00
N229   N     0.99931   0.08261   0.56740   0.00000  Uiso   1.00
N230   N     0.29729   0.15634   0.43861   0.00000  Uiso   1.00
C231   C     0.96837   0.41888   0.63437   0.00000  Uiso   1.00
C232   C     0.97898   0.37004   0.67645   0.00000  Uiso   1.00
C233   C     0.02231   0.37387   0.73128   0.00000  Uiso   1.00
C234   C     0.02477   0.32434   0.76306   0.00000  Uiso   1.00
C235   C     0.04719   0.25634   0.83180   0.00000  Uiso   1.00
C236   C     0.84141   0.42098   0.61701   0.00000  Uiso   1.00
C237   C     0.76909   0.46766   0.62186   0.00000  Uiso   1.00
C238   C     0.65575   0.46101   0.60359   0.00000  Uiso   1.00
C239   C     0.46461   0.47211   0.58001   0.00000  Uiso   1.00
C240   C     0.03490   0.40066   0.58152   0.00000  Uiso   1.00
C241   C     0.12525   0.43025   0.55652   0.00000  Uiso   1.00
C242   C     0.17479   0.40650   0.50837   0.00000  Uiso   1.00
C243   C     0.28408   0.38605   0.42968   0.00000  Uiso   1.00
C244   C     0.89568   0.32409   0.59331   0.00000  Uiso   1.00
C245   C     0.93949   0.31855   0.65414   0.00000  Uiso   1.00
C246   C     0.94188   0.26900   0.68585   0.00000  Uiso   1.00
C247   C     0.98522   0.27276   0.74072   0.00000  Uiso   1.00
C248   C     0.80192   0.36950   0.59471   0.00000  Uiso   1.00
C249   C     0.68866   0.36278   0.57642   0.00000  Uiso   1.00
C250   C     0.61619   0.40943   0.58125   0.00000  Uiso   1.00
C251   C     0.99542   0.34917   0.55922   0.00000  Uiso   1.00
C252   C     0.04482   0.32537   0.51109   0.00000  Uiso   1.00
C253   C     0.13523   0.35492   0.48602   0.00000  Uiso   1.00
H254   H     0.99911   0.45897   0.65174   0.00000  Uiso   1.00
H255   H     0.05285   0.41373   0.74853   0.00000  Uiso   1.00
H256   H     0.79968   0.50750   0.63912   0.00000  Uiso   1.00
H257   H     0.15578   0.47009   0.57379   0.00000  Uiso   1.00
H258   H     0.09499   0.34087   0.84601   0.00000  Uiso   1.00
H259   H     0.56116   0.53859   0.61529   0.00000  Uiso   1.00
H260   H     0.31207   0.45972   0.47754   0.00000  Uiso   1.00
H261   H     0.86493   0.28400   0.57594   0.00000  Uiso   1.00
H262   H     0.91132   0.22916   0.66858   0.00000  Uiso   1.00
H263   H     0.65814   0.32293   0.55916   0.00000  Uiso   1.00
H264   H     0.01424   0.28553   0.49384   0.00000  Uiso   1.00
H265   H     0.98011   0.19107   0.78112   0.00000  Uiso   1.00
H266   H     0.44628   0.38879   0.55039   0.00000  Uiso   1.00
H267   H     0.19719   0.30992   0.41265   0.00000  Uiso   1.00
O268   O     0.07045   0.23306   0.87588   0.00000  Uiso   1.00
O269   O     0.37009   0.49246   0.57317   0.00000  Uiso   1.00
O270   O     0.35527   0.38899   0.39245   0.00000  Uiso   1.00
N271   N     0.06161   0.31314   0.81802   0.00000  Uiso   1.00
N272   N     0.56250   0.49799   0.60232   0.00000  Uiso   1.00
N273   N     0.26452   0.42427   0.47353   0.00000  Uiso   1.00
N274   N     0.99979   0.23253   0.78310   0.00000  Uiso   1.00
N275   N     0.50069   0.41739   0.56740   0.00000  Uiso   1.00
N276   N     0.20271   0.34366   0.43861   0.00000  Uiso   1.00
C277   C     0.46837   0.58112   0.86563   0.00000  Uiso   1.00
C278   C     0.47898   0.62996   0.82355   0.00000  Uiso   1.00
C279   C     0.52231   0.62613   0.76872   0.00000  Uiso   1.00
C280   C     0.52477   0.67566   0.73694   0.00000  Uiso   1.00
C281   C     0.54719   0.74366   0.66820   0.00000  Uiso   1.00
C282   C     0.34141   0.57902   0.88299   0.00000  Uiso   1.00
C283   C     0.26909   0.53234   0.87814   0.00000  Uiso   1.00
C284   C     0.15575   0.53899   0.89641   0.00000  Uiso   1.00
C285   C     0.96461   0.52789   0.91999   0.00000  Uiso   1.00
C286   C     0.53490   0.59934   0.91848   0.00000  Uiso   1.00
C287   C     0.62525   0.56975   0.94348   0.00000  Uiso   1.00
C288   C     0.67479   0.59350   0.99163   0.00000  Uiso   1.00
C289   C     0.78408   0.61395   0.07032   0.00000  Uiso   1.00
C290   C     0.39568   0.67591   0.90669   0.00000  Uiso   1.00
C291   C     0.43949   0.68145   0.84586   0.00000  Uiso   1.00
C292   C     0.44188   0.73100   0.81415   0.00000  Uiso   1.00
C293   C     0.48522   0.72724   0.75928   0.00000  Uiso   1.00
C294   C     0.30192   0.63050   0.90529   0.00000  Uiso   1.00
C295   C     0.18866   0.63722   0.92358   0.00000  Uiso   1.00
C296   C     0.11619   0.59057   0.91875   0.00000  Uiso   1.00
C297   C     0.49542   0.65083   0.94078   0.00000  Uiso   1.00
C298   C     0.54482   0.67463   0.98891   0.00000  Uiso   1.00
C299   C     0.63523   0.64508   0.01398   0.00000  Uiso   1.00
H300   H     0.49911   0.54103   0.84826   0.00000  Uiso   1.00
H301   H     0.55285   0.58627   0.75147   0.00000  Uiso   1.00
H302   H     0.29968   0.49250   0.86088   0.00000  Uiso   1.00
H303   H     0.65578   0.52991   0.92621   0.00000  Uiso   1.00
H304   H     0.59499   0.65913   0.65399   0.00000  Uiso   1.00
H305   H     0.06116   0.46141   0.88471   0.00000  Uiso   1.00
H306   H     0.81207   0.54028   0.02246   0.00000  Uiso   1.00
H307   H     0.36493   0.71600   0.92406   0.00000  Uiso   1.00
H308   H     0.41132   0.77084   0.83142   0.00000  Uiso   1.00
H309   H     0.15814   0.67707   0.94084   0.00000  Uiso   1.00
H310   H     0.51424   0.71447   0.00616   0.00000  Uiso   1.00
H311   H     0.48011   0.80893   0.71888   0.00000  Uiso   1.00
H312   H     0.94628   0.61121   0.94961   0.00000  Uiso   1.00
H313   H     0.69719   0.69008   0.08735   0.00000  Uiso   1.00
O314   O     0.57045   0.76694   0.62412   0.00000  Uiso   1.00
O315   O     0.87009   0.50754   0.92683   0.00000  Uiso   1.00
O316   O     0.85527   0.61101   0.10755   0.00000  Uiso   1.00
N317   N     0.56161   0.68686   0.68198   0.00000  Uiso   1.00
N318   N     0.06250   0.50201   0.89768   0.00000  Uiso   1.00
N319   N     0.76452   0.57573   0.02647   0.00000  Uiso   1.00
N320   N     0.49979   0.76747   0.71690   0.00000  Uiso   1.00
N321   N     0.00069   0.58261   0.93260   0.00000  Uiso   1.00
N322   N     0.70271   0.65634   0.06139   0.00000  Uiso   1.00
C323   C     0.03163   0.91888   0.86563   0.00000  Uiso   1.00
C324   C     0.02102   0.87004   0.82355   0.00000  Uiso   1.00
C325   C     0.97769   0.87387   0.76872   0.00000  Uiso   1.00
C326   C     0.97523   0.82434   0.73694   0.00000  Uiso   1.00
C327   C     0.95281   0.75634   0.66820   0.00000  Uiso   1.00
C328   C     0.15859   0.92098   0.88299   0.00000  Uiso   1.00
C329   C     0.23091   0.96766   0.87814   0.00000  Uiso   1.00
C330   C     0.34425   0.96101   0.89641   0.00000  Uiso   1.00
C331   C     0.53539   0.97211   0.91999   0.00000  Uiso   1.00
C332   C     0.96510   0.90066   0.91848   0.00000  Uiso   1.00
C333   C     0.87475   0.93025   0.94348   0.00000  Uiso   1.00
C334   C     0.82521   0.90650   0.99163   0.00000  Uiso   1.00
C335   C     0.71592   0.88605   0.07032   0.00000  Uiso   1.00
C336   C     0.10432   0.82409   0.90669   0.00000  Uiso   1.00
C337   C     0.06051   0.81855   0.84586   0.00000  Uiso   1.00
C338   C     0.05812   0.76900   0.81415   0.00000  Uiso   1.00
C339   C     0.01478   0.77276   0.75928   0.00000  Uiso   1.00
C340   C     0.19808   0.86950   0.90529   0.00000  Uiso   1.00
C341   C     0.31134   0.86278   0.92358   0.00000  Uiso   1.00
C342   C     0.38381   0.90943   0.91875   0.00000  Uiso   1.00
C343   C     0.00458   0.84917   0.94078   0.00000  Uiso   1.00
C344   C     0.95518   0.82537   0.98891   0.00000  Uiso   1.00
C345   C     0.86477   0.85492   0.01398   0.00000  Uiso   1.00
H346   H     0.00089   0.95897   0.84826   0.00000  Uiso   1.00
H347   H     0.94715   0.91373   0.75147   0.00000  Uiso   1.00
H348   H     0.20032   0.00750   0.86088   0.00000  Uiso   1.00
H349   H     0.84422   0.97009   0.92621   0.00000  Uiso   1.00
H350   H     0.90501   0.84087   0.65399   0.00000  Uiso   1.00
H351   H     0.43884   0.03859   0.88471   0.00000  Uiso   1.00
H352   H     0.68793   0.95972   0.02246   0.00000  Uiso   1.00
H353   H     0.13507   0.78400   0.92406   0.00000  Uiso   1.00
H354   H     0.08868   0.72916   0.83142   0.00000  Uiso   1.00
H355   H     0.34186   0.82293   0.94084   0.00000  Uiso   1.00
H356   H     0.98576   0.78553   0.00616   0.00000  Uiso   1.00
H357   H     0.01989   0.69107   0.71888   0.00000  Uiso   1.00
H358   H     0.55372   0.88879   0.94961   0.00000  Uiso   1.00
H359   H     0.80281   0.80992   0.08735   0.00000  Uiso   1.00
O360   O     0.92955   0.73306   0.62412   0.00000  Uiso   1.00
O361   O     0.62991   0.99246   0.92683   0.00000  Uiso   1.00
O362   O     0.64473   0.88899   0.10755   0.00000  Uiso   1.00
N363   N     0.93839   0.81314   0.68198   0.00000  Uiso   1.00
N364   N     0.43750   0.99799   0.89768   0.00000  Uiso   1.00
N365   N     0.73548   0.92427   0.02647   0.00000  Uiso   1.00
N366   N     0.00021   0.73253   0.71690   0.00000  Uiso   1.00
N367   N     0.49931   0.91739   0.93260   0.00000  Uiso   1.00
N368   N     0.79729   0.84366   0.06139   0.00000  Uiso   1.00
