data_job_07041
_audit_creation_date              2018-12-19
_audit_creation_method            'Materials Studio'
_symmetry_space_group_name_H-M    'P1'
_symmetry_Int_Tables_number       1
_symmetry_cell_setting            triclinic
loop_
_symmetry_equiv_pos_as_xyz
  x,y,z
_cell_length_a                    22.3502
_cell_length_b                    22.5662
_cell_length_c                    23.3941
_cell_angle_alpha                 95.0600
_cell_angle_beta                  110.4059
_cell_angle_gamma                 117.0210
loop_
_atom_site_label
_atom_site_type_symbol
_atom_site_fract_x
_atom_site_fract_y
_atom_site_fract_z
_atom_site_U_iso_or_equiv
_atom_site_adp_type
_atom_site_occupancy
C1     C     0.26250   0.31096   0.49881   0.00000  Uiso   1.00
C2     C     0.22012   0.34871   0.47995   0.00000  Uiso   1.00
C3     C     0.16120   0.32945   0.42117   0.00000  Uiso   1.00
C4     C     0.12989   0.37079   0.41334   0.00000  Uiso   1.00
C5     C     0.06005   0.42052   0.37656   0.00000  Uiso   1.00
C6     C     0.34455   0.36511   0.51994   0.00000  Uiso   1.00
C7     C     0.39025   0.35964   0.49478   0.00000  Uiso   1.00
C8     C     0.46369   0.41480   0.52062   0.00000  Uiso   1.00
C9     C     0.58703   0.48997   0.54597   0.00000  Uiso   1.00
C10    C     0.25654   0.29286   0.55864   0.00000  Uiso   1.00
C11    C     0.22826   0.22663   0.56602   0.00000  Uiso   1.00
C12    C     0.22762   0.22095   0.62445   0.00000  Uiso   1.00
C13    C     0.21431   0.18394   0.70986   0.00000  Uiso   1.00
C14    C     0.31167   0.41863   0.58944   0.00000  Uiso   1.00
C15    C     0.24682   0.40719   0.52918   0.00000  Uiso   1.00
C16    C     0.21560   0.44857   0.52144   0.00000  Uiso   1.00
C17    C     0.15664   0.42938   0.46266   0.00000  Uiso   1.00
C18    C     0.37125   0.42360   0.56917   0.00000  Uiso   1.00
C19    C     0.44464   0.47877   0.59506   0.00000  Uiso   1.00
C20    C     0.49044   0.47338   0.56994   0.00000  Uiso   1.00
C21    C     0.28324   0.35134   0.60787   0.00000  Uiso   1.00
C22    C     0.28265   0.34576   0.66630   0.00000  Uiso   1.00
C23    C     0.25437   0.27954   0.67377   0.00000  Uiso   1.00
H24    H     0.24172   0.26543   0.46048   0.00000  Uiso   1.00
H25    H     0.14056   0.28419   0.38308   0.00000  Uiso   1.00
H26    H     0.36957   0.31437   0.45669   0.00000  Uiso   1.00
H27    H     0.20760   0.18139   0.52791   0.00000  Uiso   1.00
H28    H     0.04020   0.33079   0.31896   0.00000  Uiso   1.00
H29    H     0.52309   0.39443   0.47419   0.00000  Uiso   1.00
H30    H     0.18155   0.11400   0.62438   0.00000  Uiso   1.00
H31    H     0.33246   0.46417   0.62777   0.00000  Uiso   1.00
H32    H     0.23627   0.49383   0.55955   0.00000  Uiso   1.00
H33    H     0.46529   0.52402   0.63316   0.00000  Uiso   1.00
H34    H     0.30332   0.39103   0.70438   0.00000  Uiso   1.00
H35    H     0.11789   0.50094   0.46220   0.00000  Uiso   1.00
H36    H     0.60078   0.56458   0.61743   0.00000  Uiso   1.00
H37    H     0.25923   0.28415   0.76761   0.00000  Uiso   1.00
O38    O     0.01415   0.43180   0.34267   0.00000  Uiso   1.00
O39    O     0.64769   0.51529   0.54634   0.00000  Uiso   1.00
O40    O     0.19958   0.14737   0.74338   0.00000  Uiso   1.00
N41    N     0.07167   0.36676   0.36204   0.00000  Uiso   1.00
N42    N     0.52315   0.42626   0.50716   0.00000  Uiso   1.00
N43    N     0.20385   0.16408   0.64758   0.00000  Uiso   1.00
N44    N     0.11347   0.45831   0.43911   0.00000  Uiso   1.00
N45    N     0.56495   0.51782   0.58423   0.00000  Uiso   1.00
N46    N     0.24565   0.25564   0.72465   0.00000  Uiso   1.00
C47    C     0.75535   0.23101   0.44562   0.00000  Uiso   1.00
C48    C     0.80190   0.22958   0.41150   0.00000  Uiso   1.00
C49    C     0.79392   0.24143   0.35281   0.00000  Uiso   1.00
C50    C     0.84193   0.23777   0.32971   0.00000  Uiso   1.00
C51    C     0.90597   0.23779   0.27149   0.00000  Uiso   1.00
C52    C     0.72145   0.16034   0.45762   0.00000  Uiso   1.00
C53    C     0.64583   0.11399   0.43771   0.00000  Uiso   1.00
C54    C     0.62613   0.05205   0.45344   0.00000  Uiso   1.00
C55    C     0.56528   0.94460   0.46686   0.00000  Uiso   1.00
C56    C     0.81084   0.28419   0.51113   0.00000  Uiso   1.00
C57    C     0.81038   0.34197   0.53623   0.00000  Uiso   1.00
C58    C     0.86593   0.38429   0.59702   0.00000  Uiso   1.00
C59    C     0.94388   0.46915   0.69352   0.00000  Uiso   1.00
C60    C     0.85480   0.20342   0.50896   0.00000  Uiso   1.00
C61    C     0.85591   0.21459   0.44591   0.00000  Uiso   1.00
C62    C     0.90396   0.21091   0.42289   0.00000  Uiso   1.00
C63    C     0.89605   0.22276   0.36417   0.00000  Uiso   1.00
C64    C     0.77547   0.14536   0.49202   0.00000  Uiso   1.00
C65    C     0.75587   0.08347   0.50779   0.00000  Uiso   1.00
C66    C     0.68025   0.03703   0.48791   0.00000  Uiso   1.00
C67    C     0.86487   0.26921   0.54554   0.00000  Uiso   1.00
C68    C     0.92042   0.31145   0.60630   0.00000  Uiso   1.00
C69    C     0.92005   0.36928   0.63149   0.00000  Uiso   1.00
H70    H     0.71329   0.24267   0.41883   0.00000  Uiso   1.00
H71    H     0.75210   0.25302   0.32620   0.00000  Uiso   1.00
H72    H     0.60404   0.12560   0.41109   0.00000  Uiso   1.00
H73    H     0.76857   0.35355   0.50959   0.00000  Uiso   1.00
H74    H     0.81894   0.25786   0.23866   0.00000  Uiso   1.00
H75    H     0.50675   0.98920   0.41768   0.00000  Uiso   1.00
H76    H     0.85369   0.46987   0.62539   0.00000  Uiso   1.00
H77    H     0.89686   0.19176   0.53574   0.00000  Uiso   1.00
H78    H     0.94575   0.19931   0.44952   0.00000  Uiso   1.00
H79    H     0.79769   0.07189   0.53442   0.00000  Uiso   1.00
H80    H     0.96222   0.29984   0.63291   0.00000  Uiso   1.00
H81    H     0.97611   0.21427   0.33875   0.00000  Uiso   1.00
H82    H     0.66393   0.94561   0.51778   0.00000  Uiso   1.00
H83    H     0.01086   0.42628   0.72548   0.00000  Uiso   1.00
O84    O     0.92636   0.24193   0.22986   0.00000  Uiso   1.00
O85    O     0.51679   0.88947   0.46475   0.00000  Uiso   1.00
O86    O     0.97195   0.52010   0.73725   0.00000  Uiso   1.00
N87    N     0.84923   0.24658   0.27405   0.00000  Uiso   1.00
N88    N     0.55735   0.99539   0.44142   0.00000  Uiso   1.00
N89    N     0.88169   0.44477   0.63561   0.00000  Uiso   1.00
N90    N     0.93380   0.22312   0.32791   0.00000  Uiso   1.00
N91    N     0.64193   0.97194   0.49528   0.00000  Uiso   1.00
N92    N     0.96627   0.42131   0.68947   0.00000  Uiso   1.00
C93    C     0.29651   0.82754   0.55185   0.00000  Uiso   1.00
C94    C     0.24221   0.75853   0.49894   0.00000  Uiso   1.00
C95    C     0.24705   0.74080   0.44306   0.00000  Uiso   1.00
C96    C     0.19187   0.67515   0.40065   0.00000  Uiso   1.00
C97    C     0.11635   0.57504   0.31649   0.00000  Uiso   1.00
C98    C     0.24941   0.85663   0.56017   0.00000  Uiso   1.00
C99    C     0.26031   0.92140   0.55579   0.00000  Uiso   1.00
C100   C     0.21119   0.93833   0.56493   0.00000  Uiso   1.00
C101   C     0.14687   0.99055   0.57588   0.00000  Uiso   1.00
C102   C     0.32483   0.80916   0.61290   0.00000  Uiso   1.00
C103   C     0.39916   0.83403   0.65287   0.00000  Uiso   1.00
C104   C     0.41354   0.81101   0.70641   0.00000  Uiso   1.00
C105   C     0.46634   0.78951   0.79923   0.00000  Uiso   1.00
C106   C     0.18989   0.74246   0.57587   0.00000  Uiso   1.00
C107   C     0.18430   0.71232   0.51199   0.00000  Uiso   1.00
C108   C     0.12909   0.64668   0.46964   0.00000  Uiso   1.00
C109   C     0.13385   0.62886   0.41372   0.00000  Uiso   1.00
C110   C     0.19150   0.81042   0.57322   0.00000  Uiso   1.00
C111   C     0.14235   0.82727   0.58237   0.00000  Uiso   1.00
C112   C     0.15317   0.89204   0.57800   0.00000  Uiso   1.00
C113   C     0.26692   0.76295   0.62595   0.00000  Uiso   1.00
C114   C     0.28119   0.73989   0.67944   0.00000  Uiso   1.00
C115   C     0.35553   0.76471   0.71948   0.00000  Uiso   1.00
H116   H     0.34159   0.86352   0.54169   0.00000  Uiso   1.00
H117   H     0.29188   0.77658   0.43298   0.00000  Uiso   1.00
H118   H     0.30514   0.95715   0.54570   0.00000  Uiso   1.00
H119   H     0.44396   0.86978   0.64275   0.00000  Uiso   1.00
H120   H     0.21120   0.65983   0.31820   0.00000  Uiso   1.00
H121   H     0.23918   0.04057   0.55589   0.00000  Uiso   1.00
H122   H     0.53192   0.85635   0.76056   0.00000  Uiso   1.00
H123   H     0.14480   0.70649   0.58603   0.00000  Uiso   1.00
H124   H     0.08428   0.61093   0.47976   0.00000  Uiso   1.00
H125   H     0.09754   0.79150   0.59247   0.00000  Uiso   1.00
H126   H     0.23637   0.70413   0.68953   0.00000  Uiso   1.00
H127   H     0.04271   0.52538   0.35616   0.00000  Uiso   1.00
H128   H     0.07069   0.90613   0.59386   0.00000  Uiso   1.00
H129   H     0.36342   0.72190   0.79852   0.00000  Uiso   1.00
O130   O     0.09068   0.53259   0.26646   0.00000  Uiso   1.00
O131   O     0.12740   0.03212   0.57831   0.00000  Uiso   1.00
O132   O     0.51146   0.79042   0.84682   0.00000  Uiso   1.00
N133   N     0.17986   0.64129   0.34173   0.00000  Uiso   1.00
N134   N     0.20601   0.99727   0.56394   0.00000  Uiso   1.00
N135   N     0.47970   0.82505   0.75530   0.00000  Uiso   1.00
N136   N     0.08920   0.56895   0.36215   0.00000  Uiso   1.00
N137   N     0.11534   0.92492   0.58437   0.00000  Uiso   1.00
N138   N     0.38903   0.75270   0.77572   0.00000  Uiso   1.00
C139   C     0.44508   0.28899   0.02838   0.00000  Uiso   1.00
C140   C     0.40232   0.21624   0.98190   0.00000  Uiso   1.00
C141   C     0.34888   0.19441   0.91944   0.00000  Uiso   1.00
C142   C     0.31617   0.12580   0.88469   0.00000  Uiso   1.00
C143   C     0.24675   0.01971   0.80843   0.00000  Uiso   1.00
C144   C     0.52771   0.31465   0.05020   0.00000  Uiso   1.00
C145   C     0.57970   0.37557   0.04517   0.00000  Uiso   1.00
C146   C     0.65255   0.38980   0.06793   0.00000  Uiso   1.00
C147   C     0.77781   0.43653   0.09775   0.00000  Uiso   1.00
C148   C     0.43052   0.27917   0.08687   0.00000  Uiso   1.00
C149   C     0.40081   0.31027   0.11267   0.00000  Uiso   1.00
C150   C     0.39185   0.29464   0.16631   0.00000  Uiso   1.00
C151   C     0.36621   0.28628   0.25305   0.00000  Uiso   1.00
C152   C     0.48201   0.20596   0.07775   0.00000  Uiso   1.00
C153   C     0.42238   0.17115   0.00872   0.00000  Uiso   1.00
C154   C     0.38974   0.10255   0.97406   0.00000  Uiso   1.00
C155   C     0.33626   0.08062   0.91155   0.00000  Uiso   1.00
C156   C     0.54777   0.26956   0.07702   0.00000  Uiso   1.00
C157   C     0.62056   0.28371   0.09979   0.00000  Uiso   1.00
C158   C     0.67265   0.34463   0.09479   0.00000  Uiso   1.00
C159   C     0.45058   0.23408   0.11368   0.00000  Uiso   1.00
C160   C     0.44167   0.21841   0.16729   0.00000  Uiso   1.00
C161   C     0.41195   0.24947   0.19317   0.00000  Uiso   1.00
H162   H     0.42946   0.32410   0.00751   0.00000  Uiso   1.00
H163   H     0.33337   0.22932   0.89870   0.00000  Uiso   1.00
H164   H     0.56416   0.41046   0.02443   0.00000  Uiso   1.00
H165   H     0.38529   0.34516   0.09191   0.00000  Uiso   1.00
H166   H     0.23571   0.10437   0.78989   0.00000  Uiso   1.00
H167   H     0.72233   0.48631   0.05500   0.00000  Uiso   1.00
H168   H     0.34516   0.34863   0.19731   0.00000  Uiso   1.00
H169   H     0.49763   0.17085   0.09863   0.00000  Uiso   1.00
H170   H     0.40528   0.06767   0.99482   0.00000  Uiso   1.00
H171   H     0.63607   0.24880   0.12054   0.00000  Uiso   1.00
H172   H     0.45720   0.18351   0.18803   0.00000  Uiso   1.00
H173   H     0.29407   0.97316   0.86790   0.00000  Uiso   1.00
H174   H     0.78070   0.35511   0.13302   0.00000  Uiso   1.00
H175   H     0.40353   0.21742   0.27532   0.00000  Uiso   1.00
O176   O     0.20293   0.97366   0.75896   0.00000  Uiso   1.00
O177   O     0.84136   0.47476   0.10679   0.00000  Uiso   1.00
O178   O     0.34652   0.29412   0.29349   0.00000  Uiso   1.00
N179   N     0.26211   0.08765   0.82250   0.00000  Uiso   1.00
N180   N     0.71707   0.44474   0.07036   0.00000  Uiso   1.00
N181   N     0.36447   0.31603   0.20341   0.00000  Uiso   1.00
N182   N     0.29351   0.01704   0.86448   0.00000  Uiso   1.00
N183   N     0.74848   0.37413   0.11233   0.00000  Uiso   1.00
N184   N     0.39587   0.24543   0.24539   0.00000  Uiso   1.00
C185   C     0.69045   0.86484   0.05189   0.00000  Uiso   1.00
C186   C     0.71148   0.85513   0.99787   0.00000  Uiso   1.00
C187   C     0.66260   0.80893   0.93702   0.00000  Uiso   1.00
C188   C     0.69278   0.80790   0.89443   0.00000  Uiso   1.00
C189   C     0.71383   0.78621   0.80784   0.00000  Uiso   1.00
C190   C     0.71665   0.94185   0.07240   0.00000  Uiso   1.00
C191   C     0.67211   0.96855   0.07423   0.00000  Uiso   1.00
C192   C     0.70665   0.04052   0.09439   0.00000  Uiso   1.00
C193   C     0.73572   0.15346   0.12356   0.00000  Uiso   1.00
C194   C     0.73952   0.85260   0.10772   0.00000  Uiso   1.00
C195   C     0.71422   0.80427   0.13926   0.00000  Uiso   1.00
C196   C     0.76802   0.80110   0.18916   0.00000  Uiso   1.00
C197   C     0.83261   0.77547   0.27317   0.00000  Uiso   1.00
C198   C     0.83100   0.94518   0.08446   0.00000  Uiso   1.00
C199   C     0.78782   0.89877   0.01556   0.00000  Uiso   1.00
C200   C     0.81810   0.89781   0.97305   0.00000  Uiso   1.00
C201   C     0.76926   0.85161   0.91215   0.00000  Uiso   1.00
C202   C     0.79299   0.98549   0.09009   0.00000  Uiso   1.00
C203   C     0.82761   0.05743   0.11026   0.00000  Uiso   1.00
C204   C     0.78313   0.08424   0.11211   0.00000  Uiso   1.00
C205   C     0.81587   0.89623   0.12541   0.00000  Uiso   1.00
C206   C     0.86972   0.89315   0.17528   0.00000  Uiso   1.00
C207   C     0.84450   0.84482   0.20688   0.00000  Uiso   1.00
H208   H     0.63101   0.83087   0.03812   0.00000  Uiso   1.00
H209   H     0.60352   0.77517   0.92335   0.00000  Uiso   1.00
H210   H     0.61303   0.93477   0.06054   0.00000  Uiso   1.00
H211   H     0.65514   0.77051   0.12556   0.00000  Uiso   1.00
H212   H     0.60670   0.73267   0.80389   0.00000  Uiso   1.00
H213   H     0.62676   0.06920   0.09319   0.00000  Uiso   1.00
H214   H     0.71555   0.72283   0.23029   0.00000  Uiso   1.00
H215   H     0.89043   0.97915   0.09823   0.00000  Uiso   1.00
H216   H     0.87717   0.93158   0.98675   0.00000  Uiso   1.00
H217   H     0.88668   0.09118   0.12394   0.00000  Uiso   1.00
H218   H     0.92879   0.92693   0.18896   0.00000  Uiso   1.00
H219   H     0.82880   0.85963   0.85535   0.00000  Uiso   1.00
H220   H     0.84887   0.19615   0.14466   0.00000  Uiso   1.00
H221   H     0.93765   0.84978   0.28175   0.00000  Uiso   1.00
O222   O     0.70434   0.76220   0.75519   0.00000  Uiso   1.00
O223   O     0.73067   0.20370   0.13476   0.00000  Uiso   1.00
O224   O     0.84715   0.74927   0.31462   0.00000  Uiso   1.00
N225   N     0.66079   0.76907   0.83130   0.00000  Uiso   1.00
N226   N     0.67955   0.08370   0.10178   0.00000  Uiso   1.00
N227   N     0.76256   0.75988   0.22996   0.00000  Uiso   1.00
N228   N     0.78031   0.83738   0.85899   0.00000  Uiso   1.00
N229   N     0.79906   0.15201   0.12947   0.00000  Uiso   1.00
N230   N     0.88207   0.82820   0.25765   0.00000  Uiso   1.00
C231   C     0.18253   0.56569   0.99831   0.00000  Uiso   1.00
C232   C     0.13586   0.59804   0.97183   0.00000  Uiso   1.00
C233   C     0.09231   0.58494   0.90774   0.00000  Uiso   1.00
C234   C     0.05382   0.61972   0.89329   0.00000  Uiso   1.00
C235   C     0.98057   0.66289   0.84489   0.00000  Uiso   1.00
C236   C     0.15576   0.53087   0.04464   0.00000  Uiso   1.00
C237   C     0.12895   0.46131   0.04176   0.00000  Uiso   1.00
C238   C     0.10722   0.43955   0.08861   0.00000  Uiso   1.00
C239   C     0.06491   0.37846   0.15326   0.00000  Uiso   1.00
C240   C     0.26219   0.62643   0.03898   0.00000  Uiso   1.00
C241   C     0.32488   0.63721   0.03136   0.00000  Uiso   1.00
C242   C     0.39275   0.69590   0.07346   0.00000  Uiso   1.00
C243   C     0.51570   0.78319   0.12933   0.00000  Uiso   1.00
C244   C     0.19161   0.65073   0.08663   0.00000  Uiso   1.00
C245   C     0.14079   0.64422   0.01981   0.00000  Uiso   1.00
C246   C     0.10236   0.67903   0.00546   0.00000  Uiso   1.00
C247   C     0.05876   0.66599   0.94135   0.00000  Uiso   1.00
C248   C     0.16069   0.57706   0.09261   0.00000  Uiso   1.00
C249   C     0.13900   0.55540   0.13948   0.00000  Uiso   1.00
C250   C     0.11216   0.48582   0.13667   0.00000  Uiso   1.00
C251   C     0.26712   0.67263   0.08696   0.00000  Uiso   1.00
C252   C     0.33492   0.73130   0.12908   0.00000  Uiso   1.00
C253   C     0.39770   0.74217   0.12152   0.00000  Uiso   1.00
H254   H     0.17869   0.52973   0.96096   0.00000  Uiso   1.00
H255   H     0.08850   0.54919   0.87062   0.00000  Uiso   1.00
H256   H     0.12515   0.42558   0.00463   0.00000  Uiso   1.00
H257   H     0.32104   0.60146   0.99423   0.00000  Uiso   1.00
H258   H     0.99067   0.59112   0.79163   0.00000  Uiso   1.00
H259   H     0.06795   0.33049   0.07420   0.00000  Uiso   1.00
H260   H     0.48103   0.70136   0.05227   0.00000  Uiso   1.00
H261   H     0.19545   0.68669   0.12399   0.00000  Uiso   1.00
H262   H     0.10619   0.71477   0.04260   0.00000  Uiso   1.00
H263   H     0.14283   0.59116   0.17660   0.00000  Uiso   1.00
H264   H     0.33872   0.76704   0.16620   0.00000  Uiso   1.00
H265   H     0.00502   0.72551   0.93121   0.00000  Uiso   1.00
H266   H     0.08231   0.46487   0.21378   0.00000  Uiso   1.00
H267   H     0.49538   0.83575   0.19185   0.00000  Uiso   1.00
O268   O     0.93880   0.67393   0.80494   0.00000  Uiso   1.00
O269   O     0.04021   0.33200   0.17566   0.00000  Uiso   1.00
O270   O     0.58215   0.81858   0.14688   0.00000  Uiso   1.00
N271   N     0.00631   0.61890   0.83565   0.00000  Uiso   1.00
N272   N     0.07855   0.37523   0.09983   0.00000  Uiso   1.00
N273   N     0.46475   0.72195   0.07933   0.00000  Uiso   1.00
N274   N     0.01403   0.69122   0.91075   0.00000  Uiso   1.00
N275   N     0.08628   0.44754   0.17493   0.00000  Uiso   1.00
N276   N     0.47247   0.79427   0.15444   0.00000  Uiso   1.00
C277   C     0.91894   0.54152   0.47202   0.00000  Uiso   1.00
C278   C     0.95990   0.50358   0.49600   0.00000  Uiso   1.00
C279   C     0.01806   0.52540   0.55599   0.00000  Uiso   1.00
C280   C     0.04809   0.48337   0.56872   0.00000  Uiso   1.00
C281   C     0.11581   0.43380   0.61292   0.00000  Uiso   1.00
C282   C     0.83643   0.48935   0.45135   0.00000  Uiso   1.00
C283   C     0.79077   0.49922   0.47379   0.00000  Uiso   1.00
C284   C     0.71687   0.44522   0.44893   0.00000  Uiso   1.00
C285   C     0.59288   0.37359   0.42377   0.00000  Uiso   1.00
C286   C     0.92616   0.55390   0.41109   0.00000  Uiso   1.00
C287   C     0.95592   0.61804   0.39968   0.00000  Uiso   1.00
C288   C     0.95754   0.61839   0.34091   0.00000  Uiso   1.00
C289   C     0.97287   0.64698   0.25324   0.00000  Uiso   1.00
C290   C     0.86887   0.42808   0.38795   0.00000  Uiso   1.00
C291   C     0.93270   0.44196   0.45034   0.00000  Uiso   1.00
C292   C     0.96266   0.39989   0.46298   0.00000  Uiso   1.00
C293   C     0.02085   0.42164   0.52298   0.00000  Uiso   1.00
C294   C     0.80924   0.42774   0.40569   0.00000  Uiso   1.00
C295   C     0.73538   0.37371   0.38078   0.00000  Uiso   1.00
C296   C     0.68962   0.38349   0.40318   0.00000  Uiso   1.00
C297   C     0.89896   0.49229   0.36543   0.00000  Uiso   1.00
C298   C     0.90053   0.49253   0.30667   0.00000  Uiso   1.00
C299   C     0.93030   0.55666   0.29516   0.00000  Uiso   1.00
H300   H     0.94011   0.58949   0.50757   0.00000  Uiso   1.00
H301   H     0.03908   0.57308   0.59132   0.00000  Uiso   1.00
H302   H     0.81183   0.54691   0.50913   0.00000  Uiso   1.00
H303   H     0.97696   0.66571   0.43503   0.00000  Uiso   1.00
H304   H     0.13680   0.52770   0.66404   0.00000  Uiso   1.00
H305   H     0.65763   0.47253   0.49072   0.00000  Uiso   1.00
H306   H     0.00583   0.72305   0.33446   0.00000  Uiso   1.00
H307   H     0.84769   0.38011   0.35240   0.00000  Uiso   1.00
H308   H     0.94160   0.35221   0.42763   0.00000  Uiso   1.00
H309   H     0.71435   0.32604   0.34544   0.00000  Uiso   1.00
H310   H     0.87948   0.44484   0.27134   0.00000  Uiso   1.00
H311   H     0.05768   0.34843   0.53119   0.00000  Uiso   1.00
H312   H     0.57851   0.29326   0.35786   0.00000  Uiso   1.00
H313   H     0.92671   0.54378   0.20161   0.00000  Uiso   1.00
O314   O     0.16067   0.42347   0.64992   0.00000  Uiso   1.00
O315   O     0.53201   0.35110   0.42251   0.00000  Uiso   1.00
O316   O     0.98885   0.67977   0.21751   0.00000  Uiso   1.00
N317   N     0.10531   0.48934   0.62245   0.00000  Uiso   1.00
N318   N     0.65731   0.43776   0.46041   0.00000  Uiso   1.00
N319   N     0.98283   0.67197   0.31431   0.00000  Uiso   1.00
N320   N     0.06273   0.39288   0.55096   0.00000  Uiso   1.00
N321   N     0.61474   0.34130   0.38892   0.00000  Uiso   1.00
N322   N     0.94026   0.57551   0.24282   0.00000  Uiso   1.00
C323   C     0.45029   0.60030   0.42978   0.00000  Uiso   1.00
C324   C     0.44836   0.62004   0.49288   0.00000  Uiso   1.00
C325   C     0.50030   0.63069   0.55288   0.00000  Uiso   1.00
C326   C     0.48864   0.64843   0.60470   0.00000  Uiso   1.00
C327   C     0.49501   0.67807   0.70390   0.00000  Uiso   1.00
C328   C     0.44926   0.65618   0.39793   0.00000  Uiso   1.00
C329   C     0.50196   0.69721   0.37809   0.00000  Uiso   1.00
C330   C     0.49105   0.74536   0.34997   0.00000  Uiso   1.00
C331   C     0.49878   0.83107   0.30172   0.00000  Uiso   1.00
C332   C     0.37577   0.53331   0.38849   0.00000  Uiso   1.00
C333   C     0.36667   0.47103   0.36068   0.00000  Uiso   1.00
C334   C     0.29389   0.41574   0.32461   0.00000  Uiso   1.00
C335   C     0.18752   0.31068   0.26168   0.00000  Uiso   1.00
C336   C     0.33723   0.61286   0.41514   0.00000  Uiso   1.00
C337   C     0.38695   0.62686   0.48493   0.00000  Uiso   1.00
C338   C     0.37521   0.64458   0.53668   0.00000  Uiso   1.00
C339   C     0.42712   0.65526   0.59674   0.00000  Uiso   1.00
C340   C     0.38785   0.66300   0.38998   0.00000  Uiso   1.00
C341   C     0.37686   0.71110   0.36189   0.00000  Uiso   1.00
C342   C     0.42953   0.75219   0.34201   0.00000  Uiso   1.00
C343   C     0.31436   0.54013   0.38054   0.00000  Uiso   1.00
C344   C     0.24158   0.48493   0.34449   0.00000  Uiso   1.00
C345   C     0.23236   0.42258   0.31664   0.00000  Uiso   1.00
H346   H     0.49810   0.59499   0.43597   0.00000  Uiso   1.00
H347   H     0.54782   0.62541   0.55901   0.00000  Uiso   1.00
H348   H     0.54947   0.69191   0.38424   0.00000  Uiso   1.00
H349   H     0.41421   0.46577   0.36685   0.00000  Uiso   1.00
H350   H     0.57588   0.66217   0.69192   0.00000  Uiso   1.00
H351   H     0.57934   0.80237   0.32339   0.00000  Uiso   1.00
H352   H     0.29411   0.32551   0.28671   0.00000  Uiso   1.00
H353   H     0.28941   0.61817   0.40894   0.00000  Uiso   1.00
H354   H     0.32768   0.64986   0.53051   0.00000  Uiso   1.00
H355   H     0.32933   0.71636   0.35574   0.00000  Uiso   1.00
H356   H     0.19407   0.49022   0.33834   0.00000  Uiso   1.00
H357   H     0.39720   0.68202   0.66879   0.00000  Uiso   1.00
H358   H     0.40066   0.82221   0.30025   0.00000  Uiso   1.00
H359   H     0.11543   0.34536   0.26357   0.00000  Uiso   1.00
O360   O     0.51549   0.69254   0.76081   0.00000  Uiso   1.00
O361   O     0.52002   0.87647   0.27730   0.00000  Uiso   1.00
O362   O     0.14581   0.25085   0.22918   0.00000  Uiso   1.00
N363   N     0.52857   0.66248   0.66980   0.00000  Uiso   1.00
N364   N     0.53181   0.79356   0.32525   0.00000  Uiso   1.00
N365   N     0.26514   0.34775   0.29094   0.00000  Uiso   1.00
N366   N     0.43242   0.67316   0.65735   0.00000  Uiso   1.00
N367   N     0.43567   0.80424   0.31280   0.00000  Uiso   1.00
N368   N     0.16900   0.35843   0.27849   0.00000  Uiso   1.00
C369   C     0.88355   0.99244   0.46684   0.00000  Uiso   1.00
C370   C     0.94173   0.06609   0.51141   0.00000  Uiso   1.00
C371   C     0.95294   0.09115   0.57286   0.00000  Uiso   1.00
C372   C     0.00901   0.16006   0.60590   0.00000  Uiso   1.00
C373   C     0.09280   0.26798   0.67931   0.00000  Uiso   1.00
C374   C     0.92665   0.96411   0.44836   0.00000  Uiso   1.00
C375   C     0.92517   0.90342   0.45678   0.00000  Uiso   1.00
C376   C     0.96854   0.88648   0.43673   0.00000  Uiso   1.00
C377   C     0.02888   0.83604   0.41220   0.00000  Uiso   1.00
C378   C     0.83683   0.00044   0.40607   0.00000  Uiso   1.00
C379   C     0.75982   0.97029   0.37893   0.00000  Uiso   1.00
C380   C     0.72756   0.98393   0.32326   0.00000  Uiso   1.00
C381   C     0.64843   0.98990   0.23307   0.00000  Uiso   1.00
C382   C     0.96318   0.07024   0.41624   0.00000  Uiso   1.00
C383   C     0.98499   0.10834   0.48393   0.00000  Uiso   1.00
C384   C     0.04105   0.17723   0.51688   0.00000  Uiso   1.00
C385   C     0.05234   0.20240   0.57837   0.00000  Uiso   1.00
C386   C     0.96991   0.00636   0.42087   0.00000  Uiso   1.00
C387   C     0.01328   0.98950   0.40080   0.00000  Uiso   1.00
C388   C     0.01187   0.92881   0.40920   0.00000  Uiso   1.00
C389   C     0.88008   0.04270   0.37858   0.00000  Uiso   1.00
C390   C     0.84793   0.05637   0.32295   0.00000  Uiso   1.00
C391   C     0.77089   0.02626   0.29573   0.00000  Uiso   1.00
H392   H     0.84987   0.95954   0.48823   0.00000  Uiso   1.00
H393   H     0.91946   0.05843   0.59412   0.00000  Uiso   1.00
H394   H     0.89169   0.87073   0.47805   0.00000  Uiso   1.00
H395   H     0.72637   0.93760   0.40021   0.00000  Uiso   1.00
H396   H     0.01571   0.18670   0.69939   0.00000  Uiso   1.00
H397   H     0.95713   0.79091   0.45464   0.00000  Uiso   1.00
H398   H     0.60852   0.93190   0.29049   0.00000  Uiso   1.00
H399   H     0.99685   0.10314   0.39484   0.00000  Uiso   1.00
H400   H     0.07451   0.20992   0.49560   0.00000  Uiso   1.00
H401   H     0.04674   0.02221   0.37953   0.00000  Uiso   1.00
H402   H     0.88142   0.08908   0.30169   0.00000  Uiso   1.00
H403   H     0.14155   0.30965   0.61944   0.00000  Uiso   1.00
H404   H     0.08298   0.91386   0.37468   0.00000  Uiso   1.00
H405   H     0.73436   0.05485   0.21054   0.00000  Uiso   1.00
O406   O     0.12708   0.31582   0.72739   0.00000  Uiso   1.00
O407   O     0.05022   0.79655   0.40627   0.00000  Uiso   1.00
O408   O     0.59284   0.98154   0.19092   0.00000  Uiso   1.00
N409   N     0.03466   0.20099   0.66674   0.00000  Uiso   1.00
N410   N     0.97990   0.83095   0.43792   0.00000  Uiso   1.00
N411   N     0.65397   0.96276   0.28445   0.00000  Uiso   1.00
N412   N     0.10237   0.26715   0.62372   0.00000  Uiso   1.00
N413   N     0.04762   0.89711   0.39490   0.00000  Uiso   1.00
N414   N     0.72169   0.02891   0.24143   0.00000  Uiso   1.00
C415   C     0.73071   0.51793   0.91648   0.00000  Uiso   1.00
C416   C     0.77452   0.59047   0.96359   0.00000  Uiso   1.00
C417   C     0.83071   0.61237   0.02473   0.00000  Uiso   1.00
C418   C     0.86396   0.68076   0.06036   0.00000  Uiso   1.00
C419   C     0.93534   0.78655   0.13728   0.00000  Uiso   1.00
C420   C     0.64853   0.49145   0.89837   0.00000  Uiso   1.00
C421   C     0.59878   0.43010   0.90467   0.00000  Uiso   1.00
C422   C     0.52597   0.41513   0.88539   0.00000  Uiso   1.00
C423   C     0.40174   0.36718   0.86101   0.00000  Uiso   1.00
C424   C     0.74106   0.52842   0.85633   0.00000  Uiso   1.00
C425   C     0.76909   0.49813   0.82727   0.00000  Uiso   1.00
C426   C     0.77416   0.51428   0.77259   0.00000  Uiso   1.00
C427   C     0.79359   0.52372   0.68294   0.00000  Uiso   1.00
C428   C     0.68984   0.60043   0.87103   0.00000  Uiso   1.00
C429   C     0.75232   0.63528   0.93890   0.00000  Uiso   1.00
C430   C     0.78550   0.70365   0.97445   0.00000  Uiso   1.00
C431   C     0.84172   0.72565   0.03563   0.00000  Uiso   1.00
C432   C     0.62633   0.53626   0.87369   0.00000  Uiso   1.00
C433   C     0.55357   0.52138   0.85439   0.00000  Uiso   1.00
C434   C     0.50373   0.46002   0.86066   0.00000  Uiso   1.00
C435   C     0.71886   0.57323   0.83165   0.00000  Uiso   1.00
C436   C     0.72388   0.58942   0.77699   0.00000  Uiso   1.00
C437   C     0.75193   0.55917   0.74786   0.00000  Uiso   1.00
H438   H     0.74798   0.48305   0.93570   0.00000  Uiso   1.00
H439   H     0.84786   0.57767   0.04382   0.00000  Uiso   1.00
H440   H     0.61598   0.39543   0.92377   0.00000  Uiso   1.00
H441   H     0.78626   0.46346   0.84639   0.00000  Uiso   1.00
H442   H     0.94880   0.70234   0.15281   0.00000  Uiso   1.00
H443   H     0.45984   0.31806   0.89966   0.00000  Uiso   1.00
H444   H     0.81892   0.46151   0.73649   0.00000  Uiso   1.00
H445   H     0.67256   0.63532   0.85181   0.00000  Uiso   1.00
H446   H     0.76831   0.73831   0.95533   0.00000  Uiso   1.00
H447   H     0.53641   0.55607   0.83528   0.00000  Uiso   1.00
H448   H     0.70670   0.62409   0.75791   0.00000  Uiso   1.00
H449   H     0.88422   0.83272   0.08100   0.00000  Uiso   1.00
H450   H     0.39526   0.44844   0.82784   0.00000  Uiso   1.00
H451   H     0.75434   0.59189   0.66468   0.00000  Uiso   1.00
O452   O     0.98084   0.83253   0.18652   0.00000  Uiso   1.00
O453   O     0.33935   0.32836   0.85439   0.00000  Uiso   1.00
O454   O     0.81045   0.51656   0.64032   0.00000  Uiso   1.00
N455   N     0.92047   0.71890   0.12170   0.00000  Uiso   1.00
N456   N     0.46333   0.35962   0.88503   0.00000  Uiso   1.00
N457   N     0.79902   0.49372   0.73247   0.00000  Uiso   1.00
N458   N     0.88572   0.78905   0.08305   0.00000  Uiso   1.00
N459   N     0.42858   0.42978   0.84638   0.00000  Uiso   1.00
N460   N     0.76427   0.56387   0.69382   0.00000  Uiso   1.00
C461   C     0.42729   0.83547   0.94382   0.00000  Uiso   1.00
C462   C     0.39984   0.84723   0.99250   0.00000  Uiso   1.00
C463   C     0.44469   0.88536   0.05644   0.00000  Uiso   1.00
C464   C     0.40885   0.88996   0.09311   0.00000  Uiso   1.00
C465   C     0.37808   0.91312   0.17272   0.00000  Uiso   1.00
C466   C     0.38743   0.75676   0.91611   0.00000  Uiso   1.00
C467   C     0.42185   0.71882   0.91581   0.00000  Uiso   1.00
C468   C     0.37555   0.64725   0.88817   0.00000  Uiso   1.00
C469   C     0.32552   0.52995   0.84913   0.00000  Uiso   1.00
C470   C     0.39631   0.86155   0.88958   0.00000  Uiso   1.00
C471   C     0.43819   0.91171   0.86695   0.00000  Uiso   1.00
C472   C     0.39937   0.92836   0.81696   0.00000  Uiso   1.00
C473   C     0.36312   0.97377   0.73674   0.00000  Uiso   1.00
C474   C     0.28387   0.77584   0.89527   0.00000  Uiso   1.00
C475   C     0.32194   0.81484   0.96613   0.00000  Uiso   1.00
C476   C     0.28602   0.81938   0.00271   0.00000  Uiso   1.00
C477   C     0.33081   0.85751   0.06669   0.00000  Uiso   1.00
C478   C     0.30953   0.72436   0.88974   0.00000  Uiso   1.00
C479   C     0.26318   0.65284   0.86208   0.00000  Uiso   1.00
C480   C     0.29752   0.61480   0.86174   0.00000  Uiso   1.00
C481   C     0.31841   0.82916   0.86321   0.00000  Uiso   1.00
C482   C     0.27952   0.84573   0.81324   0.00000  Uiso   1.00
C483   C     0.32133   0.89591   0.79054   0.00000  Uiso   1.00
H484   H     0.48793   0.86068   0.96436   0.00000  Uiso   1.00
H485   H     0.50498   0.91042   0.07683   0.00000  Uiso   1.00
H486   H     0.48213   0.74390   0.93622   0.00000  Uiso   1.00
H487   H     0.49847   0.93676   0.88738   0.00000  Uiso   1.00
H488   H     0.48952   0.95125   0.18990   0.00000  Uiso   1.00
H489   H     0.44135   0.60014   0.89339   0.00000  Uiso   1.00
H490   H     0.47580   0.00683   0.79040   0.00000  Uiso   1.00
H491   H     0.22322   0.75062   0.87473   0.00000  Uiso   1.00
H492   H     0.22574   0.79431   0.98229   0.00000  Uiso   1.00
H493   H     0.20290   0.62779   0.84168   0.00000  Uiso   1.00
H494   H     0.21923   0.82065   0.79284   0.00000  Uiso   1.00
H495   H     0.26288   0.85701   0.11317   0.00000  Uiso   1.00
H496   H     0.21471   0.50590   0.81666   0.00000  Uiso   1.00
H497   H     0.24916   0.91259   0.71367   0.00000  Uiso   1.00
O498   O     0.38263   0.93484   0.22391   0.00000  Uiso   1.00
O499   O     0.31944   0.47420   0.83489   0.00000  Uiso   1.00
O500   O     0.36464   0.00777   0.69978   0.00000  Uiso   1.00
N501   N     0.43583   0.92308   0.15708   0.00000  Uiso   1.00
N502   N     0.39080   0.59482   0.87987   0.00000  Uiso   1.00
N503   N     0.42301   0.97502   0.78357   0.00000  Uiso   1.00
N504   N     0.31388   0.87238   0.11579   0.00000  Uiso   1.00
N505   N     0.26885   0.54411   0.83858   0.00000  Uiso   1.00
N506   N     0.30106   0.92431   0.74228   0.00000  Uiso   1.00
C507   C     0.96371   0.18067   0.95287   0.00000  Uiso   1.00
C508   C     0.02241   0.16450   0.99097   0.00000  Uiso   1.00
C509   C     0.05339   0.17679   0.05666   0.00000  Uiso   1.00
C510   C     0.10626   0.15834   0.08243   0.00000  Uiso   1.00
C511   C     0.19422   0.13778   0.14746   0.00000  Uiso   1.00
C512   C     0.99700   0.22789   0.91594   0.00000  Uiso   1.00
C513   C     0.00660   0.29347   0.91854   0.00000  Uiso   1.00
C514   C     0.03807   0.32837   0.88114   0.00000  Uiso   1.00
C515   C     0.08653   0.40620   0.82966   0.00000  Uiso   1.00
C516   C     0.89833   0.11219   0.90302   0.00000  Uiso   1.00
C517   C     0.82497   0.08050   0.89473   0.00000  Uiso   1.00
C518   C     0.77336   0.01800   0.84644   0.00000  Uiso   1.00
C519   C     0.66862   0.91620   0.77488   0.00000  Uiso   1.00
C520   C     0.00252   0.12605   0.88184   0.00000  Uiso   1.00
C521   C     0.04349   0.13484   0.95239   0.00000  Uiso   1.00
C522   C     0.09632   0.11636   0.97807   0.00000  Uiso   1.00
C523   C     0.12737   0.12862   0.04378   0.00000  Uiso   1.00
C524   C     0.01808   0.19823   0.87736   0.00000  Uiso   1.00
C525   C     0.04953   0.23304   0.83995   0.00000  Uiso   1.00
C526   C     0.05919   0.29865   0.84249   0.00000  Uiso   1.00
C527   C     0.91941   0.08253   0.86443   0.00000  Uiso   1.00
C528   C     0.86790   0.02007   0.81614   0.00000  Uiso   1.00
C529   C     0.79448   0.98829   0.80779   0.00000  Uiso   1.00
H530   H     0.94731   0.20377   0.98291   0.00000  Uiso   1.00
H531   H     0.03707   0.19976   0.08650   0.00000  Uiso   1.00
H532   H     0.99028   0.31641   0.94839   0.00000  Uiso   1.00
H533   H     0.80868   0.10347   0.92459   0.00000  Uiso   1.00
H534   H     0.14590   0.18225   0.18434   0.00000  Uiso   1.00
H535   H     0.04722   0.42821   0.89312   0.00000  Uiso   1.00
H536   H     0.66427   0.97919   0.84293   0.00000  Uiso   1.00
H537   H     0.01893   0.10296   0.85180   0.00000  Uiso   1.00
H538   H     0.11262   0.09341   0.94820   0.00000  Uiso   1.00
H539   H     0.06583   0.21007   0.81009   0.00000  Uiso   1.00
H540   H     0.88423   0.99713   0.78629   0.00000  Uiso   1.00
H541   H     0.20723   0.09593   0.07209   0.00000  Uiso   1.00
H542   H     0.10854   0.34190   0.78087   0.00000  Uiso   1.00
H543   H     0.72560   0.89288   0.73068   0.00000  Uiso   1.00
O544   O     0.23692   0.13465   0.19400   0.00000  Uiso   1.00
O545   O     0.10744   0.45733   0.81192   0.00000  Uiso   1.00
O546   O     0.60503   0.86823   0.74608   0.00000  Uiso   1.00
N547   N     0.14746   0.16323   0.14469   0.00000  Uiso   1.00
N548   N     0.05521   0.39319   0.87243   0.00000  Uiso   1.00
N549   N     0.69719   0.97341   0.82549   0.00000  Uiso   1.00
N550   N     0.18046   0.11679   0.08429   0.00000  Uiso   1.00
N551   N     0.08821   0.34675   0.81203   0.00000  Uiso   1.00
N552   N     0.73019   0.92697   0.76509   0.00000  Uiso   1.00
