data_job_01348
_audit_creation_date              2018-12-19
_audit_creation_method            'Materials Studio'
_symmetry_space_group_name_H-M    'P1'
_symmetry_Int_Tables_number       1
_symmetry_cell_setting            triclinic
loop_
_symmetry_equiv_pos_as_xyz
  x,y,z
_cell_length_a                    20.8271
_cell_length_b                    16.2204
_cell_length_c                    14.7128
_cell_angle_alpha                 90.0000
_cell_angle_beta                  90.0000
_cell_angle_gamma                 90.0000
loop_
_atom_site_label
_atom_site_type_symbol
_atom_site_fract_x
_atom_site_fract_y
_atom_site_fract_z
_atom_site_U_iso_or_equiv
_atom_site_adp_type
_atom_site_occupancy
C1     C     0.29016   0.05423   0.63590   0.00000  Uiso   1.00
C2     C     0.32428   0.00380   0.56297   0.00000  Uiso   1.00
C3     C     0.35280   0.92734   0.57569   0.00000  Uiso   1.00
C4     C     0.38156   0.89127   0.50042   0.00000  Uiso   1.00
C5     C     0.43454   0.80703   0.40011   0.00000  Uiso   1.00
C6     C     0.32376   0.13775   0.63788   0.00000  Uiso   1.00
C7     C     0.35182   0.17391   0.71358   0.00000  Uiso   1.00
C8     C     0.38014   0.25061   0.70137   0.00000  Uiso   1.00
C9     C     0.43226   0.37436   0.71737   0.00000  Uiso   1.00
C10    C     0.22272   0.07044   0.59975   0.00000  Uiso   1.00
C11    C     0.16582   0.05003   0.64339   0.00000  Uiso   1.00
C12    C     0.10907   0.07008   0.59908   0.00000  Uiso   1.00
C13    C     0.00431   0.08933   0.55587   0.00000  Uiso   1.00
C14    C     0.29054   0.12615   0.47962   0.00000  Uiso   1.00
C15    C     0.32449   0.04286   0.47809   0.00000  Uiso   1.00
C16    C     0.35322   0.00690   0.40278   0.00000  Uiso   1.00
C17    C     0.38177   0.93039   0.41538   0.00000  Uiso   1.00
C18    C     0.32397   0.17681   0.55300   0.00000  Uiso   1.00
C19    C     0.35224   0.25347   0.54067   0.00000  Uiso   1.00
C20    C     0.38035   0.28974   0.61633   0.00000  Uiso   1.00
C21    C     0.22292   0.10950   0.51486   0.00000  Uiso   1.00
C22    C     0.16625   0.12959   0.47048   0.00000  Uiso   1.00
C23    C     0.10928   0.10921   0.51404   0.00000  Uiso   1.00
H24    H     0.29000   0.02383   0.70199   0.00000  Uiso   1.00
H25    H     0.35263   0.89713   0.64139   0.00000  Uiso   1.00
H26    H     0.35165   0.14367   0.77926   0.00000  Uiso   1.00
H27    H     0.16568   0.01981   0.70908   0.00000  Uiso   1.00
H28    H     0.42218   0.77390   0.53678   0.00000  Uiso   1.00
H29    H     0.42009   0.29376   0.82750   0.00000  Uiso   1.00
H30    H     0.02793   0.03257   0.67951   0.00000  Uiso   1.00
H31    H     0.29071   0.15656   0.41353   0.00000  Uiso   1.00
H32    H     0.35337   0.03714   0.33710   0.00000  Uiso   1.00
H33    H     0.35239   0.28368   0.47497   0.00000  Uiso   1.00
H34    H     0.16642   0.15982   0.40479   0.00000  Uiso   1.00
H35    H     0.42278   0.88754   0.28981   0.00000  Uiso   1.00
H36    H     0.42069   0.40740   0.58053   0.00000  Uiso   1.00
H37    H     0.02854   0.14621   0.43253   0.00000  Uiso   1.00
O38    O     0.46371   0.74978   0.36823   0.00000  Uiso   1.00
O39    O     0.46096   0.43182   0.74965   0.00000  Uiso   1.00
O40    O     0.94646   0.08914   0.55548   0.00000  Uiso   1.00
N41    N     0.41371   0.81703   0.48914   0.00000  Uiso   1.00
N42    N     0.41176   0.30306   0.76094   0.00000  Uiso   1.00
N43    N     0.04513   0.05889   0.62259   0.00000  Uiso   1.00
N44    N     0.41403   0.87818   0.35625   0.00000  Uiso   1.00
N45    N     0.41209   0.36420   0.62805   0.00000  Uiso   1.00
N46    N     0.04546   0.12003   0.48970   0.00000  Uiso   1.00
C47    C     0.20984   0.94577   0.13590   0.00000  Uiso   1.00
C48    C     0.17572   0.99620   0.06297   0.00000  Uiso   1.00
C49    C     0.14720   0.07266   0.07569   0.00000  Uiso   1.00
C50    C     0.11844   0.10873   0.00042   0.00000  Uiso   1.00
C51    C     0.06546   0.19297   0.90011   0.00000  Uiso   1.00
C52    C     0.17624   0.86225   0.13788   0.00000  Uiso   1.00
C53    C     0.14818   0.82609   0.21358   0.00000  Uiso   1.00
C54    C     0.11986   0.74939   0.20137   0.00000  Uiso   1.00
C55    C     0.06774   0.62564   0.21737   0.00000  Uiso   1.00
C56    C     0.27728   0.92956   0.09975   0.00000  Uiso   1.00
C57    C     0.33418   0.94997   0.14339   0.00000  Uiso   1.00
C58    C     0.39093   0.92992   0.09908   0.00000  Uiso   1.00
C59    C     0.49569   0.91067   0.05587   0.00000  Uiso   1.00
C60    C     0.20946   0.87385   0.97962   0.00000  Uiso   1.00
C61    C     0.17551   0.95714   0.97809   0.00000  Uiso   1.00
C62    C     0.14678   0.99310   0.90278   0.00000  Uiso   1.00
C63    C     0.11823   0.06961   0.91538   0.00000  Uiso   1.00
C64    C     0.17603   0.82319   0.05300   0.00000  Uiso   1.00
C65    C     0.14776   0.74653   0.04067   0.00000  Uiso   1.00
C66    C     0.11965   0.71026   0.11633   0.00000  Uiso   1.00
C67    C     0.27708   0.89050   0.01486   0.00000  Uiso   1.00
C68    C     0.33375   0.87041   0.97048   0.00000  Uiso   1.00
C69    C     0.39072   0.89079   0.01404   0.00000  Uiso   1.00
H70    H     0.21000   0.97617   0.20199   0.00000  Uiso   1.00
H71    H     0.14737   0.10287   0.14139   0.00000  Uiso   1.00
H72    H     0.14835   0.85633   0.27926   0.00000  Uiso   1.00
H73    H     0.33432   0.98019   0.20908   0.00000  Uiso   1.00
H74    H     0.07782   0.22610   0.03678   0.00000  Uiso   1.00
H75    H     0.07991   0.70624   0.32750   0.00000  Uiso   1.00
H76    H     0.47207   0.96743   0.17951   0.00000  Uiso   1.00
H77    H     0.20929   0.84344   0.91353   0.00000  Uiso   1.00
H78    H     0.14663   0.96286   0.83710   0.00000  Uiso   1.00
H79    H     0.14761   0.71632   0.97497   0.00000  Uiso   1.00
H80    H     0.33358   0.84018   0.90479   0.00000  Uiso   1.00
H81    H     0.07722   0.11246   0.78981   0.00000  Uiso   1.00
H82    H     0.07931   0.59260   0.08053   0.00000  Uiso   1.00
H83    H     0.47146   0.85379   0.93253   0.00000  Uiso   1.00
O84    O     0.03629   0.25022   0.86823   0.00000  Uiso   1.00
O85    O     0.03904   0.56818   0.24965   0.00000  Uiso   1.00
O86    O     0.55354   0.91086   0.05548   0.00000  Uiso   1.00
N87    N     0.08629   0.18297   0.98914   0.00000  Uiso   1.00
N88    N     0.08824   0.69694   0.26094   0.00000  Uiso   1.00
N89    N     0.45487   0.94111   0.12259   0.00000  Uiso   1.00
N90    N     0.08597   0.12182   0.85625   0.00000  Uiso   1.00
N91    N     0.08791   0.63580   0.12805   0.00000  Uiso   1.00
N92    N     0.45454   0.87997   0.98970   0.00000  Uiso   1.00
C93    C     0.70984   0.55423   0.86410   0.00000  Uiso   1.00
C94    C     0.67572   0.50380   0.93703   0.00000  Uiso   1.00
C95    C     0.64720   0.42734   0.92431   0.00000  Uiso   1.00
C96    C     0.61844   0.39127   0.99958   0.00000  Uiso   1.00
C97    C     0.56546   0.30703   0.09989   0.00000  Uiso   1.00
C98    C     0.67624   0.63775   0.86212   0.00000  Uiso   1.00
C99    C     0.64818   0.67391   0.78642   0.00000  Uiso   1.00
C100   C     0.61986   0.75061   0.79863   0.00000  Uiso   1.00
C101   C     0.56774   0.87436   0.78263   0.00000  Uiso   1.00
C102   C     0.77728   0.57044   0.90025   0.00000  Uiso   1.00
C103   C     0.83418   0.55003   0.85661   0.00000  Uiso   1.00
C104   C     0.89093   0.57008   0.90092   0.00000  Uiso   1.00
C105   C     0.99569   0.58933   0.94413   0.00000  Uiso   1.00
C106   C     0.70946   0.62615   0.02038   0.00000  Uiso   1.00
C107   C     0.67551   0.54286   0.02191   0.00000  Uiso   1.00
C108   C     0.64678   0.50690   0.09722   0.00000  Uiso   1.00
C109   C     0.61823   0.43039   0.08462   0.00000  Uiso   1.00
C110   C     0.67603   0.67681   0.94700   0.00000  Uiso   1.00
C111   C     0.64776   0.75347   0.95933   0.00000  Uiso   1.00
C112   C     0.61965   0.78974   0.88367   0.00000  Uiso   1.00
C113   C     0.77708   0.60950   0.98514   0.00000  Uiso   1.00
C114   C     0.83375   0.62959   0.02952   0.00000  Uiso   1.00
C115   C     0.89072   0.60921   0.98596   0.00000  Uiso   1.00
H116   H     0.71000   0.52383   0.79801   0.00000  Uiso   1.00
H117   H     0.64737   0.39713   0.85861   0.00000  Uiso   1.00
H118   H     0.64835   0.64367   0.72074   0.00000  Uiso   1.00
H119   H     0.83432   0.51981   0.79092   0.00000  Uiso   1.00
H120   H     0.57782   0.27390   0.96322   0.00000  Uiso   1.00
H121   H     0.57991   0.79376   0.67250   0.00000  Uiso   1.00
H122   H     0.97207   0.53257   0.82049   0.00000  Uiso   1.00
H123   H     0.70929   0.65656   0.08647   0.00000  Uiso   1.00
H124   H     0.64663   0.53714   0.16290   0.00000  Uiso   1.00
H125   H     0.64761   0.78368   0.02503   0.00000  Uiso   1.00
H126   H     0.83358   0.65982   0.09521   0.00000  Uiso   1.00
H127   H     0.57722   0.38754   0.21019   0.00000  Uiso   1.00
H128   H     0.57931   0.90740   0.91947   0.00000  Uiso   1.00
H129   H     0.97146   0.64621   0.06747   0.00000  Uiso   1.00
O130   O     0.53629   0.24978   0.13177   0.00000  Uiso   1.00
O131   O     0.53904   0.93182   0.75035   0.00000  Uiso   1.00
O132   O     0.05354   0.58914   0.94452   0.00000  Uiso   1.00
N133   N     0.58629   0.31703   0.01086   0.00000  Uiso   1.00
N134   N     0.58824   0.80306   0.73906   0.00000  Uiso   1.00
N135   N     0.95487   0.55889   0.87741   0.00000  Uiso   1.00
N136   N     0.58597   0.37818   0.14375   0.00000  Uiso   1.00
N137   N     0.58791   0.86420   0.87195   0.00000  Uiso   1.00
N138   N     0.95454   0.62003   0.01030   0.00000  Uiso   1.00
C139   C     0.79016   0.44577   0.36410   0.00000  Uiso   1.00
C140   C     0.82428   0.49620   0.43703   0.00000  Uiso   1.00
C141   C     0.85280   0.57266   0.42431   0.00000  Uiso   1.00
C142   C     0.88156   0.60873   0.49958   0.00000  Uiso   1.00
C143   C     0.93454   0.69297   0.59989   0.00000  Uiso   1.00
C144   C     0.82376   0.36225   0.36212   0.00000  Uiso   1.00
C145   C     0.85182   0.32609   0.28642   0.00000  Uiso   1.00
C146   C     0.88014   0.24939   0.29863   0.00000  Uiso   1.00
C147   C     0.93226   0.12564   0.28263   0.00000  Uiso   1.00
C148   C     0.72272   0.42956   0.40025   0.00000  Uiso   1.00
C149   C     0.66582   0.44997   0.35661   0.00000  Uiso   1.00
C150   C     0.60907   0.42992   0.40092   0.00000  Uiso   1.00
C151   C     0.50431   0.41067   0.44413   0.00000  Uiso   1.00
C152   C     0.79054   0.37385   0.52038   0.00000  Uiso   1.00
C153   C     0.82449   0.45714   0.52191   0.00000  Uiso   1.00
C154   C     0.85322   0.49310   0.59722   0.00000  Uiso   1.00
C155   C     0.88177   0.56961   0.58462   0.00000  Uiso   1.00
C156   C     0.82397   0.32319   0.44700   0.00000  Uiso   1.00
C157   C     0.85224   0.24653   0.45933   0.00000  Uiso   1.00
C158   C     0.88035   0.21026   0.38367   0.00000  Uiso   1.00
C159   C     0.72292   0.39050   0.48514   0.00000  Uiso   1.00
C160   C     0.66625   0.37041   0.52952   0.00000  Uiso   1.00
C161   C     0.60928   0.39079   0.48596   0.00000  Uiso   1.00
H162   H     0.79000   0.47617   0.29801   0.00000  Uiso   1.00
H163   H     0.85263   0.60287   0.35861   0.00000  Uiso   1.00
H164   H     0.85165   0.35633   0.22074   0.00000  Uiso   1.00
H165   H     0.66568   0.48019   0.29092   0.00000  Uiso   1.00
H166   H     0.92218   0.72610   0.46322   0.00000  Uiso   1.00
H167   H     0.92009   0.20624   0.17250   0.00000  Uiso   1.00
H168   H     0.52793   0.46743   0.32049   0.00000  Uiso   1.00
H169   H     0.79071   0.34344   0.58647   0.00000  Uiso   1.00
H170   H     0.85337   0.46286   0.66290   0.00000  Uiso   1.00
H171   H     0.85239   0.21632   0.52503   0.00000  Uiso   1.00
H172   H     0.66642   0.34018   0.59521   0.00000  Uiso   1.00
H173   H     0.92278   0.61246   0.71019   0.00000  Uiso   1.00
H174   H     0.92069   0.09260   0.41947   0.00000  Uiso   1.00
H175   H     0.52854   0.35379   0.56747   0.00000  Uiso   1.00
O176   O     0.96371   0.75022   0.63177   0.00000  Uiso   1.00
O177   O     0.96096   0.06818   0.25035   0.00000  Uiso   1.00
O178   O     0.44646   0.41086   0.44452   0.00000  Uiso   1.00
N179   N     0.91371   0.68297   0.51086   0.00000  Uiso   1.00
N180   N     0.91176   0.19694   0.23906   0.00000  Uiso   1.00
N181   N     0.54513   0.44111   0.37741   0.00000  Uiso   1.00
N182   N     0.91403   0.62182   0.64375   0.00000  Uiso   1.00
N183   N     0.91209   0.13580   0.37195   0.00000  Uiso   1.00
N184   N     0.54546   0.37997   0.51030   0.00000  Uiso   1.00
C185   C     0.70984   0.94577   0.36410   0.00000  Uiso   1.00
C186   C     0.67572   0.99620   0.43703   0.00000  Uiso   1.00
C187   C     0.64720   0.07266   0.42431   0.00000  Uiso   1.00
C188   C     0.61844   0.10873   0.49958   0.00000  Uiso   1.00
C189   C     0.56546   0.19297   0.59989   0.00000  Uiso   1.00
C190   C     0.67624   0.86225   0.36212   0.00000  Uiso   1.00
C191   C     0.64818   0.82609   0.28642   0.00000  Uiso   1.00
C192   C     0.61986   0.74939   0.29863   0.00000  Uiso   1.00
C193   C     0.56774   0.62564   0.28263   0.00000  Uiso   1.00
C194   C     0.77728   0.92956   0.40025   0.00000  Uiso   1.00
C195   C     0.83418   0.94997   0.35661   0.00000  Uiso   1.00
C196   C     0.89093   0.92992   0.40092   0.00000  Uiso   1.00
C197   C     0.99569   0.91067   0.44413   0.00000  Uiso   1.00
C198   C     0.70946   0.87385   0.52038   0.00000  Uiso   1.00
C199   C     0.67551   0.95714   0.52191   0.00000  Uiso   1.00
C200   C     0.64678   0.99310   0.59722   0.00000  Uiso   1.00
C201   C     0.61823   0.06961   0.58462   0.00000  Uiso   1.00
C202   C     0.67603   0.82319   0.44700   0.00000  Uiso   1.00
C203   C     0.64776   0.74653   0.45933   0.00000  Uiso   1.00
C204   C     0.61965   0.71026   0.38367   0.00000  Uiso   1.00
C205   C     0.77708   0.89050   0.48514   0.00000  Uiso   1.00
C206   C     0.83375   0.87041   0.52952   0.00000  Uiso   1.00
C207   C     0.89072   0.89079   0.48596   0.00000  Uiso   1.00
H208   H     0.71000   0.97617   0.29801   0.00000  Uiso   1.00
H209   H     0.64737   0.10287   0.35861   0.00000  Uiso   1.00
H210   H     0.64835   0.85633   0.22074   0.00000  Uiso   1.00
H211   H     0.83432   0.98019   0.29092   0.00000  Uiso   1.00
H212   H     0.57782   0.22610   0.46322   0.00000  Uiso   1.00
H213   H     0.57991   0.70624   0.17250   0.00000  Uiso   1.00
H214   H     0.97207   0.96743   0.32049   0.00000  Uiso   1.00
H215   H     0.70929   0.84344   0.58647   0.00000  Uiso   1.00
H216   H     0.64663   0.96286   0.66290   0.00000  Uiso   1.00
H217   H     0.64761   0.71632   0.52503   0.00000  Uiso   1.00
H218   H     0.83358   0.84018   0.59521   0.00000  Uiso   1.00
H219   H     0.57722   0.11246   0.71019   0.00000  Uiso   1.00
H220   H     0.57931   0.59260   0.41947   0.00000  Uiso   1.00
H221   H     0.97146   0.85379   0.56747   0.00000  Uiso   1.00
O222   O     0.53629   0.25022   0.63177   0.00000  Uiso   1.00
O223   O     0.53904   0.56818   0.25035   0.00000  Uiso   1.00
O224   O     0.05354   0.91086   0.44452   0.00000  Uiso   1.00
N225   N     0.58629   0.18297   0.51086   0.00000  Uiso   1.00
N226   N     0.58824   0.69694   0.23906   0.00000  Uiso   1.00
N227   N     0.95487   0.94111   0.37741   0.00000  Uiso   1.00
N228   N     0.58597   0.12182   0.64375   0.00000  Uiso   1.00
N229   N     0.58791   0.63580   0.37195   0.00000  Uiso   1.00
N230   N     0.95454   0.87997   0.51030   0.00000  Uiso   1.00
C231   C     0.79016   0.05423   0.86410   0.00000  Uiso   1.00
C232   C     0.82428   0.00380   0.93703   0.00000  Uiso   1.00
C233   C     0.85280   0.92734   0.92431   0.00000  Uiso   1.00
C234   C     0.88156   0.89127   0.99958   0.00000  Uiso   1.00
C235   C     0.93454   0.80703   0.09989   0.00000  Uiso   1.00
C236   C     0.82376   0.13775   0.86212   0.00000  Uiso   1.00
C237   C     0.85182   0.17391   0.78642   0.00000  Uiso   1.00
C238   C     0.88014   0.25061   0.79863   0.00000  Uiso   1.00
C239   C     0.93226   0.37436   0.78263   0.00000  Uiso   1.00
C240   C     0.72272   0.07044   0.90025   0.00000  Uiso   1.00
C241   C     0.66582   0.05003   0.85661   0.00000  Uiso   1.00
C242   C     0.60907   0.07008   0.90092   0.00000  Uiso   1.00
C243   C     0.50431   0.08933   0.94413   0.00000  Uiso   1.00
C244   C     0.79054   0.12615   0.02038   0.00000  Uiso   1.00
C245   C     0.82449   0.04286   0.02191   0.00000  Uiso   1.00
C246   C     0.85322   0.00690   0.09722   0.00000  Uiso   1.00
C247   C     0.88177   0.93039   0.08462   0.00000  Uiso   1.00
C248   C     0.82397   0.17681   0.94700   0.00000  Uiso   1.00
C249   C     0.85224   0.25347   0.95933   0.00000  Uiso   1.00
C250   C     0.88035   0.28974   0.88367   0.00000  Uiso   1.00
C251   C     0.72292   0.10950   0.98514   0.00000  Uiso   1.00
C252   C     0.66625   0.12959   0.02952   0.00000  Uiso   1.00
C253   C     0.60928   0.10921   0.98596   0.00000  Uiso   1.00
H254   H     0.79000   0.02383   0.79801   0.00000  Uiso   1.00
H255   H     0.85263   0.89713   0.85861   0.00000  Uiso   1.00
H256   H     0.85165   0.14367   0.72074   0.00000  Uiso   1.00
H257   H     0.66568   0.01981   0.79092   0.00000  Uiso   1.00
H258   H     0.92218   0.77390   0.96322   0.00000  Uiso   1.00
H259   H     0.92009   0.29376   0.67250   0.00000  Uiso   1.00
H260   H     0.52793   0.03257   0.82049   0.00000  Uiso   1.00
H261   H     0.79071   0.15656   0.08647   0.00000  Uiso   1.00
H262   H     0.85337   0.03714   0.16290   0.00000  Uiso   1.00
H263   H     0.85239   0.28368   0.02503   0.00000  Uiso   1.00
H264   H     0.66642   0.15982   0.09521   0.00000  Uiso   1.00
H265   H     0.92278   0.88754   0.21019   0.00000  Uiso   1.00
H266   H     0.92069   0.40740   0.91947   0.00000  Uiso   1.00
H267   H     0.52854   0.14621   0.06747   0.00000  Uiso   1.00
O268   O     0.96371   0.74978   0.13177   0.00000  Uiso   1.00
O269   O     0.96096   0.43182   0.75035   0.00000  Uiso   1.00
O270   O     0.44646   0.08914   0.94452   0.00000  Uiso   1.00
N271   N     0.91371   0.81703   0.01086   0.00000  Uiso   1.00
N272   N     0.91176   0.30306   0.73906   0.00000  Uiso   1.00
N273   N     0.54513   0.05889   0.87741   0.00000  Uiso   1.00
N274   N     0.91403   0.87818   0.14375   0.00000  Uiso   1.00
N275   N     0.91209   0.36420   0.87195   0.00000  Uiso   1.00
N276   N     0.54546   0.12003   0.01030   0.00000  Uiso   1.00
C277   C     0.29016   0.44577   0.13590   0.00000  Uiso   1.00
C278   C     0.32428   0.49620   0.06297   0.00000  Uiso   1.00
C279   C     0.35280   0.57266   0.07569   0.00000  Uiso   1.00
C280   C     0.38156   0.60873   0.00042   0.00000  Uiso   1.00
C281   C     0.43454   0.69297   0.90011   0.00000  Uiso   1.00
C282   C     0.32376   0.36225   0.13788   0.00000  Uiso   1.00
C283   C     0.35182   0.32609   0.21358   0.00000  Uiso   1.00
C284   C     0.38014   0.24939   0.20137   0.00000  Uiso   1.00
C285   C     0.43226   0.12564   0.21737   0.00000  Uiso   1.00
C286   C     0.22272   0.42956   0.09975   0.00000  Uiso   1.00
C287   C     0.16582   0.44997   0.14339   0.00000  Uiso   1.00
C288   C     0.10907   0.42992   0.09908   0.00000  Uiso   1.00
C289   C     0.00431   0.41067   0.05587   0.00000  Uiso   1.00
C290   C     0.29054   0.37385   0.97962   0.00000  Uiso   1.00
C291   C     0.32449   0.45714   0.97809   0.00000  Uiso   1.00
C292   C     0.35322   0.49310   0.90278   0.00000  Uiso   1.00
C293   C     0.38177   0.56961   0.91538   0.00000  Uiso   1.00
C294   C     0.32397   0.32319   0.05300   0.00000  Uiso   1.00
C295   C     0.35224   0.24653   0.04067   0.00000  Uiso   1.00
C296   C     0.38035   0.21026   0.11633   0.00000  Uiso   1.00
C297   C     0.22292   0.39050   0.01486   0.00000  Uiso   1.00
C298   C     0.16625   0.37041   0.97048   0.00000  Uiso   1.00
C299   C     0.10928   0.39079   0.01404   0.00000  Uiso   1.00
H300   H     0.29000   0.47617   0.20199   0.00000  Uiso   1.00
H301   H     0.35263   0.60287   0.14139   0.00000  Uiso   1.00
H302   H     0.35165   0.35633   0.27926   0.00000  Uiso   1.00
H303   H     0.16568   0.48019   0.20908   0.00000  Uiso   1.00
H304   H     0.42218   0.72610   0.03678   0.00000  Uiso   1.00
H305   H     0.42009   0.20624   0.32750   0.00000  Uiso   1.00
H306   H     0.02793   0.46743   0.17951   0.00000  Uiso   1.00
H307   H     0.29071   0.34344   0.91353   0.00000  Uiso   1.00
H308   H     0.35337   0.46286   0.83710   0.00000  Uiso   1.00
H309   H     0.35239   0.21632   0.97497   0.00000  Uiso   1.00
H310   H     0.16642   0.34018   0.90479   0.00000  Uiso   1.00
H311   H     0.42278   0.61246   0.78981   0.00000  Uiso   1.00
H312   H     0.42069   0.09260   0.08053   0.00000  Uiso   1.00
H313   H     0.02854   0.35379   0.93253   0.00000  Uiso   1.00
O314   O     0.46371   0.75022   0.86823   0.00000  Uiso   1.00
O315   O     0.46096   0.06818   0.24965   0.00000  Uiso   1.00
O316   O     0.94646   0.41086   0.05548   0.00000  Uiso   1.00
N317   N     0.41371   0.68297   0.98914   0.00000  Uiso   1.00
N318   N     0.41176   0.19694   0.26094   0.00000  Uiso   1.00
N319   N     0.04513   0.44111   0.12259   0.00000  Uiso   1.00
N320   N     0.41403   0.62182   0.85625   0.00000  Uiso   1.00
N321   N     0.41209   0.13580   0.12805   0.00000  Uiso   1.00
N322   N     0.04546   0.37997   0.98970   0.00000  Uiso   1.00
C323   C     0.20984   0.55423   0.63590   0.00000  Uiso   1.00
C324   C     0.17572   0.50380   0.56297   0.00000  Uiso   1.00
C325   C     0.14720   0.42734   0.57569   0.00000  Uiso   1.00
C326   C     0.11844   0.39127   0.50042   0.00000  Uiso   1.00
C327   C     0.06546   0.30703   0.40011   0.00000  Uiso   1.00
C328   C     0.17624   0.63775   0.63788   0.00000  Uiso   1.00
C329   C     0.14818   0.67391   0.71358   0.00000  Uiso   1.00
C330   C     0.11986   0.75061   0.70137   0.00000  Uiso   1.00
C331   C     0.06774   0.87436   0.71737   0.00000  Uiso   1.00
C332   C     0.27728   0.57044   0.59975   0.00000  Uiso   1.00
C333   C     0.33418   0.55003   0.64339   0.00000  Uiso   1.00
C334   C     0.39093   0.57008   0.59908   0.00000  Uiso   1.00
C335   C     0.49569   0.58933   0.55587   0.00000  Uiso   1.00
C336   C     0.20946   0.62615   0.47962   0.00000  Uiso   1.00
C337   C     0.17551   0.54286   0.47809   0.00000  Uiso   1.00
C338   C     0.14678   0.50690   0.40278   0.00000  Uiso   1.00
C339   C     0.11823   0.43039   0.41538   0.00000  Uiso   1.00
C340   C     0.17603   0.67681   0.55300   0.00000  Uiso   1.00
C341   C     0.14776   0.75347   0.54067   0.00000  Uiso   1.00
C342   C     0.11965   0.78974   0.61633   0.00000  Uiso   1.00
C343   C     0.27708   0.60950   0.51486   0.00000  Uiso   1.00
C344   C     0.33375   0.62959   0.47048   0.00000  Uiso   1.00
C345   C     0.39072   0.60921   0.51404   0.00000  Uiso   1.00
H346   H     0.21000   0.52383   0.70199   0.00000  Uiso   1.00
H347   H     0.14737   0.39713   0.64139   0.00000  Uiso   1.00
H348   H     0.14835   0.64367   0.77926   0.00000  Uiso   1.00
H349   H     0.33432   0.51981   0.70908   0.00000  Uiso   1.00
H350   H     0.07782   0.27390   0.53678   0.00000  Uiso   1.00
H351   H     0.07991   0.79376   0.82750   0.00000  Uiso   1.00
H352   H     0.47207   0.53257   0.67951   0.00000  Uiso   1.00
H353   H     0.20929   0.65656   0.41353   0.00000  Uiso   1.00
H354   H     0.14663   0.53714   0.33710   0.00000  Uiso   1.00
H355   H     0.14761   0.78368   0.47497   0.00000  Uiso   1.00
H356   H     0.33358   0.65982   0.40479   0.00000  Uiso   1.00
H357   H     0.07722   0.38754   0.28981   0.00000  Uiso   1.00
H358   H     0.07931   0.90740   0.58053   0.00000  Uiso   1.00
H359   H     0.47146   0.64621   0.43253   0.00000  Uiso   1.00
O360   O     0.03629   0.24978   0.36823   0.00000  Uiso   1.00
O361   O     0.03904   0.93182   0.74965   0.00000  Uiso   1.00
O362   O     0.55354   0.58914   0.55548   0.00000  Uiso   1.00
N363   N     0.08629   0.31703   0.48914   0.00000  Uiso   1.00
N364   N     0.08824   0.80306   0.76094   0.00000  Uiso   1.00
N365   N     0.45487   0.55889   0.62259   0.00000  Uiso   1.00
N366   N     0.08597   0.37818   0.35625   0.00000  Uiso   1.00
N367   N     0.08791   0.86420   0.62805   0.00000  Uiso   1.00
N368   N     0.45454   0.62003   0.48970   0.00000  Uiso   1.00
