data_job_01157
_audit_creation_date              2018-12-19
_audit_creation_method            'Materials Studio'
_symmetry_space_group_name_H-M    'P1'
_symmetry_Int_Tables_number       1
_symmetry_cell_setting            triclinic
loop_
_symmetry_equiv_pos_as_xyz
  x,y,z
_cell_length_a                    40.8050
_cell_length_b                    14.6414
_cell_length_c                    9.8216
_cell_angle_alpha                 90.0000
_cell_angle_beta                  100.9356
_cell_angle_gamma                 90.0000
loop_
_atom_site_label
_atom_site_type_symbol
_atom_site_fract_x
_atom_site_fract_y
_atom_site_fract_z
_atom_site_U_iso_or_equiv
_atom_site_adp_type
_atom_site_occupancy
C1     C     0.66533   0.73223   0.76642   0.00000  Uiso   1.00
C2     C     0.63217   0.68441   0.71338   0.00000  Uiso   1.00
C3     C     0.62268   0.64392   0.58415   0.00000  Uiso   1.00
C4     C     0.59131   0.60372   0.55534   0.00000  Uiso   1.00
C5     C     0.54302   0.52946   0.45819   0.00000  Uiso   1.00
C6     C     0.65655   0.82844   0.80699   0.00000  Uiso   1.00
C7     C     0.66757   0.90905   0.75647   0.00000  Uiso   1.00
C8     C     0.65673   0.99010   0.80648   0.00000  Uiso   1.00
C9     C     0.64632   0.13945   0.85473   0.00000  Uiso   1.00
C10    C     0.68065   0.68427   0.90134   0.00000  Uiso   1.00
C11    C     0.71193   0.64369   0.93017   0.00000  Uiso   1.00
C12    C     0.72138   0.60338   0.05964   0.00000  Uiso   1.00
C13    C     0.74838   0.52889   0.25438   0.00000  Uiso   1.00
C14    C     0.62648   0.73284   0.94509   0.00000  Uiso   1.00
C15    C     0.61107   0.68474   0.81043   0.00000  Uiso   1.00
C16    C     0.57970   0.64460   0.78182   0.00000  Uiso   1.00
C17    C     0.57017   0.60405   0.65256   0.00000  Uiso   1.00
C18    C     0.63545   0.82878   0.90403   0.00000  Uiso   1.00
C19    C     0.62459   0.90973   0.95414   0.00000  Uiso   1.00
C20    C     0.63559   0.99044   0.90370   0.00000  Uiso   1.00
C21    C     0.65955   0.68461   0.99838   0.00000  Uiso   1.00
C22    C     0.66895   0.64436   0.12784   0.00000  Uiso   1.00
C23    C     0.70024   0.60372   0.15686   0.00000  Uiso   1.00
H24    H     0.68176   0.73198   0.69087   0.00000  Uiso   1.00
H25    H     0.63902   0.64368   0.50907   0.00000  Uiso   1.00
H26    H     0.68391   0.90877   0.68138   0.00000  Uiso   1.00
H27    H     0.72826   0.64344   0.85505   0.00000  Uiso   1.00
H28    H     0.58232   0.54597   0.35028   0.00000  Uiso   1.00
H29    H     0.67698   0.10492   0.71364   0.00000  Uiso   1.00
H30    H     0.77050   0.54543   0.07986   0.00000  Uiso   1.00
H31    H     0.61005   0.73311   0.02065   0.00000  Uiso   1.00
H32    H     0.56338   0.64487   0.85694   0.00000  Uiso   1.00
H33    H     0.60827   0.90996   0.02924   0.00000  Uiso   1.00
H34    H     0.65262   0.64464   0.20291   0.00000  Uiso   1.00
H35    H     0.52093   0.54693   0.63262   0.00000  Uiso   1.00
H36    H     0.61559   0.10589   0.99598   0.00000  Uiso   1.00
H37    H     0.70911   0.54640   0.36220   0.00000  Uiso   1.00
O38    O     0.52221   0.48841   0.37779   0.00000  Uiso   1.00
O39    O     0.64640   0.22173   0.85452   0.00000  Uiso   1.00
O40    O     0.76910   0.48770   0.33498   0.00000  Uiso   1.00
N41    N     0.57428   0.55829   0.43921   0.00000  Uiso   1.00
N42    N     0.66278   0.08087   0.77891   0.00000  Uiso   1.00
N43    N     0.75022   0.55782   0.12131   0.00000  Uiso   1.00
N44    N     0.54125   0.55881   0.59113   0.00000  Uiso   1.00
N45    N     0.62974   0.08139   0.93083   0.00000  Uiso   1.00
N46    N     0.71718   0.55834   0.27323   0.00000  Uiso   1.00
C47    C     0.16533   0.23223   0.76642   0.00000  Uiso   1.00
C48    C     0.13217   0.18441   0.71338   0.00000  Uiso   1.00
C49    C     0.12268   0.14392   0.58415   0.00000  Uiso   1.00
C50    C     0.09131   0.10372   0.55534   0.00000  Uiso   1.00
C51    C     0.04302   0.02946   0.45819   0.00000  Uiso   1.00
C52    C     0.15655   0.32844   0.80699   0.00000  Uiso   1.00
C53    C     0.16757   0.40905   0.75647   0.00000  Uiso   1.00
C54    C     0.15673   0.49010   0.80648   0.00000  Uiso   1.00
C55    C     0.14632   0.63945   0.85473   0.00000  Uiso   1.00
C56    C     0.18065   0.18427   0.90134   0.00000  Uiso   1.00
C57    C     0.21193   0.14369   0.93017   0.00000  Uiso   1.00
C58    C     0.22138   0.10338   0.05964   0.00000  Uiso   1.00
C59    C     0.24838   0.02889   0.25438   0.00000  Uiso   1.00
C60    C     0.12648   0.23284   0.94509   0.00000  Uiso   1.00
C61    C     0.11107   0.18474   0.81043   0.00000  Uiso   1.00
C62    C     0.07970   0.14460   0.78182   0.00000  Uiso   1.00
C63    C     0.07017   0.10405   0.65256   0.00000  Uiso   1.00
C64    C     0.13545   0.32878   0.90403   0.00000  Uiso   1.00
C65    C     0.12459   0.40973   0.95414   0.00000  Uiso   1.00
C66    C     0.13559   0.49044   0.90370   0.00000  Uiso   1.00
C67    C     0.15955   0.18461   0.99838   0.00000  Uiso   1.00
C68    C     0.16895   0.14436   0.12784   0.00000  Uiso   1.00
C69    C     0.20024   0.10372   0.15686   0.00000  Uiso   1.00
H70    H     0.18176   0.23198   0.69087   0.00000  Uiso   1.00
H71    H     0.13902   0.14368   0.50907   0.00000  Uiso   1.00
H72    H     0.18391   0.40877   0.68138   0.00000  Uiso   1.00
H73    H     0.22826   0.14344   0.85505   0.00000  Uiso   1.00
H74    H     0.08232   0.04597   0.35028   0.00000  Uiso   1.00
H75    H     0.17698   0.60492   0.71364   0.00000  Uiso   1.00
H76    H     0.27050   0.04543   0.07986   0.00000  Uiso   1.00
H77    H     0.11005   0.23311   0.02065   0.00000  Uiso   1.00
H78    H     0.06338   0.14487   0.85694   0.00000  Uiso   1.00
H79    H     0.10827   0.40996   0.02924   0.00000  Uiso   1.00
H80    H     0.15262   0.14464   0.20291   0.00000  Uiso   1.00
H81    H     0.02093   0.04693   0.63262   0.00000  Uiso   1.00
H82    H     0.11559   0.60589   0.99598   0.00000  Uiso   1.00
H83    H     0.20911   0.04640   0.36220   0.00000  Uiso   1.00
O84    O     0.02221   0.98841   0.37779   0.00000  Uiso   1.00
O85    O     0.14640   0.72173   0.85452   0.00000  Uiso   1.00
O86    O     0.26910   0.98770   0.33498   0.00000  Uiso   1.00
N87    N     0.07428   0.05829   0.43921   0.00000  Uiso   1.00
N88    N     0.16278   0.58087   0.77891   0.00000  Uiso   1.00
N89    N     0.25022   0.05782   0.12131   0.00000  Uiso   1.00
N90    N     0.04125   0.05881   0.59113   0.00000  Uiso   1.00
N91    N     0.12974   0.58139   0.93083   0.00000  Uiso   1.00
N92    N     0.21718   0.05834   0.27323   0.00000  Uiso   1.00
C93    C     0.33467   0.73223   0.73358   0.00000  Uiso   1.00
C94    C     0.36783   0.68441   0.78662   0.00000  Uiso   1.00
C95    C     0.37732   0.64392   0.91585   0.00000  Uiso   1.00
C96    C     0.40869   0.60372   0.94466   0.00000  Uiso   1.00
C97    C     0.45698   0.52946   0.04181   0.00000  Uiso   1.00
C98    C     0.34345   0.82844   0.69301   0.00000  Uiso   1.00
C99    C     0.33243   0.90905   0.74353   0.00000  Uiso   1.00
C100   C     0.34327   0.99010   0.69352   0.00000  Uiso   1.00
C101   C     0.35368   0.13945   0.64527   0.00000  Uiso   1.00
C102   C     0.31935   0.68427   0.59866   0.00000  Uiso   1.00
C103   C     0.28807   0.64369   0.56983   0.00000  Uiso   1.00
C104   C     0.27862   0.60338   0.44036   0.00000  Uiso   1.00
C105   C     0.25162   0.52889   0.24562   0.00000  Uiso   1.00
C106   C     0.37352   0.73284   0.55491   0.00000  Uiso   1.00
C107   C     0.38893   0.68474   0.68957   0.00000  Uiso   1.00
C108   C     0.42030   0.64460   0.71818   0.00000  Uiso   1.00
C109   C     0.42983   0.60405   0.84744   0.00000  Uiso   1.00
C110   C     0.36455   0.82878   0.59597   0.00000  Uiso   1.00
C111   C     0.37541   0.90973   0.54586   0.00000  Uiso   1.00
C112   C     0.36441   0.99044   0.59630   0.00000  Uiso   1.00
C113   C     0.34045   0.68461   0.50162   0.00000  Uiso   1.00
C114   C     0.33105   0.64436   0.37216   0.00000  Uiso   1.00
C115   C     0.29976   0.60372   0.34314   0.00000  Uiso   1.00
H116   H     0.31824   0.73198   0.80913   0.00000  Uiso   1.00
H117   H     0.36098   0.64368   0.99093   0.00000  Uiso   1.00
H118   H     0.31609   0.90877   0.81862   0.00000  Uiso   1.00
H119   H     0.27174   0.64344   0.64495   0.00000  Uiso   1.00
H120   H     0.41768   0.54597   0.14972   0.00000  Uiso   1.00
H121   H     0.32302   0.10492   0.78636   0.00000  Uiso   1.00
H122   H     0.22950   0.54543   0.42014   0.00000  Uiso   1.00
H123   H     0.38995   0.73311   0.47935   0.00000  Uiso   1.00
H124   H     0.43662   0.64487   0.64306   0.00000  Uiso   1.00
H125   H     0.39173   0.90996   0.47076   0.00000  Uiso   1.00
H126   H     0.34738   0.64464   0.29709   0.00000  Uiso   1.00
H127   H     0.47907   0.54693   0.86738   0.00000  Uiso   1.00
H128   H     0.38441   0.10589   0.50402   0.00000  Uiso   1.00
H129   H     0.29089   0.54640   0.13780   0.00000  Uiso   1.00
O130   O     0.47779   0.48841   0.12221   0.00000  Uiso   1.00
O131   O     0.35360   0.22173   0.64548   0.00000  Uiso   1.00
O132   O     0.23090   0.48770   0.16502   0.00000  Uiso   1.00
N133   N     0.42572   0.55829   0.06079   0.00000  Uiso   1.00
N134   N     0.33722   0.08087   0.72109   0.00000  Uiso   1.00
N135   N     0.24978   0.55782   0.37869   0.00000  Uiso   1.00
N136   N     0.45875   0.55881   0.90887   0.00000  Uiso   1.00
N137   N     0.37026   0.08139   0.56917   0.00000  Uiso   1.00
N138   N     0.28282   0.55834   0.22677   0.00000  Uiso   1.00
C139   C     0.83467   0.23223   0.73358   0.00000  Uiso   1.00
C140   C     0.86783   0.18441   0.78662   0.00000  Uiso   1.00
C141   C     0.87732   0.14392   0.91585   0.00000  Uiso   1.00
C142   C     0.90869   0.10372   0.94466   0.00000  Uiso   1.00
C143   C     0.95698   0.02946   0.04181   0.00000  Uiso   1.00
C144   C     0.84345   0.32844   0.69301   0.00000  Uiso   1.00
C145   C     0.83243   0.40905   0.74353   0.00000  Uiso   1.00
C146   C     0.84327   0.49010   0.69352   0.00000  Uiso   1.00
C147   C     0.85368   0.63945   0.64527   0.00000  Uiso   1.00
C148   C     0.81935   0.18427   0.59866   0.00000  Uiso   1.00
C149   C     0.78807   0.14369   0.56983   0.00000  Uiso   1.00
C150   C     0.77862   0.10338   0.44036   0.00000  Uiso   1.00
C151   C     0.75162   0.02889   0.24562   0.00000  Uiso   1.00
C152   C     0.87352   0.23284   0.55491   0.00000  Uiso   1.00
C153   C     0.88893   0.18474   0.68957   0.00000  Uiso   1.00
C154   C     0.92030   0.14460   0.71818   0.00000  Uiso   1.00
C155   C     0.92983   0.10405   0.84744   0.00000  Uiso   1.00
C156   C     0.86455   0.32878   0.59597   0.00000  Uiso   1.00
C157   C     0.87541   0.40973   0.54586   0.00000  Uiso   1.00
C158   C     0.86441   0.49044   0.59630   0.00000  Uiso   1.00
C159   C     0.84045   0.18461   0.50162   0.00000  Uiso   1.00
C160   C     0.83105   0.14436   0.37216   0.00000  Uiso   1.00
C161   C     0.79976   0.10372   0.34314   0.00000  Uiso   1.00
H162   H     0.81824   0.23198   0.80913   0.00000  Uiso   1.00
H163   H     0.86098   0.14368   0.99093   0.00000  Uiso   1.00
H164   H     0.81609   0.40877   0.81862   0.00000  Uiso   1.00
H165   H     0.77174   0.14344   0.64495   0.00000  Uiso   1.00
H166   H     0.91768   0.04597   0.14972   0.00000  Uiso   1.00
H167   H     0.82302   0.60492   0.78636   0.00000  Uiso   1.00
H168   H     0.72950   0.04543   0.42014   0.00000  Uiso   1.00
H169   H     0.88995   0.23311   0.47935   0.00000  Uiso   1.00
H170   H     0.93662   0.14487   0.64306   0.00000  Uiso   1.00
H171   H     0.89173   0.40996   0.47076   0.00000  Uiso   1.00
H172   H     0.84738   0.14464   0.29709   0.00000  Uiso   1.00
H173   H     0.97907   0.04693   0.86738   0.00000  Uiso   1.00
H174   H     0.88441   0.60589   0.50402   0.00000  Uiso   1.00
H175   H     0.79089   0.04640   0.13780   0.00000  Uiso   1.00
O176   O     0.97779   0.98841   0.12221   0.00000  Uiso   1.00
O177   O     0.85360   0.72173   0.64548   0.00000  Uiso   1.00
O178   O     0.73090   0.98770   0.16502   0.00000  Uiso   1.00
N179   N     0.92572   0.05829   0.06079   0.00000  Uiso   1.00
N180   N     0.83722   0.58087   0.72109   0.00000  Uiso   1.00
N181   N     0.74978   0.05782   0.37869   0.00000  Uiso   1.00
N182   N     0.95875   0.05881   0.90887   0.00000  Uiso   1.00
N183   N     0.87026   0.58139   0.56917   0.00000  Uiso   1.00
N184   N     0.78282   0.05834   0.22677   0.00000  Uiso   1.00
C185   C     0.33467   0.26777   0.23358   0.00000  Uiso   1.00
C186   C     0.36783   0.31559   0.28662   0.00000  Uiso   1.00
C187   C     0.37732   0.35608   0.41585   0.00000  Uiso   1.00
C188   C     0.40869   0.39628   0.44466   0.00000  Uiso   1.00
C189   C     0.45698   0.47054   0.54181   0.00000  Uiso   1.00
C190   C     0.34345   0.17156   0.19301   0.00000  Uiso   1.00
C191   C     0.33243   0.09095   0.24353   0.00000  Uiso   1.00
C192   C     0.34327   0.00990   0.19352   0.00000  Uiso   1.00
C193   C     0.35368   0.86055   0.14527   0.00000  Uiso   1.00
C194   C     0.31935   0.31573   0.09866   0.00000  Uiso   1.00
C195   C     0.28807   0.35631   0.06983   0.00000  Uiso   1.00
C196   C     0.27862   0.39662   0.94036   0.00000  Uiso   1.00
C197   C     0.25162   0.47111   0.74562   0.00000  Uiso   1.00
C198   C     0.37352   0.26716   0.05491   0.00000  Uiso   1.00
C199   C     0.38893   0.31526   0.18957   0.00000  Uiso   1.00
C200   C     0.42030   0.35540   0.21818   0.00000  Uiso   1.00
C201   C     0.42983   0.39595   0.34744   0.00000  Uiso   1.00
C202   C     0.36455   0.17122   0.09597   0.00000  Uiso   1.00
C203   C     0.37541   0.09027   0.04586   0.00000  Uiso   1.00
C204   C     0.36441   0.00956   0.09630   0.00000  Uiso   1.00
C205   C     0.34045   0.31539   0.00162   0.00000  Uiso   1.00
C206   C     0.33105   0.35564   0.87216   0.00000  Uiso   1.00
C207   C     0.29976   0.39628   0.84314   0.00000  Uiso   1.00
H208   H     0.31824   0.26802   0.30913   0.00000  Uiso   1.00
H209   H     0.36098   0.35632   0.49093   0.00000  Uiso   1.00
H210   H     0.31609   0.09123   0.31862   0.00000  Uiso   1.00
H211   H     0.27174   0.35656   0.14495   0.00000  Uiso   1.00
H212   H     0.41768   0.45403   0.64972   0.00000  Uiso   1.00
H213   H     0.32302   0.89508   0.28636   0.00000  Uiso   1.00
H214   H     0.22950   0.45457   0.92014   0.00000  Uiso   1.00
H215   H     0.38995   0.26689   0.97935   0.00000  Uiso   1.00
H216   H     0.43662   0.35513   0.14306   0.00000  Uiso   1.00
H217   H     0.39173   0.09004   0.97076   0.00000  Uiso   1.00
H218   H     0.34738   0.35536   0.79709   0.00000  Uiso   1.00
H219   H     0.47907   0.45307   0.36738   0.00000  Uiso   1.00
H220   H     0.38441   0.89411   0.00402   0.00000  Uiso   1.00
H221   H     0.29089   0.45360   0.63780   0.00000  Uiso   1.00
O222   O     0.47779   0.51159   0.62221   0.00000  Uiso   1.00
O223   O     0.35360   0.77827   0.14548   0.00000  Uiso   1.00
O224   O     0.23090   0.51230   0.66502   0.00000  Uiso   1.00
N225   N     0.42572   0.44171   0.56079   0.00000  Uiso   1.00
N226   N     0.33722   0.91913   0.22109   0.00000  Uiso   1.00
N227   N     0.24978   0.44218   0.87869   0.00000  Uiso   1.00
N228   N     0.45875   0.44119   0.40887   0.00000  Uiso   1.00
N229   N     0.37026   0.91861   0.06917   0.00000  Uiso   1.00
N230   N     0.28282   0.44166   0.72677   0.00000  Uiso   1.00
C231   C     0.83467   0.76777   0.23358   0.00000  Uiso   1.00
C232   C     0.86783   0.81559   0.28662   0.00000  Uiso   1.00
C233   C     0.87732   0.85608   0.41585   0.00000  Uiso   1.00
C234   C     0.90869   0.89628   0.44466   0.00000  Uiso   1.00
C235   C     0.95698   0.97054   0.54181   0.00000  Uiso   1.00
C236   C     0.84345   0.67156   0.19301   0.00000  Uiso   1.00
C237   C     0.83243   0.59095   0.24353   0.00000  Uiso   1.00
C238   C     0.84327   0.50990   0.19352   0.00000  Uiso   1.00
C239   C     0.85368   0.36055   0.14527   0.00000  Uiso   1.00
C240   C     0.81935   0.81573   0.09866   0.00000  Uiso   1.00
C241   C     0.78807   0.85631   0.06983   0.00000  Uiso   1.00
C242   C     0.77862   0.89662   0.94036   0.00000  Uiso   1.00
C243   C     0.75162   0.97111   0.74562   0.00000  Uiso   1.00
C244   C     0.87352   0.76716   0.05491   0.00000  Uiso   1.00
C245   C     0.88893   0.81526   0.18957   0.00000  Uiso   1.00
C246   C     0.92030   0.85540   0.21818   0.00000  Uiso   1.00
C247   C     0.92983   0.89595   0.34744   0.00000  Uiso   1.00
C248   C     0.86455   0.67122   0.09597   0.00000  Uiso   1.00
C249   C     0.87541   0.59027   0.04586   0.00000  Uiso   1.00
C250   C     0.86441   0.50956   0.09630   0.00000  Uiso   1.00
C251   C     0.84045   0.81539   0.00162   0.00000  Uiso   1.00
C252   C     0.83105   0.85564   0.87216   0.00000  Uiso   1.00
C253   C     0.79976   0.89628   0.84314   0.00000  Uiso   1.00
H254   H     0.81824   0.76802   0.30913   0.00000  Uiso   1.00
H255   H     0.86098   0.85632   0.49093   0.00000  Uiso   1.00
H256   H     0.81609   0.59123   0.31862   0.00000  Uiso   1.00
H257   H     0.77174   0.85656   0.14495   0.00000  Uiso   1.00
H258   H     0.91768   0.95403   0.64972   0.00000  Uiso   1.00
H259   H     0.82302   0.39508   0.28636   0.00000  Uiso   1.00
H260   H     0.72950   0.95457   0.92014   0.00000  Uiso   1.00
H261   H     0.88995   0.76689   0.97935   0.00000  Uiso   1.00
H262   H     0.93662   0.85513   0.14306   0.00000  Uiso   1.00
H263   H     0.89173   0.59004   0.97076   0.00000  Uiso   1.00
H264   H     0.84738   0.85536   0.79709   0.00000  Uiso   1.00
H265   H     0.97907   0.95307   0.36738   0.00000  Uiso   1.00
H266   H     0.88441   0.39411   0.00402   0.00000  Uiso   1.00
H267   H     0.79089   0.95360   0.63780   0.00000  Uiso   1.00
O268   O     0.97779   0.01159   0.62221   0.00000  Uiso   1.00
O269   O     0.85360   0.27827   0.14548   0.00000  Uiso   1.00
O270   O     0.73090   0.01230   0.66502   0.00000  Uiso   1.00
N271   N     0.92572   0.94171   0.56079   0.00000  Uiso   1.00
N272   N     0.83722   0.41913   0.22109   0.00000  Uiso   1.00
N273   N     0.74978   0.94218   0.87869   0.00000  Uiso   1.00
N274   N     0.95875   0.94119   0.40887   0.00000  Uiso   1.00
N275   N     0.87026   0.41861   0.06917   0.00000  Uiso   1.00
N276   N     0.78282   0.94166   0.72677   0.00000  Uiso   1.00
C277   C     0.66533   0.26777   0.26642   0.00000  Uiso   1.00
C278   C     0.63217   0.31559   0.21338   0.00000  Uiso   1.00
C279   C     0.62268   0.35608   0.08415   0.00000  Uiso   1.00
C280   C     0.59131   0.39628   0.05534   0.00000  Uiso   1.00
C281   C     0.54302   0.47054   0.95819   0.00000  Uiso   1.00
C282   C     0.65655   0.17156   0.30699   0.00000  Uiso   1.00
C283   C     0.66757   0.09095   0.25647   0.00000  Uiso   1.00
C284   C     0.65673   0.00990   0.30648   0.00000  Uiso   1.00
C285   C     0.64632   0.86055   0.35473   0.00000  Uiso   1.00
C286   C     0.68065   0.31573   0.40134   0.00000  Uiso   1.00
C287   C     0.71193   0.35631   0.43017   0.00000  Uiso   1.00
C288   C     0.72138   0.39662   0.55964   0.00000  Uiso   1.00
C289   C     0.74838   0.47111   0.75438   0.00000  Uiso   1.00
C290   C     0.62648   0.26716   0.44509   0.00000  Uiso   1.00
C291   C     0.61107   0.31526   0.31043   0.00000  Uiso   1.00
C292   C     0.57970   0.35540   0.28182   0.00000  Uiso   1.00
C293   C     0.57017   0.39595   0.15256   0.00000  Uiso   1.00
C294   C     0.63545   0.17122   0.40403   0.00000  Uiso   1.00
C295   C     0.62459   0.09027   0.45414   0.00000  Uiso   1.00
C296   C     0.63559   0.00956   0.40370   0.00000  Uiso   1.00
C297   C     0.65955   0.31539   0.49838   0.00000  Uiso   1.00
C298   C     0.66895   0.35564   0.62784   0.00000  Uiso   1.00
C299   C     0.70024   0.39628   0.65686   0.00000  Uiso   1.00
H300   H     0.68176   0.26802   0.19087   0.00000  Uiso   1.00
H301   H     0.63902   0.35632   0.00907   0.00000  Uiso   1.00
H302   H     0.68391   0.09123   0.18138   0.00000  Uiso   1.00
H303   H     0.72826   0.35656   0.35505   0.00000  Uiso   1.00
H304   H     0.58232   0.45403   0.85028   0.00000  Uiso   1.00
H305   H     0.67698   0.89508   0.21364   0.00000  Uiso   1.00
H306   H     0.77050   0.45457   0.57986   0.00000  Uiso   1.00
H307   H     0.61005   0.26689   0.52065   0.00000  Uiso   1.00
H308   H     0.56338   0.35513   0.35694   0.00000  Uiso   1.00
H309   H     0.60827   0.09004   0.52924   0.00000  Uiso   1.00
H310   H     0.65262   0.35536   0.70291   0.00000  Uiso   1.00
H311   H     0.52093   0.45307   0.13262   0.00000  Uiso   1.00
H312   H     0.61559   0.89411   0.49598   0.00000  Uiso   1.00
H313   H     0.70911   0.45360   0.86220   0.00000  Uiso   1.00
O314   O     0.52221   0.51159   0.87779   0.00000  Uiso   1.00
O315   O     0.64640   0.77827   0.35452   0.00000  Uiso   1.00
O316   O     0.76910   0.51230   0.83498   0.00000  Uiso   1.00
N317   N     0.57428   0.44171   0.93921   0.00000  Uiso   1.00
N318   N     0.66278   0.91913   0.27891   0.00000  Uiso   1.00
N319   N     0.75022   0.44218   0.62131   0.00000  Uiso   1.00
N320   N     0.54125   0.44119   0.09113   0.00000  Uiso   1.00
N321   N     0.62974   0.91861   0.43083   0.00000  Uiso   1.00
N322   N     0.71718   0.44166   0.77323   0.00000  Uiso   1.00
C323   C     0.16533   0.76777   0.26642   0.00000  Uiso   1.00
C324   C     0.13217   0.81559   0.21338   0.00000  Uiso   1.00
C325   C     0.12268   0.85608   0.08415   0.00000  Uiso   1.00
C326   C     0.09131   0.89628   0.05534   0.00000  Uiso   1.00
C327   C     0.04302   0.97054   0.95819   0.00000  Uiso   1.00
C328   C     0.15655   0.67156   0.30699   0.00000  Uiso   1.00
C329   C     0.16757   0.59095   0.25647   0.00000  Uiso   1.00
C330   C     0.15673   0.50990   0.30648   0.00000  Uiso   1.00
C331   C     0.14632   0.36055   0.35473   0.00000  Uiso   1.00
C332   C     0.18065   0.81573   0.40134   0.00000  Uiso   1.00
C333   C     0.21193   0.85631   0.43017   0.00000  Uiso   1.00
C334   C     0.22138   0.89662   0.55964   0.00000  Uiso   1.00
C335   C     0.24838   0.97111   0.75438   0.00000  Uiso   1.00
C336   C     0.12648   0.76716   0.44509   0.00000  Uiso   1.00
C337   C     0.11107   0.81526   0.31043   0.00000  Uiso   1.00
C338   C     0.07970   0.85540   0.28182   0.00000  Uiso   1.00
C339   C     0.07017   0.89595   0.15256   0.00000  Uiso   1.00
C340   C     0.13545   0.67122   0.40403   0.00000  Uiso   1.00
C341   C     0.12459   0.59027   0.45414   0.00000  Uiso   1.00
C342   C     0.13559   0.50956   0.40370   0.00000  Uiso   1.00
C343   C     0.15955   0.81539   0.49838   0.00000  Uiso   1.00
C344   C     0.16895   0.85564   0.62784   0.00000  Uiso   1.00
C345   C     0.20024   0.89628   0.65686   0.00000  Uiso   1.00
H346   H     0.18176   0.76802   0.19087   0.00000  Uiso   1.00
H347   H     0.13902   0.85632   0.00907   0.00000  Uiso   1.00
H348   H     0.18391   0.59123   0.18138   0.00000  Uiso   1.00
H349   H     0.22826   0.85656   0.35505   0.00000  Uiso   1.00
H350   H     0.08232   0.95403   0.85028   0.00000  Uiso   1.00
H351   H     0.17698   0.39508   0.21364   0.00000  Uiso   1.00
H352   H     0.27050   0.95457   0.57986   0.00000  Uiso   1.00
H353   H     0.11005   0.76689   0.52065   0.00000  Uiso   1.00
H354   H     0.06338   0.85513   0.35694   0.00000  Uiso   1.00
H355   H     0.10827   0.59004   0.52924   0.00000  Uiso   1.00
H356   H     0.15262   0.85536   0.70291   0.00000  Uiso   1.00
H357   H     0.02093   0.95307   0.13262   0.00000  Uiso   1.00
H358   H     0.11559   0.39411   0.49598   0.00000  Uiso   1.00
H359   H     0.20911   0.95360   0.86220   0.00000  Uiso   1.00
O360   O     0.02221   0.01159   0.87779   0.00000  Uiso   1.00
O361   O     0.14640   0.27827   0.35452   0.00000  Uiso   1.00
O362   O     0.26910   0.01230   0.83498   0.00000  Uiso   1.00
N363   N     0.07428   0.94171   0.93921   0.00000  Uiso   1.00
N364   N     0.16278   0.41913   0.27891   0.00000  Uiso   1.00
N365   N     0.25022   0.94218   0.62131   0.00000  Uiso   1.00
N366   N     0.04125   0.94119   0.09113   0.00000  Uiso   1.00
N367   N     0.12974   0.41861   0.43083   0.00000  Uiso   1.00
N368   N     0.21718   0.94166   0.77323   0.00000  Uiso   1.00
