data_job_05739
_audit_creation_date              2018-12-19
_audit_creation_method            'Materials Studio'
_symmetry_space_group_name_H-M    'P1'
_symmetry_Int_Tables_number       1
_symmetry_cell_setting            triclinic
loop_
_symmetry_equiv_pos_as_xyz
  x,y,z
_cell_length_a                    13.2133
_cell_length_b                    13.2133
_cell_length_c                    30.5277
_cell_angle_alpha                 90.0000
_cell_angle_beta                  90.0000
_cell_angle_gamma                 90.0000
loop_
_atom_site_label
_atom_site_type_symbol
_atom_site_fract_x
_atom_site_fract_y
_atom_site_fract_z
_atom_site_U_iso_or_equiv
_atom_site_adp_type
_atom_site_occupancy
C1     C     0.12356   0.35257   0.39511   0.00000  Uiso   1.00
C2     C     0.12865   0.40181   0.34999   0.00000  Uiso   1.00
C3     C     0.17310   0.49440   0.34047   0.00000  Uiso   1.00
C4     C     0.16983   0.52627   0.29716   0.00000  Uiso   1.00
C5     C     0.18469   0.61169   0.23205   0.00000  Uiso   1.00
C6     C     0.01168   0.33331   0.40409   0.00000  Uiso   1.00
C7     C     0.95778   0.36829   0.44005   0.00000  Uiso   1.00
C8     C     0.85605   0.34249   0.44228   0.00000  Uiso   1.00
C9     C     0.68933   0.32149   0.46118   0.00000  Uiso   1.00
C10    C     0.17222   0.24855   0.39015   0.00000  Uiso   1.00
C11    C     0.25329   0.21224   0.41441   0.00000  Uiso   1.00
C12    C     0.28671   0.11506   0.40491   0.00000  Uiso   1.00
C13    C     0.36925   0.96246   0.40218   0.00000  Uiso   1.00
C14    C     0.03873   0.24454   0.33513   0.00000  Uiso   1.00
C15    C     0.08257   0.34314   0.31741   0.00000  Uiso   1.00
C16    C     0.07923   0.37488   0.27410   0.00000  Uiso   1.00
C17    C     0.12367   0.46749   0.26451   0.00000  Uiso   1.00
C18    C     0.96560   0.27464   0.37151   0.00000  Uiso   1.00
C19    C     0.86392   0.24877   0.37368   0.00000  Uiso   1.00
C20    C     0.80989   0.28370   0.40964   0.00000  Uiso   1.00
C21    C     0.12614   0.18987   0.35757   0.00000  Uiso   1.00
C22    C     0.15943   0.09273   0.34804   0.00000  Uiso   1.00
C23    C     0.24054   0.05628   0.37227   0.00000  Uiso   1.00
H24    H     0.15943   0.39825   0.42048   0.00000  Uiso   1.00
H25    H     0.20874   0.53979   0.36569   0.00000  Uiso   1.00
H26    H     0.99347   0.41369   0.46527   0.00000  Uiso   1.00
H27    H     0.28893   0.25767   0.43962   0.00000  Uiso   1.00
H28    H     0.24305   0.67085   0.29058   0.00000  Uiso   1.00
H29    H     0.78914   0.40494   0.50054   0.00000  Uiso   1.00
H30    H     0.41219   0.07593   0.44647   0.00000  Uiso   1.00
H31    H     0.00285   0.19886   0.30976   0.00000  Uiso   1.00
H32    H     0.04357   0.32946   0.24889   0.00000  Uiso   1.00
H33    H     0.82829   0.20336   0.34847   0.00000  Uiso   1.00
H34    H     0.12375   0.04734   0.32282   0.00000  Uiso   1.00
H35    H     0.10899   0.50014   0.19578   0.00000  Uiso   1.00
H36    H     0.65508   0.23422   0.40575   0.00000  Uiso   1.00
H37    H     0.27812   0.90522   0.35167   0.00000  Uiso   1.00
O38    O     0.20560   0.67502   0.20514   0.00000  Uiso   1.00
O39    O     0.61010   0.32613   0.48061   0.00000  Uiso   1.00
O40    O     0.42752   0.89450   0.40966   0.00000  Uiso   1.00
N41    N     0.20593   0.61274   0.27662   0.00000  Uiso   1.00
N42    N     0.78155   0.36414   0.47292   0.00000  Uiso   1.00
N43    N     0.36402   0.05654   0.42238   0.00000  Uiso   1.00
N44    N     0.13379   0.52088   0.22561   0.00000  Uiso   1.00
N45    N     0.70941   0.27228   0.42191   0.00000  Uiso   1.00
N46    N     0.29189   0.96468   0.37136   0.00000  Uiso   1.00
C47    C     0.87644   0.64743   0.39511   0.00000  Uiso   1.00
C48    C     0.87135   0.59819   0.34999   0.00000  Uiso   1.00
C49    C     0.82690   0.50560   0.34047   0.00000  Uiso   1.00
C50    C     0.83017   0.47373   0.29716   0.00000  Uiso   1.00
C51    C     0.81531   0.38831   0.23205   0.00000  Uiso   1.00
C52    C     0.98832   0.66669   0.40409   0.00000  Uiso   1.00
C53    C     0.04222   0.63171   0.44005   0.00000  Uiso   1.00
C54    C     0.14395   0.65751   0.44228   0.00000  Uiso   1.00
C55    C     0.31067   0.67851   0.46118   0.00000  Uiso   1.00
C56    C     0.82778   0.75145   0.39015   0.00000  Uiso   1.00
C57    C     0.74671   0.78776   0.41441   0.00000  Uiso   1.00
C58    C     0.71329   0.88494   0.40491   0.00000  Uiso   1.00
C59    C     0.63075   0.03754   0.40218   0.00000  Uiso   1.00
C60    C     0.96127   0.75546   0.33513   0.00000  Uiso   1.00
C61    C     0.91743   0.65686   0.31741   0.00000  Uiso   1.00
C62    C     0.92077   0.62512   0.27410   0.00000  Uiso   1.00
C63    C     0.87633   0.53251   0.26451   0.00000  Uiso   1.00
C64    C     0.03440   0.72536   0.37151   0.00000  Uiso   1.00
C65    C     0.13608   0.75123   0.37368   0.00000  Uiso   1.00
C66    C     0.19011   0.71630   0.40964   0.00000  Uiso   1.00
C67    C     0.87386   0.81013   0.35757   0.00000  Uiso   1.00
C68    C     0.84057   0.90727   0.34804   0.00000  Uiso   1.00
C69    C     0.75946   0.94372   0.37227   0.00000  Uiso   1.00
H70    H     0.84057   0.60175   0.42048   0.00000  Uiso   1.00
H71    H     0.79126   0.46021   0.36569   0.00000  Uiso   1.00
H72    H     0.00653   0.58631   0.46527   0.00000  Uiso   1.00
H73    H     0.71107   0.74233   0.43962   0.00000  Uiso   1.00
H74    H     0.75695   0.32915   0.29058   0.00000  Uiso   1.00
H75    H     0.21086   0.59506   0.50054   0.00000  Uiso   1.00
H76    H     0.58781   0.92407   0.44647   0.00000  Uiso   1.00
H77    H     0.99715   0.80114   0.30976   0.00000  Uiso   1.00
H78    H     0.95643   0.67054   0.24889   0.00000  Uiso   1.00
H79    H     0.17171   0.79664   0.34847   0.00000  Uiso   1.00
H80    H     0.87625   0.95266   0.32282   0.00000  Uiso   1.00
H81    H     0.89101   0.49986   0.19578   0.00000  Uiso   1.00
H82    H     0.34492   0.76578   0.40575   0.00000  Uiso   1.00
H83    H     0.72188   0.09478   0.35167   0.00000  Uiso   1.00
O84    O     0.79440   0.32498   0.20514   0.00000  Uiso   1.00
O85    O     0.38990   0.67387   0.48061   0.00000  Uiso   1.00
O86    O     0.57248   0.10550   0.40966   0.00000  Uiso   1.00
N87    N     0.79407   0.38726   0.27662   0.00000  Uiso   1.00
N88    N     0.21845   0.63586   0.47292   0.00000  Uiso   1.00
N89    N     0.63598   0.94346   0.42238   0.00000  Uiso   1.00
N90    N     0.86621   0.47912   0.22561   0.00000  Uiso   1.00
N91    N     0.29059   0.72772   0.42191   0.00000  Uiso   1.00
N92    N     0.70811   0.03532   0.37136   0.00000  Uiso   1.00
C93    C     0.14743   0.62356   0.89511   0.00000  Uiso   1.00
C94    C     0.09819   0.62865   0.84999   0.00000  Uiso   1.00
C95    C     0.00560   0.67310   0.84047   0.00000  Uiso   1.00
C96    C     0.97373   0.66983   0.79716   0.00000  Uiso   1.00
C97    C     0.88831   0.68469   0.73205   0.00000  Uiso   1.00
C98    C     0.16669   0.51168   0.90409   0.00000  Uiso   1.00
C99    C     0.13171   0.45778   0.94005   0.00000  Uiso   1.00
C100   C     0.15751   0.35605   0.94228   0.00000  Uiso   1.00
C101   C     0.17851   0.18933   0.96118   0.00000  Uiso   1.00
C102   C     0.25145   0.67222   0.89015   0.00000  Uiso   1.00
C103   C     0.28776   0.75329   0.91441   0.00000  Uiso   1.00
C104   C     0.38494   0.78671   0.90491   0.00000  Uiso   1.00
C105   C     0.53754   0.86925   0.90218   0.00000  Uiso   1.00
C106   C     0.25546   0.53873   0.83513   0.00000  Uiso   1.00
C107   C     0.15686   0.58257   0.81741   0.00000  Uiso   1.00
C108   C     0.12512   0.57923   0.77410   0.00000  Uiso   1.00
C109   C     0.03251   0.62367   0.76451   0.00000  Uiso   1.00
C110   C     0.22536   0.46560   0.87151   0.00000  Uiso   1.00
C111   C     0.25123   0.36392   0.87368   0.00000  Uiso   1.00
C112   C     0.21630   0.30989   0.90964   0.00000  Uiso   1.00
C113   C     0.31013   0.62614   0.85757   0.00000  Uiso   1.00
C114   C     0.40727   0.65943   0.84804   0.00000  Uiso   1.00
C115   C     0.44372   0.74054   0.87227   0.00000  Uiso   1.00
H116   H     0.10175   0.65943   0.92048   0.00000  Uiso   1.00
H117   H     0.96021   0.70874   0.86569   0.00000  Uiso   1.00
H118   H     0.08631   0.49347   0.96527   0.00000  Uiso   1.00
H119   H     0.24233   0.78893   0.93962   0.00000  Uiso   1.00
H120   H     0.82915   0.74305   0.79058   0.00000  Uiso   1.00
H121   H     0.09506   0.28914   0.00054   0.00000  Uiso   1.00
H122   H     0.42407   0.91219   0.94647   0.00000  Uiso   1.00
H123   H     0.30114   0.50285   0.80976   0.00000  Uiso   1.00
H124   H     0.17054   0.54357   0.74889   0.00000  Uiso   1.00
H125   H     0.29664   0.32829   0.84847   0.00000  Uiso   1.00
H126   H     0.45266   0.62375   0.82282   0.00000  Uiso   1.00
H127   H     0.99986   0.60899   0.69578   0.00000  Uiso   1.00
H128   H     0.26578   0.15508   0.90575   0.00000  Uiso   1.00
H129   H     0.59478   0.77812   0.85167   0.00000  Uiso   1.00
O130   O     0.82498   0.70560   0.70514   0.00000  Uiso   1.00
O131   O     0.17387   0.11010   0.98061   0.00000  Uiso   1.00
O132   O     0.60550   0.92752   0.90966   0.00000  Uiso   1.00
N133   N     0.88726   0.70593   0.77662   0.00000  Uiso   1.00
N134   N     0.13586   0.28155   0.97292   0.00000  Uiso   1.00
N135   N     0.44346   0.86402   0.92238   0.00000  Uiso   1.00
N136   N     0.97912   0.63379   0.72561   0.00000  Uiso   1.00
N137   N     0.22772   0.20941   0.92191   0.00000  Uiso   1.00
N138   N     0.53532   0.79189   0.87136   0.00000  Uiso   1.00
C139   C     0.85257   0.37644   0.89511   0.00000  Uiso   1.00
C140   C     0.90181   0.37135   0.84999   0.00000  Uiso   1.00
C141   C     0.99440   0.32690   0.84047   0.00000  Uiso   1.00
C142   C     0.02627   0.33017   0.79716   0.00000  Uiso   1.00
C143   C     0.11169   0.31531   0.73205   0.00000  Uiso   1.00
C144   C     0.83331   0.48832   0.90409   0.00000  Uiso   1.00
C145   C     0.86829   0.54222   0.94005   0.00000  Uiso   1.00
C146   C     0.84249   0.64395   0.94228   0.00000  Uiso   1.00
C147   C     0.82149   0.81067   0.96118   0.00000  Uiso   1.00
C148   C     0.74855   0.32778   0.89015   0.00000  Uiso   1.00
C149   C     0.71224   0.24671   0.91441   0.00000  Uiso   1.00
C150   C     0.61506   0.21329   0.90491   0.00000  Uiso   1.00
C151   C     0.46246   0.13075   0.90218   0.00000  Uiso   1.00
C152   C     0.74454   0.46127   0.83513   0.00000  Uiso   1.00
C153   C     0.84314   0.41743   0.81741   0.00000  Uiso   1.00
C154   C     0.87488   0.42077   0.77410   0.00000  Uiso   1.00
C155   C     0.96749   0.37633   0.76451   0.00000  Uiso   1.00
C156   C     0.77464   0.53440   0.87151   0.00000  Uiso   1.00
C157   C     0.74877   0.63608   0.87368   0.00000  Uiso   1.00
C158   C     0.78370   0.69011   0.90964   0.00000  Uiso   1.00
C159   C     0.68987   0.37386   0.85757   0.00000  Uiso   1.00
C160   C     0.59273   0.34057   0.84804   0.00000  Uiso   1.00
C161   C     0.55628   0.25946   0.87227   0.00000  Uiso   1.00
H162   H     0.89825   0.34057   0.92048   0.00000  Uiso   1.00
H163   H     0.03979   0.29126   0.86569   0.00000  Uiso   1.00
H164   H     0.91369   0.50653   0.96527   0.00000  Uiso   1.00
H165   H     0.75767   0.21107   0.93962   0.00000  Uiso   1.00
H166   H     0.17085   0.25695   0.79058   0.00000  Uiso   1.00
H167   H     0.90494   0.71086   0.00054   0.00000  Uiso   1.00
H168   H     0.57593   0.08781   0.94647   0.00000  Uiso   1.00
H169   H     0.69886   0.49715   0.80976   0.00000  Uiso   1.00
H170   H     0.82946   0.45643   0.74889   0.00000  Uiso   1.00
H171   H     0.70336   0.67171   0.84847   0.00000  Uiso   1.00
H172   H     0.54734   0.37625   0.82282   0.00000  Uiso   1.00
H173   H     0.00014   0.39101   0.69578   0.00000  Uiso   1.00
H174   H     0.73422   0.84492   0.90575   0.00000  Uiso   1.00
H175   H     0.40522   0.22188   0.85167   0.00000  Uiso   1.00
O176   O     0.17502   0.29440   0.70514   0.00000  Uiso   1.00
O177   O     0.82613   0.88990   0.98061   0.00000  Uiso   1.00
O178   O     0.39450   0.07248   0.90966   0.00000  Uiso   1.00
N179   N     0.11274   0.29407   0.77662   0.00000  Uiso   1.00
N180   N     0.86414   0.71845   0.97292   0.00000  Uiso   1.00
N181   N     0.55654   0.13598   0.92238   0.00000  Uiso   1.00
N182   N     0.02088   0.36621   0.72561   0.00000  Uiso   1.00
N183   N     0.77228   0.79059   0.92191   0.00000  Uiso   1.00
N184   N     0.46468   0.20811   0.87136   0.00000  Uiso   1.00
C185   C     0.37644   0.14743   0.10489   0.00000  Uiso   1.00
C186   C     0.37135   0.09819   0.15001   0.00000  Uiso   1.00
C187   C     0.32690   0.00560   0.15953   0.00000  Uiso   1.00
C188   C     0.33017   0.97373   0.20284   0.00000  Uiso   1.00
C189   C     0.31531   0.88831   0.26795   0.00000  Uiso   1.00
C190   C     0.48832   0.16669   0.09591   0.00000  Uiso   1.00
C191   C     0.54222   0.13171   0.05995   0.00000  Uiso   1.00
C192   C     0.64395   0.15751   0.05772   0.00000  Uiso   1.00
C193   C     0.81067   0.17851   0.03882   0.00000  Uiso   1.00
C194   C     0.32778   0.25145   0.10985   0.00000  Uiso   1.00
C195   C     0.24671   0.28776   0.08559   0.00000  Uiso   1.00
C196   C     0.21329   0.38494   0.09509   0.00000  Uiso   1.00
C197   C     0.13075   0.53754   0.09782   0.00000  Uiso   1.00
C198   C     0.46127   0.25546   0.16487   0.00000  Uiso   1.00
C199   C     0.41743   0.15686   0.18259   0.00000  Uiso   1.00
C200   C     0.42077   0.12512   0.22590   0.00000  Uiso   1.00
C201   C     0.37633   0.03251   0.23549   0.00000  Uiso   1.00
C202   C     0.53440   0.22536   0.12849   0.00000  Uiso   1.00
C203   C     0.63608   0.25123   0.12632   0.00000  Uiso   1.00
C204   C     0.69011   0.21630   0.09036   0.00000  Uiso   1.00
C205   C     0.37386   0.31013   0.14243   0.00000  Uiso   1.00
C206   C     0.34057   0.40727   0.15196   0.00000  Uiso   1.00
C207   C     0.25946   0.44372   0.12773   0.00000  Uiso   1.00
H208   H     0.34057   0.10175   0.07952   0.00000  Uiso   1.00
H209   H     0.29126   0.96021   0.13431   0.00000  Uiso   1.00
H210   H     0.50653   0.08631   0.03473   0.00000  Uiso   1.00
H211   H     0.21107   0.24233   0.06038   0.00000  Uiso   1.00
H212   H     0.25695   0.82915   0.20942   0.00000  Uiso   1.00
H213   H     0.71086   0.09506   0.99946   0.00000  Uiso   1.00
H214   H     0.08781   0.42407   0.05353   0.00000  Uiso   1.00
H215   H     0.49715   0.30114   0.19024   0.00000  Uiso   1.00
H216   H     0.45643   0.17054   0.25111   0.00000  Uiso   1.00
H217   H     0.67171   0.29664   0.15153   0.00000  Uiso   1.00
H218   H     0.37625   0.45266   0.17718   0.00000  Uiso   1.00
H219   H     0.39101   0.99986   0.30422   0.00000  Uiso   1.00
H220   H     0.84492   0.26578   0.09425   0.00000  Uiso   1.00
H221   H     0.22188   0.59478   0.14833   0.00000  Uiso   1.00
O222   O     0.29440   0.82498   0.29486   0.00000  Uiso   1.00
O223   O     0.88990   0.17387   0.01939   0.00000  Uiso   1.00
O224   O     0.07248   0.60550   0.09034   0.00000  Uiso   1.00
N225   N     0.29407   0.88726   0.22338   0.00000  Uiso   1.00
N226   N     0.71845   0.13586   0.02708   0.00000  Uiso   1.00
N227   N     0.13598   0.44346   0.07762   0.00000  Uiso   1.00
N228   N     0.36621   0.97912   0.27439   0.00000  Uiso   1.00
N229   N     0.79059   0.22772   0.07809   0.00000  Uiso   1.00
N230   N     0.20811   0.53532   0.12864   0.00000  Uiso   1.00
C231   C     0.62356   0.85257   0.10489   0.00000  Uiso   1.00
C232   C     0.62865   0.90181   0.15001   0.00000  Uiso   1.00
C233   C     0.67310   0.99440   0.15953   0.00000  Uiso   1.00
C234   C     0.66983   0.02627   0.20284   0.00000  Uiso   1.00
C235   C     0.68469   0.11169   0.26795   0.00000  Uiso   1.00
C236   C     0.51168   0.83331   0.09591   0.00000  Uiso   1.00
C237   C     0.45778   0.86829   0.05995   0.00000  Uiso   1.00
C238   C     0.35605   0.84249   0.05772   0.00000  Uiso   1.00
C239   C     0.18933   0.82149   0.03882   0.00000  Uiso   1.00
C240   C     0.67222   0.74855   0.10985   0.00000  Uiso   1.00
C241   C     0.75329   0.71224   0.08559   0.00000  Uiso   1.00
C242   C     0.78671   0.61506   0.09509   0.00000  Uiso   1.00
C243   C     0.86925   0.46246   0.09782   0.00000  Uiso   1.00
C244   C     0.53873   0.74454   0.16487   0.00000  Uiso   1.00
C245   C     0.58257   0.84314   0.18259   0.00000  Uiso   1.00
C246   C     0.57923   0.87488   0.22590   0.00000  Uiso   1.00
C247   C     0.62367   0.96749   0.23549   0.00000  Uiso   1.00
C248   C     0.46560   0.77464   0.12849   0.00000  Uiso   1.00
C249   C     0.36392   0.74877   0.12632   0.00000  Uiso   1.00
C250   C     0.30989   0.78370   0.09036   0.00000  Uiso   1.00
C251   C     0.62614   0.68987   0.14243   0.00000  Uiso   1.00
C252   C     0.65943   0.59273   0.15196   0.00000  Uiso   1.00
C253   C     0.74054   0.55628   0.12773   0.00000  Uiso   1.00
H254   H     0.65943   0.89825   0.07952   0.00000  Uiso   1.00
H255   H     0.70874   0.03979   0.13431   0.00000  Uiso   1.00
H256   H     0.49347   0.91369   0.03473   0.00000  Uiso   1.00
H257   H     0.78893   0.75767   0.06038   0.00000  Uiso   1.00
H258   H     0.74305   0.17085   0.20942   0.00000  Uiso   1.00
H259   H     0.28914   0.90494   0.99946   0.00000  Uiso   1.00
H260   H     0.91219   0.57593   0.05353   0.00000  Uiso   1.00
H261   H     0.50285   0.69886   0.19024   0.00000  Uiso   1.00
H262   H     0.54357   0.82946   0.25111   0.00000  Uiso   1.00
H263   H     0.32829   0.70336   0.15153   0.00000  Uiso   1.00
H264   H     0.62375   0.54734   0.17718   0.00000  Uiso   1.00
H265   H     0.60899   0.00014   0.30422   0.00000  Uiso   1.00
H266   H     0.15508   0.73422   0.09425   0.00000  Uiso   1.00
H267   H     0.77812   0.40522   0.14833   0.00000  Uiso   1.00
O268   O     0.70560   0.17502   0.29486   0.00000  Uiso   1.00
O269   O     0.11010   0.82613   0.01939   0.00000  Uiso   1.00
O270   O     0.92752   0.39450   0.09034   0.00000  Uiso   1.00
N271   N     0.70593   0.11274   0.22338   0.00000  Uiso   1.00
N272   N     0.28155   0.86414   0.02708   0.00000  Uiso   1.00
N273   N     0.86402   0.55654   0.07762   0.00000  Uiso   1.00
N274   N     0.63379   0.02088   0.27439   0.00000  Uiso   1.00
N275   N     0.20941   0.77228   0.07809   0.00000  Uiso   1.00
N276   N     0.79189   0.46468   0.12864   0.00000  Uiso   1.00
C277   C     0.35257   0.87644   0.60489   0.00000  Uiso   1.00
C278   C     0.40181   0.87135   0.65001   0.00000  Uiso   1.00
C279   C     0.49440   0.82690   0.65953   0.00000  Uiso   1.00
C280   C     0.52627   0.83017   0.70284   0.00000  Uiso   1.00
C281   C     0.61169   0.81531   0.76795   0.00000  Uiso   1.00
C282   C     0.33331   0.98832   0.59591   0.00000  Uiso   1.00
C283   C     0.36829   0.04222   0.55995   0.00000  Uiso   1.00
C284   C     0.34249   0.14395   0.55772   0.00000  Uiso   1.00
C285   C     0.32149   0.31067   0.53882   0.00000  Uiso   1.00
C286   C     0.24855   0.82778   0.60985   0.00000  Uiso   1.00
C287   C     0.21224   0.74671   0.58559   0.00000  Uiso   1.00
C288   C     0.11506   0.71329   0.59509   0.00000  Uiso   1.00
C289   C     0.96246   0.63075   0.59782   0.00000  Uiso   1.00
C290   C     0.24454   0.96127   0.66487   0.00000  Uiso   1.00
C291   C     0.34314   0.91743   0.68259   0.00000  Uiso   1.00
C292   C     0.37488   0.92077   0.72590   0.00000  Uiso   1.00
C293   C     0.46749   0.87633   0.73549   0.00000  Uiso   1.00
C294   C     0.27464   0.03440   0.62849   0.00000  Uiso   1.00
C295   C     0.24877   0.13608   0.62632   0.00000  Uiso   1.00
C296   C     0.28370   0.19011   0.59036   0.00000  Uiso   1.00
C297   C     0.18987   0.87386   0.64243   0.00000  Uiso   1.00
C298   C     0.09273   0.84057   0.65196   0.00000  Uiso   1.00
C299   C     0.05628   0.75946   0.62773   0.00000  Uiso   1.00
H300   H     0.39825   0.84057   0.57952   0.00000  Uiso   1.00
H301   H     0.53979   0.79126   0.63431   0.00000  Uiso   1.00
H302   H     0.41369   0.00653   0.53473   0.00000  Uiso   1.00
H303   H     0.25767   0.71107   0.56038   0.00000  Uiso   1.00
H304   H     0.67085   0.75695   0.70942   0.00000  Uiso   1.00
H305   H     0.40494   0.21086   0.49946   0.00000  Uiso   1.00
H306   H     0.07593   0.58781   0.55353   0.00000  Uiso   1.00
H307   H     0.19886   0.99715   0.69024   0.00000  Uiso   1.00
H308   H     0.32946   0.95643   0.75111   0.00000  Uiso   1.00
H309   H     0.20336   0.17171   0.65153   0.00000  Uiso   1.00
H310   H     0.04734   0.87625   0.67718   0.00000  Uiso   1.00
H311   H     0.50014   0.89101   0.80422   0.00000  Uiso   1.00
H312   H     0.23422   0.34492   0.59425   0.00000  Uiso   1.00
H313   H     0.90522   0.72188   0.64833   0.00000  Uiso   1.00
O314   O     0.67502   0.79440   0.79486   0.00000  Uiso   1.00
O315   O     0.32613   0.38990   0.51939   0.00000  Uiso   1.00
O316   O     0.89450   0.57248   0.59034   0.00000  Uiso   1.00
N317   N     0.61274   0.79407   0.72338   0.00000  Uiso   1.00
N318   N     0.36414   0.21845   0.52708   0.00000  Uiso   1.00
N319   N     0.05654   0.63598   0.57762   0.00000  Uiso   1.00
N320   N     0.52088   0.86621   0.77439   0.00000  Uiso   1.00
N321   N     0.27228   0.29059   0.57809   0.00000  Uiso   1.00
N322   N     0.96468   0.70811   0.62864   0.00000  Uiso   1.00
C323   C     0.64743   0.12356   0.60489   0.00000  Uiso   1.00
C324   C     0.59819   0.12865   0.65001   0.00000  Uiso   1.00
C325   C     0.50560   0.17310   0.65953   0.00000  Uiso   1.00
C326   C     0.47373   0.16983   0.70284   0.00000  Uiso   1.00
C327   C     0.38831   0.18469   0.76795   0.00000  Uiso   1.00
C328   C     0.66669   0.01168   0.59591   0.00000  Uiso   1.00
C329   C     0.63171   0.95778   0.55995   0.00000  Uiso   1.00
C330   C     0.65751   0.85605   0.55772   0.00000  Uiso   1.00
C331   C     0.67851   0.68933   0.53882   0.00000  Uiso   1.00
C332   C     0.75145   0.17222   0.60985   0.00000  Uiso   1.00
C333   C     0.78776   0.25329   0.58559   0.00000  Uiso   1.00
C334   C     0.88494   0.28671   0.59509   0.00000  Uiso   1.00
C335   C     0.03754   0.36925   0.59782   0.00000  Uiso   1.00
C336   C     0.75546   0.03873   0.66487   0.00000  Uiso   1.00
C337   C     0.65686   0.08257   0.68259   0.00000  Uiso   1.00
C338   C     0.62512   0.07923   0.72590   0.00000  Uiso   1.00
C339   C     0.53251   0.12367   0.73549   0.00000  Uiso   1.00
C340   C     0.72536   0.96560   0.62849   0.00000  Uiso   1.00
C341   C     0.75123   0.86392   0.62632   0.00000  Uiso   1.00
C342   C     0.71630   0.80989   0.59036   0.00000  Uiso   1.00
C343   C     0.81013   0.12614   0.64243   0.00000  Uiso   1.00
C344   C     0.90727   0.15943   0.65196   0.00000  Uiso   1.00
C345   C     0.94372   0.24054   0.62773   0.00000  Uiso   1.00
H346   H     0.60175   0.15943   0.57952   0.00000  Uiso   1.00
H347   H     0.46021   0.20874   0.63431   0.00000  Uiso   1.00
H348   H     0.58631   0.99347   0.53473   0.00000  Uiso   1.00
H349   H     0.74233   0.28893   0.56038   0.00000  Uiso   1.00
H350   H     0.32915   0.24305   0.70942   0.00000  Uiso   1.00
H351   H     0.59506   0.78914   0.49946   0.00000  Uiso   1.00
H352   H     0.92407   0.41219   0.55353   0.00000  Uiso   1.00
H353   H     0.80114   0.00285   0.69024   0.00000  Uiso   1.00
H354   H     0.67054   0.04357   0.75111   0.00000  Uiso   1.00
H355   H     0.79664   0.82829   0.65153   0.00000  Uiso   1.00
H356   H     0.95266   0.12375   0.67718   0.00000  Uiso   1.00
H357   H     0.49986   0.10899   0.80422   0.00000  Uiso   1.00
H358   H     0.76578   0.65508   0.59425   0.00000  Uiso   1.00
H359   H     0.09478   0.27812   0.64833   0.00000  Uiso   1.00
O360   O     0.32498   0.20560   0.79486   0.00000  Uiso   1.00
O361   O     0.67387   0.61010   0.51939   0.00000  Uiso   1.00
O362   O     0.10550   0.42752   0.59034   0.00000  Uiso   1.00
N363   N     0.38726   0.20593   0.72338   0.00000  Uiso   1.00
N364   N     0.63586   0.78155   0.52708   0.00000  Uiso   1.00
N365   N     0.94346   0.36402   0.57762   0.00000  Uiso   1.00
N366   N     0.47912   0.13379   0.77439   0.00000  Uiso   1.00
N367   N     0.72772   0.70941   0.57809   0.00000  Uiso   1.00
N368   N     0.03532   0.29189   0.62864   0.00000  Uiso   1.00
