data_job_05798
_audit_creation_date              2018-12-19
_audit_creation_method            'Materials Studio'
_symmetry_space_group_name_H-M    'P1'
_symmetry_Int_Tables_number       1
_symmetry_cell_setting            triclinic
loop_
_symmetry_equiv_pos_as_xyz
  x,y,z
_cell_length_a                    9.7876
_cell_length_b                    8.7762
_cell_length_c                    45.8864
_cell_angle_alpha                 90.0000
_cell_angle_beta                  106.4291
_cell_angle_gamma                 90.0000
loop_
_atom_site_label
_atom_site_type_symbol
_atom_site_fract_x
_atom_site_fract_y
_atom_site_fract_z
_atom_site_U_iso_or_equiv
_atom_site_adp_type
_atom_site_occupancy
C1     C     0.90261   0.29104   0.13440   0.00000  Uiso   1.00
C2     C     0.81446   0.39295   0.14906   0.00000  Uiso   1.00
C3     C     0.67221   0.37143   0.14760   0.00000  Uiso   1.00
C4     C     0.61075   0.47734   0.16253   0.00000  Uiso   1.00
C5     C     0.46197   0.61693   0.18287   0.00000  Uiso   1.00
C6     C     0.96078   0.39470   0.11404   0.00000  Uiso   1.00
C7     C     0.94157   0.37463   0.08314   0.00000  Uiso   1.00
C8     C     0.00330   0.48201   0.06858   0.00000  Uiso   1.00
C9     C     0.08177   0.62425   0.03457   0.00000  Uiso   1.00
C10    C     0.03116   0.24061   0.16003   0.00000  Uiso   1.00
C11    C     0.07116   0.09096   0.16780   0.00000  Uiso   1.00
C12    C     0.19218   0.06860   0.19196   0.00000  Uiso   1.00
C13    C     0.37992   0.97158   0.22935   0.00000  Uiso   1.00
C14    C     0.04643   0.51742   0.16349   0.00000  Uiso   1.00
C15    C     0.89257   0.51591   0.16486   0.00000  Uiso   1.00
C16    C     0.83132   0.62189   0.17979   0.00000  Uiso   1.00
C17    C     0.68901   0.60052   0.17836   0.00000  Uiso   1.00
C18    C     0.03889   0.51766   0.12984   0.00000  Uiso   1.00
C19    C     0.10068   0.62509   0.11533   0.00000  Uiso   1.00
C20    C     0.08156   0.60519   0.08441   0.00000  Uiso   1.00
C21    C     0.10927   0.36356   0.17584   0.00000  Uiso   1.00
C22    C     0.23026   0.34143   0.19999   0.00000  Uiso   1.00
C23    C     0.27043   0.19179   0.20779   0.00000  Uiso   1.00
H24    H     0.84180   0.19531   0.12210   0.00000  Uiso   1.00
H25    H     0.61179   0.27626   0.13537   0.00000  Uiso   1.00
H26    H     0.88112   0.27946   0.07092   0.00000  Uiso   1.00
H27    H     0.01068   0.99584   0.15557   0.00000  Uiso   1.00
H28    H     0.39121   0.42026   0.15705   0.00000  Uiso   1.00
H29    H     0.95915   0.42697   0.02115   0.00000  Uiso   1.00
H30    H     0.23237   0.82891   0.19964   0.00000  Uiso   1.00
H31    H     0.10725   0.61315   0.17580   0.00000  Uiso   1.00
H32    H     0.89180   0.71703   0.19202   0.00000  Uiso   1.00
H33    H     0.16113   0.72022   0.12756   0.00000  Uiso   1.00
H34    H     0.29069   0.43661   0.21221   0.00000  Uiso   1.00
H35    H     0.61847   0.77801   0.20302   0.00000  Uiso   1.00
H36    H     0.18642   0.78472   0.06712   0.00000  Uiso   1.00
H37    H     0.45963   0.18666   0.24562   0.00000  Uiso   1.00
O38    O     0.35831   0.65996   0.18973   0.00000  Uiso   1.00
O39    O     0.10345   0.66874   0.01143   0.00000  Uiso   1.00
O40    O     0.46189   0.88410   0.24562   0.00000  Uiso   1.00
N41    N     0.47427   0.49019   0.16565   0.00000  Uiso   1.00
N42    N     0.00525   0.49647   0.03859   0.00000  Uiso   1.00
N43    N     0.26070   0.93733   0.20546   0.00000  Uiso   1.00
N44    N     0.59656   0.68269   0.19039   0.00000  Uiso   1.00
N45    N     0.12753   0.68897   0.06333   0.00000  Uiso   1.00
N46    N     0.38299   0.12983   0.23020   0.00000  Uiso   1.00
C47    C     0.09739   0.79104   0.36560   0.00000  Uiso   1.00
C48    C     0.18554   0.89295   0.35094   0.00000  Uiso   1.00
C49    C     0.32779   0.87143   0.35240   0.00000  Uiso   1.00
C50    C     0.38925   0.97734   0.33747   0.00000  Uiso   1.00
C51    C     0.53803   0.11693   0.31713   0.00000  Uiso   1.00
C52    C     0.03922   0.89470   0.38596   0.00000  Uiso   1.00
C53    C     0.05843   0.87463   0.41686   0.00000  Uiso   1.00
C54    C     0.99670   0.98201   0.43142   0.00000  Uiso   1.00
C55    C     0.91823   0.12425   0.46543   0.00000  Uiso   1.00
C56    C     0.96884   0.74061   0.33997   0.00000  Uiso   1.00
C57    C     0.92884   0.59096   0.33220   0.00000  Uiso   1.00
C58    C     0.80782   0.56860   0.30804   0.00000  Uiso   1.00
C59    C     0.62008   0.47158   0.27065   0.00000  Uiso   1.00
C60    C     0.95357   0.01742   0.33651   0.00000  Uiso   1.00
C61    C     0.10743   0.01591   0.33514   0.00000  Uiso   1.00
C62    C     0.16868   0.12189   0.32021   0.00000  Uiso   1.00
C63    C     0.31099   0.10052   0.32164   0.00000  Uiso   1.00
C64    C     0.96111   0.01766   0.37016   0.00000  Uiso   1.00
C65    C     0.89932   0.12509   0.38467   0.00000  Uiso   1.00
C66    C     0.91844   0.10519   0.41559   0.00000  Uiso   1.00
C67    C     0.89072   0.86356   0.32416   0.00000  Uiso   1.00
C68    C     0.76974   0.84143   0.30001   0.00000  Uiso   1.00
C69    C     0.72957   0.69179   0.29221   0.00000  Uiso   1.00
H70    H     0.15820   0.69531   0.37790   0.00000  Uiso   1.00
H71    H     0.38821   0.77626   0.36463   0.00000  Uiso   1.00
H72    H     0.11888   0.77946   0.42908   0.00000  Uiso   1.00
H73    H     0.98932   0.49584   0.34443   0.00000  Uiso   1.00
H74    H     0.60879   0.92026   0.34295   0.00000  Uiso   1.00
H75    H     0.04085   0.92697   0.47885   0.00000  Uiso   1.00
H76    H     0.76763   0.32891   0.30036   0.00000  Uiso   1.00
H77    H     0.89275   0.11315   0.32420   0.00000  Uiso   1.00
H78    H     0.10820   0.21703   0.30798   0.00000  Uiso   1.00
H79    H     0.83887   0.22022   0.37244   0.00000  Uiso   1.00
H80    H     0.70931   0.93661   0.28779   0.00000  Uiso   1.00
H81    H     0.38153   0.27801   0.29698   0.00000  Uiso   1.00
H82    H     0.81358   0.28472   0.43288   0.00000  Uiso   1.00
H83    H     0.54037   0.68666   0.25438   0.00000  Uiso   1.00
O84    O     0.64169   0.15996   0.31027   0.00000  Uiso   1.00
O85    O     0.89655   0.16874   0.48857   0.00000  Uiso   1.00
O86    O     0.53811   0.38410   0.25438   0.00000  Uiso   1.00
N87    N     0.52573   0.99019   0.33435   0.00000  Uiso   1.00
N88    N     0.99475   0.99647   0.46141   0.00000  Uiso   1.00
N89    N     0.73930   0.43733   0.29454   0.00000  Uiso   1.00
N90    N     0.40344   0.18269   0.30961   0.00000  Uiso   1.00
N91    N     0.87247   0.18897   0.43667   0.00000  Uiso   1.00
N92    N     0.61701   0.62983   0.26980   0.00000  Uiso   1.00
C93    C     0.09739   0.70896   0.86560   0.00000  Uiso   1.00
C94    C     0.18554   0.60705   0.85094   0.00000  Uiso   1.00
C95    C     0.32779   0.62857   0.85240   0.00000  Uiso   1.00
C96    C     0.38925   0.52266   0.83747   0.00000  Uiso   1.00
C97    C     0.53803   0.38307   0.81713   0.00000  Uiso   1.00
C98    C     0.03922   0.60530   0.88596   0.00000  Uiso   1.00
C99    C     0.05843   0.62537   0.91686   0.00000  Uiso   1.00
C100   C     0.99670   0.51799   0.93142   0.00000  Uiso   1.00
C101   C     0.91823   0.37575   0.96543   0.00000  Uiso   1.00
C102   C     0.96884   0.75939   0.83997   0.00000  Uiso   1.00
C103   C     0.92884   0.90904   0.83220   0.00000  Uiso   1.00
C104   C     0.80782   0.93140   0.80804   0.00000  Uiso   1.00
C105   C     0.62008   0.02842   0.77065   0.00000  Uiso   1.00
C106   C     0.95357   0.48258   0.83651   0.00000  Uiso   1.00
C107   C     0.10743   0.48409   0.83514   0.00000  Uiso   1.00
C108   C     0.16868   0.37811   0.82021   0.00000  Uiso   1.00
C109   C     0.31099   0.39948   0.82164   0.00000  Uiso   1.00
C110   C     0.96111   0.48234   0.87016   0.00000  Uiso   1.00
C111   C     0.89932   0.37491   0.88467   0.00000  Uiso   1.00
C112   C     0.91844   0.39481   0.91559   0.00000  Uiso   1.00
C113   C     0.89072   0.63644   0.82416   0.00000  Uiso   1.00
C114   C     0.76974   0.65857   0.80001   0.00000  Uiso   1.00
C115   C     0.72957   0.80821   0.79221   0.00000  Uiso   1.00
H116   H     0.15820   0.80469   0.87790   0.00000  Uiso   1.00
H117   H     0.38821   0.72374   0.86463   0.00000  Uiso   1.00
H118   H     0.11888   0.72054   0.92908   0.00000  Uiso   1.00
H119   H     0.98932   0.00416   0.84443   0.00000  Uiso   1.00
H120   H     0.60879   0.57974   0.84295   0.00000  Uiso   1.00
H121   H     0.04085   0.57303   0.97885   0.00000  Uiso   1.00
H122   H     0.76763   0.17109   0.80036   0.00000  Uiso   1.00
H123   H     0.89275   0.38685   0.82420   0.00000  Uiso   1.00
H124   H     0.10820   0.28297   0.80798   0.00000  Uiso   1.00
H125   H     0.83887   0.27978   0.87244   0.00000  Uiso   1.00
H126   H     0.70931   0.56339   0.78779   0.00000  Uiso   1.00
H127   H     0.38153   0.22199   0.79698   0.00000  Uiso   1.00
H128   H     0.81358   0.21528   0.93288   0.00000  Uiso   1.00
H129   H     0.54037   0.81334   0.75438   0.00000  Uiso   1.00
O130   O     0.64169   0.34004   0.81027   0.00000  Uiso   1.00
O131   O     0.89655   0.33126   0.98857   0.00000  Uiso   1.00
O132   O     0.53811   0.11590   0.75438   0.00000  Uiso   1.00
N133   N     0.52573   0.50981   0.83435   0.00000  Uiso   1.00
N134   N     0.99475   0.50353   0.96141   0.00000  Uiso   1.00
N135   N     0.73930   0.06267   0.79454   0.00000  Uiso   1.00
N136   N     0.40344   0.31731   0.80961   0.00000  Uiso   1.00
N137   N     0.87247   0.31103   0.93667   0.00000  Uiso   1.00
N138   N     0.61701   0.87017   0.76980   0.00000  Uiso   1.00
C139   C     0.90261   0.20896   0.63440   0.00000  Uiso   1.00
C140   C     0.81446   0.10705   0.64906   0.00000  Uiso   1.00
C141   C     0.67221   0.12857   0.64760   0.00000  Uiso   1.00
C142   C     0.61075   0.02266   0.66253   0.00000  Uiso   1.00
C143   C     0.46197   0.88307   0.68287   0.00000  Uiso   1.00
C144   C     0.96078   0.10530   0.61404   0.00000  Uiso   1.00
C145   C     0.94157   0.12537   0.58314   0.00000  Uiso   1.00
C146   C     0.00330   0.01799   0.56858   0.00000  Uiso   1.00
C147   C     0.08177   0.87575   0.53457   0.00000  Uiso   1.00
C148   C     0.03116   0.25939   0.66003   0.00000  Uiso   1.00
C149   C     0.07116   0.40904   0.66780   0.00000  Uiso   1.00
C150   C     0.19218   0.43140   0.69196   0.00000  Uiso   1.00
C151   C     0.37992   0.52842   0.72935   0.00000  Uiso   1.00
C152   C     0.04643   0.98258   0.66349   0.00000  Uiso   1.00
C153   C     0.89257   0.98409   0.66486   0.00000  Uiso   1.00
C154   C     0.83132   0.87811   0.67979   0.00000  Uiso   1.00
C155   C     0.68901   0.89948   0.67836   0.00000  Uiso   1.00
C156   C     0.03889   0.98234   0.62984   0.00000  Uiso   1.00
C157   C     0.10068   0.87491   0.61533   0.00000  Uiso   1.00
C158   C     0.08156   0.89481   0.58441   0.00000  Uiso   1.00
C159   C     0.10927   0.13644   0.67584   0.00000  Uiso   1.00
C160   C     0.23026   0.15857   0.69999   0.00000  Uiso   1.00
C161   C     0.27043   0.30821   0.70779   0.00000  Uiso   1.00
H162   H     0.84180   0.30469   0.62210   0.00000  Uiso   1.00
H163   H     0.61179   0.22374   0.63537   0.00000  Uiso   1.00
H164   H     0.88112   0.22054   0.57092   0.00000  Uiso   1.00
H165   H     0.01068   0.50416   0.65557   0.00000  Uiso   1.00
H166   H     0.39121   0.07974   0.65705   0.00000  Uiso   1.00
H167   H     0.95915   0.07303   0.52115   0.00000  Uiso   1.00
H168   H     0.23237   0.67109   0.69964   0.00000  Uiso   1.00
H169   H     0.10725   0.88685   0.67580   0.00000  Uiso   1.00
H170   H     0.89180   0.78297   0.69202   0.00000  Uiso   1.00
H171   H     0.16113   0.77978   0.62756   0.00000  Uiso   1.00
H172   H     0.29069   0.06339   0.71221   0.00000  Uiso   1.00
H173   H     0.61847   0.72199   0.70302   0.00000  Uiso   1.00
H174   H     0.18642   0.71528   0.56712   0.00000  Uiso   1.00
H175   H     0.45963   0.31334   0.74562   0.00000  Uiso   1.00
O176   O     0.35831   0.84004   0.68973   0.00000  Uiso   1.00
O177   O     0.10345   0.83126   0.51143   0.00000  Uiso   1.00
O178   O     0.46189   0.61590   0.74562   0.00000  Uiso   1.00
N179   N     0.47427   0.00981   0.66565   0.00000  Uiso   1.00
N180   N     0.00525   0.00353   0.53859   0.00000  Uiso   1.00
N181   N     0.26070   0.56267   0.70546   0.00000  Uiso   1.00
N182   N     0.59656   0.81731   0.69039   0.00000  Uiso   1.00
N183   N     0.12753   0.81103   0.56333   0.00000  Uiso   1.00
N184   N     0.38299   0.37017   0.73020   0.00000  Uiso   1.00
