data_job_06559
_audit_creation_date              2018-12-19
_audit_creation_method            'Materials Studio'
_symmetry_space_group_name_H-M    'P1'
_symmetry_Int_Tables_number       1
_symmetry_cell_setting            triclinic
loop_
_symmetry_equiv_pos_as_xyz
  x,y,z
_cell_length_a                    20.9548
_cell_length_b                    21.3051
_cell_length_c                    24.3014
_cell_angle_alpha                 99.9564
_cell_angle_beta                  67.8959
_cell_angle_gamma                 90.1065
loop_
_atom_site_label
_atom_site_type_symbol
_atom_site_fract_x
_atom_site_fract_y
_atom_site_fract_z
_atom_site_U_iso_or_equiv
_atom_site_adp_type
_atom_site_occupancy
C1     C     0.16403   0.81541   0.95527   0.00000  Uiso   1.00
C2     C     0.23108   0.77363   0.92133   0.00000  Uiso   1.00
C3     C     0.29682   0.79237   0.91394   0.00000  Uiso   1.00
C4     C     0.35151   0.74710   0.88139   0.00000  Uiso   1.00
C5     C     0.45726   0.69163   0.83235   0.00000  Uiso   1.00
C6     C     0.12901   0.81496   0.91041   0.00000  Uiso   1.00
C7     C     0.10892   0.86846   0.89386   0.00000  Uiso   1.00
C8     C     0.07768   0.85798   0.85213   0.00000  Uiso   1.00
C9     C     0.02491   0.86669   0.78618   0.00000  Uiso   1.00
C10    C     0.11847   0.77970   0.00344   0.00000  Uiso   1.00
C11    C     0.08949   0.80356   0.06511   0.00000  Uiso   1.00
C12    C     0.04935   0.76339   0.10170   0.00000  Uiso   1.00
C13    C     0.98021   0.71734   0.18020   0.00000  Uiso   1.00
C14    C     0.14427   0.70167   0.91059   0.00000  Uiso   1.00
C15    C     0.22035   0.71185   0.89705   0.00000  Uiso   1.00
C16    C     0.27496   0.66653   0.86451   0.00000  Uiso   1.00
C17    C     0.34076   0.68521   0.85708   0.00000  Uiso   1.00
C18    C     0.11828   0.75318   0.88614   0.00000  Uiso   1.00
C19    C     0.08706   0.74262   0.84443   0.00000  Uiso   1.00
C20    C     0.06693   0.79609   0.82781   0.00000  Uiso   1.00
C21    C     0.10773   0.71792   0.97917   0.00000  Uiso   1.00
C22    C     0.06763   0.67771   0.01568   0.00000  Uiso   1.00
C23    C     0.03860   0.70150   0.07739   0.00000  Uiso   1.00
H24    H     0.17239   0.86351   0.97416   0.00000  Uiso   1.00
H25    H     0.30510   0.84019   0.93273   0.00000  Uiso   1.00
H26    H     0.11723   0.91627   0.91266   0.00000  Uiso   1.00
H27    H     0.09780   0.85137   0.08388   0.00000  Uiso   1.00
H28    H     0.44751   0.78710   0.87607   0.00000  Uiso   1.00
H29    H     0.05134   0.94751   0.83376   0.00000  Uiso   1.00
H30    H     0.01038   0.81066   0.19482   0.00000  Uiso   1.00
H31    H     0.13591   0.65357   0.89169   0.00000  Uiso   1.00
H32    H     0.26663   0.61872   0.84573   0.00000  Uiso   1.00
H33    H     0.07876   0.69481   0.82566   0.00000  Uiso   1.00
H34    H     0.05933   0.62990   0.99688   0.00000  Uiso   1.00
H35    H     0.41629   0.60735   0.80546   0.00000  Uiso   1.00
H36    H     0.02012   0.76777   0.76315   0.00000  Uiso   1.00
H37    H     0.97916   0.63091   0.12421   0.00000  Uiso   1.00
O38    O     0.51855   0.67810   0.81200   0.00000  Uiso   1.00
O39    O     0.99878   0.88856   0.75650   0.00000  Uiso   1.00
O40    O     0.94505   0.70901   0.23020   0.00000  Uiso   1.00
N41    N     0.42222   0.74957   0.86577   0.00000  Uiso   1.00
N42    N     0.05184   0.89955   0.82620   0.00000  Uiso   1.00
N43    N     0.01353   0.77161   0.16376   0.00000  Uiso   1.00
N44    N     0.40542   0.65285   0.82777   0.00000  Uiso   1.00
N45    N     0.03504   0.80283   0.78821   0.00000  Uiso   1.00
N46    N     0.99673   0.67489   0.12577   0.00000  Uiso   1.00
C47    C     0.14744   0.24222   0.98799   0.00000  Uiso   1.00
C48    C     0.12354   0.31299   0.00581   0.00000  Uiso   1.00
C49    C     0.05794   0.33862   0.04461   0.00000  Uiso   1.00
C50    C     0.04634   0.40454   0.05514   0.00000  Uiso   1.00
C51    C     0.00127   0.50851   0.08693   0.00000  Uiso   1.00
C52    C     0.17440   0.22661   0.91915   0.00000  Uiso   1.00
C53    C     0.15157   0.17960   0.88510   0.00000  Uiso   1.00
C54    C     0.18279   0.17281   0.82268   0.00000  Uiso   1.00
C55    C     0.21671   0.14264   0.71994   0.00000  Uiso   1.00
C56    C     0.21021   0.23608   0.00453   0.00000  Uiso   1.00
C57    C     0.21751   0.19702   0.04225   0.00000  Uiso   1.00
C58    C     0.27890   0.19819   0.05169   0.00000  Uiso   1.00
C59    C     0.36843   0.18272   0.08151   0.00000  Uiso   1.00
C60    C     0.24348   0.31374   0.93767   0.00000  Uiso   1.00
C61    C     0.17570   0.35183   0.97847   0.00000  Uiso   1.00
C62    C     0.16420   0.41774   0.98894   0.00000  Uiso   1.00
C63    C     0.09860   0.44346   0.02776   0.00000  Uiso   1.00
C64    C     0.22656   0.26545   0.89182   0.00000  Uiso   1.00
C65    C     0.25782   0.25872   0.82943   0.00000  Uiso   1.00
C66    C     0.23505   0.21172   0.79530   0.00000  Uiso   1.00
C67    C     0.26238   0.27492   0.97720   0.00000  Uiso   1.00
C68    C     0.32376   0.27615   0.98658   0.00000  Uiso   1.00
C69    C     0.33115   0.23710   0.02431   0.00000  Uiso   1.00
H70    H     0.10683   0.21198   0.00926   0.00000  Uiso   1.00
H71    H     0.01759   0.30854   0.06575   0.00000  Uiso   1.00
H72    H     0.11120   0.14954   0.90626   0.00000  Uiso   1.00
H73    H     0.17713   0.16696   0.06339   0.00000  Uiso   1.00
H74    H     0.94164   0.43272   0.11631   0.00000  Uiso   1.00
H75    H     0.13905   0.09746   0.78002   0.00000  Uiso   1.00
H76    H     0.27808   0.13419   0.11135   0.00000  Uiso   1.00
H77    H     0.28410   0.34398   0.91639   0.00000  Uiso   1.00
H78    H     0.20458   0.44779   0.96779   0.00000  Uiso   1.00
H79    H     0.29819   0.28879   0.80830   0.00000  Uiso   1.00
H80    H     0.36412   0.30621   0.96542   0.00000  Uiso   1.00
H81    H     0.09340   0.54574   0.03679   0.00000  Uiso   1.00
H82    H     0.29082   0.21047   0.70051   0.00000  Uiso   1.00
H83    H     0.42984   0.24721   0.03183   0.00000  Uiso   1.00
O84    O     0.96200   0.55513   0.11202   0.00000  Uiso   1.00
O85    O     0.22101   0.11527   0.67082   0.00000  Uiso   1.00
O86    O     0.40341   0.16347   0.10552   0.00000  Uiso   1.00
N87    N     0.98827   0.44507   0.09055   0.00000  Uiso   1.00
N88    N     0.17283   0.13163   0.77614   0.00000  Uiso   1.00
N89    N     0.30282   0.16596   0.08589   0.00000  Uiso   1.00
N90    N     0.06994   0.50589   0.04776   0.00000  Uiso   1.00
N91    N     0.25450   0.19244   0.73336   0.00000  Uiso   1.00
N92    N     0.38448   0.22677   0.04311   0.00000  Uiso   1.00
C93    C     0.71721   0.97571   0.09735   0.00000  Uiso   1.00
C94    C     0.65165   0.93982   0.11026   0.00000  Uiso   1.00
C95    C     0.64625   0.87629   0.11653   0.00000  Uiso   1.00
C96    C     0.58173   0.85232   0.12825   0.00000  Uiso   1.00
C97    C     0.48861   0.79076   0.14746   0.00000  Uiso   1.00
C98    C     0.72811   0.00186   0.04012   0.00000  Uiso   1.00
C99    C     0.78700   0.99050   0.98742   0.00000  Uiso   1.00
C100   C     0.78685   0.01877   0.94010   0.00000  Uiso   1.00
C101   C     0.81245   0.05357   0.85043   0.00000  Uiso   1.00
C102   C     0.69994   0.03371   0.14828   0.00000  Uiso   1.00
C103   C     0.73516   0.04913   0.18653   0.00000  Uiso   1.00
C104   C     0.71130   0.10422   0.23026   0.00000  Uiso   1.00
C105   C     0.69316   0.18846   0.30854   0.00000  Uiso   1.00
C106   C     0.61222   0.04612   0.10700   0.00000  Uiso   1.00
C107   C     0.59462   0.97807   0.11550   0.00000  Uiso   1.00
C108   C     0.53009   0.95419   0.12721   0.00000  Uiso   1.00
C109   C     0.52461   0.89063   0.13350   0.00000  Uiso   1.00
C110   C     0.67108   0.04010   0.04536   0.00000  Uiso   1.00
C111   C     0.67085   0.06840   0.99810   0.00000  Uiso   1.00
C112   C     0.72972   0.05708   0.94535   0.00000  Uiso   1.00
C113   C     0.64291   0.07195   0.15353   0.00000  Uiso   1.00
C114   C     0.61900   0.12703   0.19720   0.00000  Uiso   1.00
C115   C     0.65417   0.14253   0.23551   0.00000  Uiso   1.00
H116   H     0.76161   0.94594   0.09327   0.00000  Uiso   1.00
H117   H     0.69040   0.84671   0.11247   0.00000  Uiso   1.00
H118   H     0.83113   0.96091   0.98338   0.00000  Uiso   1.00
H119   H     0.77928   0.01953   0.18246   0.00000  Uiso   1.00
H120   H     0.58630   0.75355   0.13604   0.00000  Uiso   1.00
H121   H     0.88305   0.99436   0.86387   0.00000  Uiso   1.00
H122   H     0.77373   0.11797   0.28365   0.00000  Uiso   1.00
H123   H     0.56783   0.07590   0.11108   0.00000  Uiso   1.00
H124   H     0.48598   0.98380   0.13126   0.00000  Uiso   1.00
H125   H     0.62671   0.09800   0.00218   0.00000  Uiso   1.00
H126   H     0.57487   0.15661   0.20125   0.00000  Uiso   1.00
H127   H     0.42039   0.86481   0.15129   0.00000  Uiso   1.00
H128   H     0.71713   0.10563   0.87912   0.00000  Uiso   1.00
H129   H     0.60782   0.22924   0.29890   0.00000  Uiso   1.00
O130   O     0.45300   0.74624   0.15660   0.00000  Uiso   1.00
O131   O     0.84233   0.06219   0.79953   0.00000  Uiso   1.00
O132   O     0.69890   0.22436   0.35027   0.00000  Uiso   1.00
N133   N     0.55848   0.79238   0.13688   0.00000  Uiso   1.00
N134   N     0.83592   0.01751   0.88241   0.00000  Uiso   1.00
N135   N     0.73373   0.13309   0.27486   0.00000  Uiso   1.00
N136   N     0.46921   0.85225   0.14508   0.00000  Uiso   1.00
N137   N     0.74664   0.07739   0.89061   0.00000  Uiso   1.00
N138   N     0.64445   0.19296   0.28306   0.00000  Uiso   1.00
C139   C     0.90298   0.23656   0.57036   0.00000  Uiso   1.00
C140   C     0.91252   0.30807   0.57692   0.00000  Uiso   1.00
C141   C     0.97336   0.33649   0.57296   0.00000  Uiso   1.00
C142   C     0.97150   0.40263   0.58024   0.00000  Uiso   1.00
C143   C     0.99554   0.50814   0.58875   0.00000  Uiso   1.00
C144   C     0.87617   0.21983   0.51971   0.00000  Uiso   1.00
C145   C     0.90644   0.17404   0.46765   0.00000  Uiso   1.00
C146   C     0.87397   0.16590   0.42679   0.00000  Uiso   1.00
C147   C     0.84154   0.13437   0.34650   0.00000  Uiso   1.00
C148   C     0.84384   0.22766   0.62815   0.00000  Uiso   1.00
C149   C     0.84691   0.18845   0.66725   0.00000  Uiso   1.00
C150   C     0.78721   0.18690   0.71767   0.00000  Uiso   1.00
C151   C     0.70458   0.16753   0.80574   0.00000  Uiso   1.00
C152   C     0.79148   0.30351   0.59036   0.00000  Uiso   1.00
C153   C     0.85196   0.34443   0.58778   0.00000  Uiso   1.00
C154   C     0.85000   0.41056   0.59508   0.00000  Uiso   1.00
C155   C     0.91083   0.43906   0.59113   0.00000  Uiso   1.00
C156   C     0.81561   0.25619   0.53057   0.00000  Uiso   1.00
C157   C     0.78308   0.24811   0.48978   0.00000  Uiso   1.00
C158   C     0.81330   0.20232   0.43767   0.00000  Uiso   1.00
C159   C     0.78327   0.26403   0.63901   0.00000  Uiso   1.00
C160   C     0.72355   0.26253   0.68938   0.00000  Uiso   1.00
C161   C     0.72654   0.22332   0.72855   0.00000  Uiso   1.00
H162   H     0.95013   0.20825   0.56190   0.00000  Uiso   1.00
H163   H     0.02022   0.30833   0.56454   0.00000  Uiso   1.00
H164   H     0.95330   0.14590   0.45926   0.00000  Uiso   1.00
H165   H     0.89379   0.16032   0.65883   0.00000  Uiso   1.00
H166   H     0.07123   0.43532   0.57224   0.00000  Uiso   1.00
H167   H     0.93012   0.09282   0.35026   0.00000  Uiso   1.00
H168   H     0.80462   0.12321   0.77109   0.00000  Uiso   1.00
H169   H     0.74433   0.33182   0.59882   0.00000  Uiso   1.00
H170   H     0.80313   0.43868   0.60349   0.00000  Uiso   1.00
H171   H     0.73621   0.27626   0.49820   0.00000  Uiso   1.00
H172   H     0.67670   0.29067   0.69777   0.00000  Uiso   1.00
H173   H     0.89503   0.54112   0.60385   0.00000  Uiso   1.00
H174   H     0.75392   0.19862   0.38187   0.00000  Uiso   1.00
H175   H     0.62842   0.22902   0.80269   0.00000  Uiso   1.00
O176   O     0.02553   0.55628   0.59043   0.00000  Uiso   1.00
O177   O     0.84040   0.10693   0.29921   0.00000  Uiso   1.00
O178   O     0.67574   0.14681   0.85132   0.00000  Uiso   1.00
N179   N     0.02169   0.44555   0.57905   0.00000  Uiso   1.00
N180   N     0.88977   0.12534   0.37151   0.00000  Uiso   1.00
N181   N     0.77243   0.15375   0.76494   0.00000  Uiso   1.00
N182   N     0.92688   0.50248   0.59606   0.00000  Uiso   1.00
N183   N     0.79496   0.18228   0.38852   0.00000  Uiso   1.00
N184   N     0.67761   0.21068   0.78194   0.00000  Uiso   1.00
C185   C     0.34137   0.96958   0.37849   0.00000  Uiso   1.00
C186   C     0.40390   0.92148   0.34879   0.00000  Uiso   1.00
C187   C     0.40367   0.85679   0.35086   0.00000  Uiso   1.00
C188   C     0.46621   0.82084   0.32078   0.00000  Uiso   1.00
C189   C     0.55408   0.74192   0.27935   0.00000  Uiso   1.00
C190   C     0.33603   0.00022   0.32799   0.00000  Uiso   1.00
C191   C     0.27872   0.00174   0.31259   0.00000  Uiso   1.00
C192   C     0.28412   0.03208   0.26500   0.00000  Uiso   1.00
C193   C     0.26660   0.07544   0.19131   0.00000  Uiso   1.00
C194   C     0.36059   0.02212   0.41955   0.00000  Uiso   1.00
C195   C     0.32392   0.04207   0.48113   0.00000  Uiso   1.00
C196   C     0.34999   0.09086   0.51062   0.00000  Uiso   1.00
C197   C     0.37060   0.16823   0.57910   0.00000  Uiso   1.00
C198   C     0.45286   0.02078   0.32138   0.00000  Uiso   1.00
C199   C     0.46446   0.94929   0.31777   0.00000  Uiso   1.00
C200   C     0.52702   0.91343   0.28768   0.00000  Uiso   1.00
C201   C     0.52687   0.84870   0.28970   0.00000  Uiso   1.00
C202   C     0.39658   0.02803   0.29697   0.00000  Uiso   1.00
C203   C     0.40207   0.05838   0.24940   0.00000  Uiso   1.00
C204   C     0.34478   0.05993   0.23392   0.00000  Uiso   1.00
C205   C     0.42114   0.04993   0.38853   0.00000  Uiso   1.00
C206   C     0.44727   0.09871   0.41794   0.00000  Uiso   1.00
C207   C     0.41065   0.11872   0.47955   0.00000  Uiso   1.00
H208   H     0.29422   0.94793   0.40264   0.00000  Uiso   1.00
H209   H     0.35679   0.83529   0.37487   0.00000  Uiso   1.00
H210   H     0.23186   0.98022   0.33660   0.00000  Uiso   1.00
H211   H     0.27706   0.02054   0.50511   0.00000  Uiso   1.00
H212   H     0.45286   0.72266   0.33038   0.00000  Uiso   1.00
H213   H     0.18943   0.02827   0.24971   0.00000  Uiso   1.00
H214   H     0.28473   0.11330   0.60505   0.00000  Uiso   1.00
H215   H     0.50001   0.04243   0.29723   0.00000  Uiso   1.00
H216   H     0.57387   0.93497   0.26367   0.00000  Uiso   1.00
H217   H     0.44893   0.07989   0.22541   0.00000  Uiso   1.00
H218   H     0.49413   0.12022   0.39392   0.00000  Uiso   1.00
H219   H     0.62905   0.80356   0.24013   0.00000  Uiso   1.00
H220   H     0.36561   0.10917   0.15946   0.00000  Uiso   1.00
H221   H     0.46092   0.19420   0.51480   0.00000  Uiso   1.00
O222   O     0.58582   0.69071   0.26506   0.00000  Uiso   1.00
O223   O     0.24020   0.09166   0.15923   0.00000  Uiso   1.00
O224   O     0.36525   0.20322   0.62543   0.00000  Uiso   1.00
N225   N     0.48419   0.75645   0.31375   0.00000  Uiso   1.00
N226   N     0.23790   0.04216   0.23832   0.00000  Uiso   1.00
N227   N     0.32699   0.12168   0.57054   0.00000  Uiso   1.00
N228   N     0.57899   0.79998   0.26519   0.00000  Uiso   1.00
N229   N     0.33271   0.08570   0.18976   0.00000  Uiso   1.00
N230   N     0.42180   0.16521   0.52197   0.00000  Uiso   1.00
C231   C     0.79928   0.82769   0.57491   0.00000  Uiso   1.00
C232   C     0.73499   0.79008   0.58636   0.00000  Uiso   1.00
C233   C     0.66802   0.81359   0.62338   0.00000  Uiso   1.00
C234   C     0.61632   0.77159   0.62788   0.00000  Uiso   1.00
C235   C     0.51424   0.72282   0.65042   0.00000  Uiso   1.00
C236   C     0.83294   0.82305   0.50660   0.00000  Uiso   1.00
C237   C     0.84834   0.87429   0.47655   0.00000  Uiso   1.00
C238   C     0.87911   0.86005   0.41390   0.00000  Uiso   1.00
C239   C     0.92915   0.86247   0.31261   0.00000  Uiso   1.00
C240   C     0.84857   0.79018   0.59213   0.00000  Uiso   1.00
C241   C     0.87714   0.81378   0.63399   0.00000  Uiso   1.00
C242   C     0.92108   0.77185   0.64334   0.00000  Uiso   1.00
C243   C     0.99539   0.72322   0.67485   0.00000  Uiso   1.00
C244   C     0.82653   0.71129   0.51708   0.00000  Uiso   1.00
C245   C     0.74979   0.72685   0.55495   0.00000  Uiso   1.00
C246   C     0.69817   0.68480   0.55940   0.00000  Uiso   1.00
C247   C     0.63115   0.70825   0.59641   0.00000  Uiso   1.00
C248   C     0.84774   0.75983   0.47519   0.00000  Uiso   1.00
C249   C     0.87849   0.74551   0.41257   0.00000  Uiso   1.00
C250   C     0.89393   0.79671   0.38243   0.00000  Uiso   1.00
C251   C     0.86337   0.72695   0.56072   0.00000  Uiso   1.00
C252   C     0.90728   0.68498   0.57001   0.00000  Uiso   1.00
C253   C     0.93590   0.70851   0.61187   0.00000  Uiso   1.00
H254   H     0.78775   0.87692   0.59936   0.00000  Uiso   1.00
H255   H     0.65659   0.86253   0.64767   0.00000  Uiso   1.00
H256   H     0.83689   0.92322   0.50087   0.00000  Uiso   1.00
H257   H     0.86567   0.86271   0.65828   0.00000  Uiso   1.00
H258   H     0.51770   0.81870   0.68737   0.00000  Uiso   1.00
H259   H     0.89789   0.94667   0.37783   0.00000  Uiso   1.00
H260   H     0.95859   0.81907   0.70977   0.00000  Uiso   1.00
H261   H     0.83805   0.66206   0.49262   0.00000  Uiso   1.00
H262   H     0.70964   0.63588   0.53508   0.00000  Uiso   1.00
H263   H     0.88994   0.69657   0.38828   0.00000  Uiso   1.00
H264   H     0.91872   0.63606   0.54569   0.00000  Uiso   1.00
H265   H     0.56075   0.63474   0.59599   0.00000  Uiso   1.00
H266   H     0.94095   0.76271   0.28644   0.00000  Uiso   1.00
H267   H     0.00164   0.63511   0.61838   0.00000  Uiso   1.00
O268   O     0.45384   0.71338   0.67152   0.00000  Uiso   1.00
O269   O     0.95265   0.88127   0.26541   0.00000  Uiso   1.00
O270   O     0.03228   0.71386   0.70091   0.00000  Uiso   1.00
N271   N     0.54545   0.77899   0.66005   0.00000  Uiso   1.00
N272   N     0.90090   0.89864   0.37064   0.00000  Uiso   1.00
N273   N     0.95766   0.77935   0.68096   0.00000  Uiso   1.00
N274   N     0.56862   0.68001   0.61087   0.00000  Uiso   1.00
N275   N     0.92407   0.79965   0.32147   0.00000  Uiso   1.00
N276   N     0.98083   0.68036   0.63179   0.00000  Uiso   1.00
C277   C     0.83597   0.18459   0.04473   0.00000  Uiso   1.00
C278   C     0.76892   0.22637   0.07867   0.00000  Uiso   1.00
C279   C     0.70318   0.20763   0.08606   0.00000  Uiso   1.00
C280   C     0.64849   0.25290   0.11861   0.00000  Uiso   1.00
C281   C     0.54274   0.30837   0.16765   0.00000  Uiso   1.00
C282   C     0.87099   0.18504   0.08959   0.00000  Uiso   1.00
C283   C     0.89108   0.13154   0.10614   0.00000  Uiso   1.00
C284   C     0.92232   0.14202   0.14787   0.00000  Uiso   1.00
C285   C     0.97509   0.13331   0.21382   0.00000  Uiso   1.00
C286   C     0.88153   0.22030   0.99656   0.00000  Uiso   1.00
C287   C     0.91051   0.19644   0.93489   0.00000  Uiso   1.00
C288   C     0.95065   0.23661   0.89830   0.00000  Uiso   1.00
C289   C     0.01979   0.28266   0.81980   0.00000  Uiso   1.00
C290   C     0.85573   0.29833   0.08941   0.00000  Uiso   1.00
C291   C     0.77965   0.28815   0.10295   0.00000  Uiso   1.00
C292   C     0.72504   0.33347   0.13549   0.00000  Uiso   1.00
C293   C     0.65924   0.31479   0.14292   0.00000  Uiso   1.00
C294   C     0.88172   0.24682   0.11386   0.00000  Uiso   1.00
C295   C     0.91294   0.25738   0.15557   0.00000  Uiso   1.00
C296   C     0.93307   0.20391   0.17219   0.00000  Uiso   1.00
C297   C     0.89227   0.28208   0.02083   0.00000  Uiso   1.00
C298   C     0.93237   0.32229   0.98432   0.00000  Uiso   1.00
C299   C     0.96140   0.29850   0.92261   0.00000  Uiso   1.00
H300   H     0.82761   0.13649   0.02584   0.00000  Uiso   1.00
H301   H     0.69490   0.15981   0.06727   0.00000  Uiso   1.00
H302   H     0.88277   0.08373   0.08734   0.00000  Uiso   1.00
H303   H     0.90220   0.14863   0.91612   0.00000  Uiso   1.00
H304   H     0.55249   0.21290   0.12393   0.00000  Uiso   1.00
H305   H     0.94866   0.05249   0.16624   0.00000  Uiso   1.00
H306   H     0.98962   0.18934   0.80518   0.00000  Uiso   1.00
H307   H     0.86409   0.34643   0.10831   0.00000  Uiso   1.00
H308   H     0.73337   0.38128   0.15427   0.00000  Uiso   1.00
H309   H     0.92124   0.30519   0.17434   0.00000  Uiso   1.00
H310   H     0.94067   0.37010   0.00312   0.00000  Uiso   1.00
H311   H     0.58371   0.39265   0.19454   0.00000  Uiso   1.00
H312   H     0.97988   0.23223   0.23685   0.00000  Uiso   1.00
H313   H     0.02084   0.36909   0.87579   0.00000  Uiso   1.00
O314   O     0.48145   0.32190   0.18800   0.00000  Uiso   1.00
O315   O     0.00122   0.11144   0.24350   0.00000  Uiso   1.00
O316   O     0.05495   0.29099   0.76980   0.00000  Uiso   1.00
N317   N     0.57778   0.25043   0.13423   0.00000  Uiso   1.00
N318   N     0.94816   0.10045   0.17380   0.00000  Uiso   1.00
N319   N     0.98647   0.22839   0.83624   0.00000  Uiso   1.00
N320   N     0.59458   0.34715   0.17223   0.00000  Uiso   1.00
N321   N     0.96496   0.19717   0.21179   0.00000  Uiso   1.00
N322   N     0.00327   0.32511   0.87423   0.00000  Uiso   1.00
C323   C     0.85256   0.75778   0.01201   0.00000  Uiso   1.00
C324   C     0.87646   0.68701   0.99419   0.00000  Uiso   1.00
C325   C     0.94206   0.66138   0.95539   0.00000  Uiso   1.00
C326   C     0.95366   0.59546   0.94486   0.00000  Uiso   1.00
C327   C     0.99873   0.49149   0.91307   0.00000  Uiso   1.00
C328   C     0.82560   0.77339   0.08085   0.00000  Uiso   1.00
C329   C     0.84843   0.82040   0.11490   0.00000  Uiso   1.00
C330   C     0.81721   0.82719   0.17732   0.00000  Uiso   1.00
C331   C     0.78329   0.85736   0.28006   0.00000  Uiso   1.00
C332   C     0.78979   0.76392   0.99547   0.00000  Uiso   1.00
C333   C     0.78249   0.80298   0.95775   0.00000  Uiso   1.00
C334   C     0.72110   0.80181   0.94831   0.00000  Uiso   1.00
C335   C     0.63157   0.81728   0.91849   0.00000  Uiso   1.00
C336   C     0.75652   0.68626   0.06233   0.00000  Uiso   1.00
C337   C     0.82430   0.64817   0.02153   0.00000  Uiso   1.00
C338   C     0.83580   0.58226   0.01106   0.00000  Uiso   1.00
C339   C     0.90140   0.55654   0.97224   0.00000  Uiso   1.00
C340   C     0.77344   0.73455   0.10818   0.00000  Uiso   1.00
C341   C     0.74218   0.74128   0.17057   0.00000  Uiso   1.00
C342   C     0.76495   0.78828   0.20470   0.00000  Uiso   1.00
C343   C     0.73762   0.72508   0.02280   0.00000  Uiso   1.00
C344   C     0.67624   0.72385   0.01342   0.00000  Uiso   1.00
C345   C     0.66885   0.76290   0.97569   0.00000  Uiso   1.00
H346   H     0.89317   0.78802   0.99074   0.00000  Uiso   1.00
H347   H     0.98241   0.69146   0.93425   0.00000  Uiso   1.00
H348   H     0.88880   0.85046   0.09374   0.00000  Uiso   1.00
H349   H     0.82287   0.83304   0.93661   0.00000  Uiso   1.00
H350   H     0.05836   0.56728   0.88369   0.00000  Uiso   1.00
H351   H     0.86095   0.90254   0.21998   0.00000  Uiso   1.00
H352   H     0.72192   0.86581   0.88865   0.00000  Uiso   1.00
H353   H     0.71590   0.65602   0.08361   0.00000  Uiso   1.00
H354   H     0.79542   0.55221   0.03221   0.00000  Uiso   1.00
H355   H     0.70181   0.71121   0.19170   0.00000  Uiso   1.00
H356   H     0.63588   0.69379   0.03458   0.00000  Uiso   1.00
H357   H     0.90660   0.45426   0.96321   0.00000  Uiso   1.00
H358   H     0.70918   0.78953   0.29949   0.00000  Uiso   1.00
H359   H     0.57016   0.75279   0.96817   0.00000  Uiso   1.00
O360   O     0.03800   0.44487   0.88798   0.00000  Uiso   1.00
O361   O     0.77899   0.88473   0.32918   0.00000  Uiso   1.00
O362   O     0.59659   0.83653   0.89448   0.00000  Uiso   1.00
N363   N     0.01173   0.55493   0.90945   0.00000  Uiso   1.00
N364   N     0.82717   0.86837   0.22386   0.00000  Uiso   1.00
N365   N     0.69718   0.83404   0.91411   0.00000  Uiso   1.00
N366   N     0.93006   0.49411   0.95224   0.00000  Uiso   1.00
N367   N     0.74550   0.80756   0.26664   0.00000  Uiso   1.00
N368   N     0.61552   0.77323   0.95689   0.00000  Uiso   1.00
C369   C     0.28279   0.02429   0.90265   0.00000  Uiso   1.00
C370   C     0.34835   0.06018   0.88974   0.00000  Uiso   1.00
C371   C     0.35375   0.12371   0.88347   0.00000  Uiso   1.00
C372   C     0.41827   0.14768   0.87175   0.00000  Uiso   1.00
C373   C     0.51139   0.20924   0.85254   0.00000  Uiso   1.00
C374   C     0.27189   0.99814   0.95988   0.00000  Uiso   1.00
C375   C     0.21300   0.00950   0.01258   0.00000  Uiso   1.00
C376   C     0.21315   0.98123   0.05990   0.00000  Uiso   1.00
C377   C     0.18755   0.94643   0.14957   0.00000  Uiso   1.00
C378   C     0.30006   0.96629   0.85172   0.00000  Uiso   1.00
C379   C     0.26484   0.95087   0.81347   0.00000  Uiso   1.00
C380   C     0.28870   0.89578   0.76974   0.00000  Uiso   1.00
C381   C     0.30684   0.81154   0.69146   0.00000  Uiso   1.00
C382   C     0.38778   0.95388   0.89300   0.00000  Uiso   1.00
C383   C     0.40538   0.02193   0.88450   0.00000  Uiso   1.00
C384   C     0.46991   0.04581   0.87279   0.00000  Uiso   1.00
C385   C     0.47539   0.10937   0.86650   0.00000  Uiso   1.00
C386   C     0.32892   0.95990   0.95464   0.00000  Uiso   1.00
C387   C     0.32915   0.93160   0.00190   0.00000  Uiso   1.00
C388   C     0.27028   0.94292   0.05465   0.00000  Uiso   1.00
C389   C     0.35709   0.92805   0.84647   0.00000  Uiso   1.00
C390   C     0.38100   0.87297   0.80280   0.00000  Uiso   1.00
C391   C     0.34583   0.85747   0.76449   0.00000  Uiso   1.00
H392   H     0.23839   0.05406   0.90673   0.00000  Uiso   1.00
H393   H     0.30960   0.15329   0.88753   0.00000  Uiso   1.00
H394   H     0.16887   0.03909   0.01662   0.00000  Uiso   1.00
H395   H     0.22072   0.98047   0.81754   0.00000  Uiso   1.00
H396   H     0.41370   0.24645   0.86396   0.00000  Uiso   1.00
H397   H     0.11695   0.00564   0.13613   0.00000  Uiso   1.00
H398   H     0.22627   0.88203   0.71635   0.00000  Uiso   1.00
H399   H     0.43217   0.92410   0.88892   0.00000  Uiso   1.00
H400   H     0.51402   0.01620   0.86874   0.00000  Uiso   1.00
H401   H     0.37329   0.90200   0.99782   0.00000  Uiso   1.00
H402   H     0.42513   0.84339   0.79875   0.00000  Uiso   1.00
H403   H     0.57961   0.13519   0.84871   0.00000  Uiso   1.00
H404   H     0.28287   0.89437   0.12088   0.00000  Uiso   1.00
H405   H     0.39218   0.77076   0.70110   0.00000  Uiso   1.00
O406   O     0.54700   0.25376   0.84340   0.00000  Uiso   1.00
O407   O     0.15767   0.93781   0.20047   0.00000  Uiso   1.00
O408   O     0.30110   0.77564   0.64973   0.00000  Uiso   1.00
N409   N     0.44152   0.20762   0.86312   0.00000  Uiso   1.00
N410   N     0.16408   0.98249   0.11759   0.00000  Uiso   1.00
N411   N     0.26627   0.86691   0.72514   0.00000  Uiso   1.00
N412   N     0.53079   0.14775   0.85492   0.00000  Uiso   1.00
N413   N     0.25336   0.92261   0.10939   0.00000  Uiso   1.00
N414   N     0.35555   0.80704   0.71694   0.00000  Uiso   1.00
C415   C     0.09702   0.76344   0.42964   0.00000  Uiso   1.00
C416   C     0.08748   0.69193   0.42308   0.00000  Uiso   1.00
C417   C     0.02664   0.66351   0.42704   0.00000  Uiso   1.00
C418   C     0.02850   0.59737   0.41976   0.00000  Uiso   1.00
C419   C     0.00446   0.49186   0.41125   0.00000  Uiso   1.00
C420   C     0.12383   0.78017   0.48029   0.00000  Uiso   1.00
C421   C     0.09356   0.82596   0.53235   0.00000  Uiso   1.00
C422   C     0.12603   0.83410   0.57321   0.00000  Uiso   1.00
C423   C     0.15846   0.86563   0.65350   0.00000  Uiso   1.00
C424   C     0.15616   0.77234   0.37185   0.00000  Uiso   1.00
C425   C     0.15309   0.81155   0.33275   0.00000  Uiso   1.00
C426   C     0.21279   0.81310   0.28233   0.00000  Uiso   1.00
C427   C     0.29542   0.83247   0.19426   0.00000  Uiso   1.00
C428   C     0.20852   0.69649   0.40964   0.00000  Uiso   1.00
C429   C     0.14804   0.65557   0.41222   0.00000  Uiso   1.00
C430   C     0.15000   0.58944   0.40492   0.00000  Uiso   1.00
C431   C     0.08917   0.56094   0.40887   0.00000  Uiso   1.00
C432   C     0.18439   0.74381   0.46943   0.00000  Uiso   1.00
C433   C     0.21692   0.75189   0.51022   0.00000  Uiso   1.00
C434   C     0.18670   0.79768   0.56233   0.00000  Uiso   1.00
C435   C     0.21673   0.73597   0.36099   0.00000  Uiso   1.00
C436   C     0.27645   0.73747   0.31062   0.00000  Uiso   1.00
C437   C     0.27346   0.77668   0.27145   0.00000  Uiso   1.00
H438   H     0.04987   0.79175   0.43810   0.00000  Uiso   1.00
H439   H     0.97978   0.69167   0.43546   0.00000  Uiso   1.00
H440   H     0.04670   0.85410   0.54074   0.00000  Uiso   1.00
H441   H     0.10621   0.83968   0.34117   0.00000  Uiso   1.00
H442   H     0.92877   0.56468   0.42776   0.00000  Uiso   1.00
H443   H     0.06988   0.90718   0.64974   0.00000  Uiso   1.00
H444   H     0.19538   0.87679   0.22891   0.00000  Uiso   1.00
H445   H     0.25567   0.66818   0.40118   0.00000  Uiso   1.00
H446   H     0.19687   0.56132   0.39651   0.00000  Uiso   1.00
H447   H     0.26379   0.72374   0.50180   0.00000  Uiso   1.00
H448   H     0.32330   0.70933   0.30223   0.00000  Uiso   1.00
H449   H     0.10497   0.45888   0.39615   0.00000  Uiso   1.00
H450   H     0.24608   0.80138   0.61813   0.00000  Uiso   1.00
H451   H     0.37158   0.77098   0.19731   0.00000  Uiso   1.00
O452   O     0.97447   0.44372   0.40957   0.00000  Uiso   1.00
O453   O     0.15960   0.89307   0.70079   0.00000  Uiso   1.00
O454   O     0.32426   0.85319   0.14868   0.00000  Uiso   1.00
N455   N     0.97831   0.55445   0.42095   0.00000  Uiso   1.00
N456   N     0.11023   0.87466   0.62849   0.00000  Uiso   1.00
N457   N     0.22757   0.84625   0.23506   0.00000  Uiso   1.00
N458   N     0.07312   0.49752   0.40394   0.00000  Uiso   1.00
N459   N     0.20504   0.81772   0.61148   0.00000  Uiso   1.00
N460   N     0.32239   0.78932   0.21806   0.00000  Uiso   1.00
C461   C     0.65863   0.03042   0.62151   0.00000  Uiso   1.00
C462   C     0.59610   0.07852   0.65121   0.00000  Uiso   1.00
C463   C     0.59633   0.14321   0.64914   0.00000  Uiso   1.00
C464   C     0.53379   0.17916   0.67922   0.00000  Uiso   1.00
C465   C     0.44592   0.25808   0.72065   0.00000  Uiso   1.00
C466   C     0.66397   0.99978   0.67201   0.00000  Uiso   1.00
C467   C     0.72128   0.99826   0.68741   0.00000  Uiso   1.00
C468   C     0.71588   0.96792   0.73500   0.00000  Uiso   1.00
C469   C     0.73340   0.92456   0.80869   0.00000  Uiso   1.00
C470   C     0.63941   0.97788   0.58045   0.00000  Uiso   1.00
C471   C     0.67608   0.95793   0.51887   0.00000  Uiso   1.00
C472   C     0.65001   0.90914   0.48938   0.00000  Uiso   1.00
C473   C     0.62940   0.83177   0.42090   0.00000  Uiso   1.00
C474   C     0.54714   0.97922   0.67862   0.00000  Uiso   1.00
C475   C     0.53554   0.05071   0.68223   0.00000  Uiso   1.00
C476   C     0.47298   0.08657   0.71232   0.00000  Uiso   1.00
C477   C     0.47313   0.15130   0.71030   0.00000  Uiso   1.00
C478   C     0.60342   0.97197   0.70303   0.00000  Uiso   1.00
C479   C     0.59793   0.94162   0.75060   0.00000  Uiso   1.00
C480   C     0.65522   0.94007   0.76608   0.00000  Uiso   1.00
C481   C     0.57886   0.95007   0.61147   0.00000  Uiso   1.00
C482   C     0.55273   0.90129   0.58206   0.00000  Uiso   1.00
C483   C     0.58935   0.88128   0.52045   0.00000  Uiso   1.00
H484   H     0.70578   0.05207   0.59736   0.00000  Uiso   1.00
H485   H     0.64321   0.16471   0.62513   0.00000  Uiso   1.00
H486   H     0.76814   0.01978   0.66340   0.00000  Uiso   1.00
H487   H     0.72294   0.97946   0.49489   0.00000  Uiso   1.00
H488   H     0.54714   0.27734   0.66962   0.00000  Uiso   1.00
H489   H     0.81057   0.97173   0.75029   0.00000  Uiso   1.00
H490   H     0.71527   0.88670   0.39495   0.00000  Uiso   1.00
H491   H     0.49999   0.95757   0.70277   0.00000  Uiso   1.00
H492   H     0.42613   0.06503   0.73633   0.00000  Uiso   1.00
H493   H     0.55107   0.92011   0.77459   0.00000  Uiso   1.00
H494   H     0.50587   0.87978   0.60608   0.00000  Uiso   1.00
H495   H     0.37095   0.19644   0.75987   0.00000  Uiso   1.00
H496   H     0.63439   0.89083   0.84054   0.00000  Uiso   1.00
H497   H     0.53908   0.80580   0.48520   0.00000  Uiso   1.00
O498   O     0.41418   0.30929   0.73494   0.00000  Uiso   1.00
O499   O     0.75980   0.90834   0.84077   0.00000  Uiso   1.00
O500   O     0.63475   0.79678   0.37457   0.00000  Uiso   1.00
N501   N     0.51581   0.24355   0.68625   0.00000  Uiso   1.00
N502   N     0.76210   0.95784   0.76168   0.00000  Uiso   1.00
N503   N     0.67301   0.87832   0.42946   0.00000  Uiso   1.00
N504   N     0.42101   0.20002   0.73481   0.00000  Uiso   1.00
N505   N     0.66729   0.91430   0.81024   0.00000  Uiso   1.00
N506   N     0.57820   0.83479   0.47803   0.00000  Uiso   1.00
C507   C     0.20072   0.17231   0.42509   0.00000  Uiso   1.00
C508   C     0.26501   0.20992   0.41364   0.00000  Uiso   1.00
C509   C     0.33198   0.18641   0.37662   0.00000  Uiso   1.00
C510   C     0.38368   0.22841   0.37212   0.00000  Uiso   1.00
C511   C     0.48576   0.27718   0.34958   0.00000  Uiso   1.00
C512   C     0.16706   0.17695   0.49340   0.00000  Uiso   1.00
C513   C     0.15166   0.12571   0.52345   0.00000  Uiso   1.00
C514   C     0.12089   0.13995   0.58610   0.00000  Uiso   1.00
C515   C     0.07085   0.13753   0.68739   0.00000  Uiso   1.00
C516   C     0.15143   0.20982   0.40787   0.00000  Uiso   1.00
C517   C     0.12286   0.18622   0.36601   0.00000  Uiso   1.00
C518   C     0.07892   0.22815   0.35666   0.00000  Uiso   1.00
C519   C     0.00461   0.27678   0.32515   0.00000  Uiso   1.00
C520   C     0.17347   0.28871   0.48292   0.00000  Uiso   1.00
C521   C     0.25021   0.27315   0.44505   0.00000  Uiso   1.00
C522   C     0.30183   0.31520   0.44060   0.00000  Uiso   1.00
C523   C     0.36885   0.29175   0.40359   0.00000  Uiso   1.00
C524   C     0.15226   0.24017   0.52481   0.00000  Uiso   1.00
C525   C     0.12151   0.25449   0.58743   0.00000  Uiso   1.00
C526   C     0.10607   0.20329   0.61757   0.00000  Uiso   1.00
C527   C     0.13663   0.27305   0.43928   0.00000  Uiso   1.00
C528   C     0.09272   0.31502   0.42999   0.00000  Uiso   1.00
C529   C     0.06410   0.29149   0.38813   0.00000  Uiso   1.00
H530   H     0.21225   0.12308   0.40064   0.00000  Uiso   1.00
H531   H     0.34341   0.13747   0.35233   0.00000  Uiso   1.00
H532   H     0.16311   0.07678   0.49913   0.00000  Uiso   1.00
H533   H     0.13433   0.13729   0.34172   0.00000  Uiso   1.00
H534   H     0.48230   0.18130   0.31263   0.00000  Uiso   1.00
H535   H     0.10211   0.05333   0.62217   0.00000  Uiso   1.00
H536   H     0.04141   0.18093   0.29023   0.00000  Uiso   1.00
H537   H     0.16195   0.33794   0.50738   0.00000  Uiso   1.00
H538   H     0.29036   0.36412   0.46492   0.00000  Uiso   1.00
H539   H     0.11006   0.30343   0.61172   0.00000  Uiso   1.00
H540   H     0.08128   0.36394   0.45431   0.00000  Uiso   1.00
H541   H     0.43925   0.36526   0.40401   0.00000  Uiso   1.00
H542   H     0.05905   0.23729   0.71356   0.00000  Uiso   1.00
H543   H     0.99836   0.36489   0.38162   0.00000  Uiso   1.00
O544   O     0.54616   0.28662   0.32848   0.00000  Uiso   1.00
O545   O     0.04735   0.11873   0.73459   0.00000  Uiso   1.00
O546   O     0.96772   0.28614   0.29909   0.00000  Uiso   1.00
N547   N     0.45455   0.22101   0.33995   0.00000  Uiso   1.00
N548   N     0.09910   0.10136   0.62936   0.00000  Uiso   1.00
N549   N     0.04234   0.22065   0.31904   0.00000  Uiso   1.00
N550   N     0.43138   0.31999   0.38913   0.00000  Uiso   1.00
N551   N     0.07593   0.20035   0.67853   0.00000  Uiso   1.00
N552   N     0.01917   0.31964   0.36821   0.00000  Uiso   1.00
