data_job_01408
_audit_creation_date              2018-12-19
_audit_creation_method            'Materials Studio'
_symmetry_space_group_name_H-M    'P1'
_symmetry_Int_Tables_number       1
_symmetry_cell_setting            triclinic
loop_
_symmetry_equiv_pos_as_xyz
  x,y,z
_cell_length_a                    21.4349
_cell_length_b                    12.8160
_cell_length_c                    16.4437
_cell_angle_alpha                 90.0000
_cell_angle_beta                  90.0000
_cell_angle_gamma                 90.0000
loop_
_atom_site_label
_atom_site_type_symbol
_atom_site_fract_x
_atom_site_fract_y
_atom_site_fract_z
_atom_site_U_iso_or_equiv
_atom_site_adp_type
_atom_site_occupancy
C1     C     0.53155   0.88571   0.27654   0.00000  Uiso   1.00
C2     C     0.55794   0.96677   0.33507   0.00000  Uiso   1.00
C3     C     0.56008   0.95773   0.41913   0.00000  Uiso   1.00
C4     C     0.58604   0.04045   0.46188   0.00000  Uiso   1.00
C5     C     0.62348   0.15286   0.55885   0.00000  Uiso   1.00
C6     C     0.48166   0.94183   0.22696   0.00000  Uiso   1.00
C7     C     0.41968   0.91181   0.22012   0.00000  Uiso   1.00
C8     C     0.38143   0.97353   0.17185   0.00000  Uiso   1.00
C9     C     0.30047   0.04718   0.10093   0.00000  Uiso   1.00
C10    C     0.58404   0.86023   0.21717   0.00000  Uiso   1.00
C11    C     0.60812   0.76160   0.20207   0.00000  Uiso   1.00
C12    C     0.65606   0.75462   0.14555   0.00000  Uiso   1.00
C13    C     0.73406   0.70158   0.05943   0.00000  Uiso   1.00
C14    C     0.57385   0.04869   0.20299   0.00000  Uiso   1.00
C15    C     0.58091   0.05530   0.29512   0.00000  Uiso   1.00
C16    C     0.60687   0.13805   0.33775   0.00000  Uiso   1.00
C17    C     0.60905   0.12913   0.42186   0.00000  Uiso   1.00
C18    C     0.50463   0.03035   0.18702   0.00000  Uiso   1.00
C19    C     0.46647   0.09213   0.13874   0.00000  Uiso   1.00
C20    C     0.40444   0.06222   0.13183   0.00000  Uiso   1.00
C21    C     0.60702   0.94876   0.17722   0.00000  Uiso   1.00
C22    C     0.65492   0.94193   0.12070   0.00000  Uiso   1.00
C23    C     0.67908   0.84330   0.10552   0.00000  Uiso   1.00
H24    H     0.51367   0.81680   0.30764   0.00000  Uiso   1.00
H25    H     0.54229   0.88921   0.45002   0.00000  Uiso   1.00
H26    H     0.40191   0.84330   0.25103   0.00000  Uiso   1.00
H27    H     0.59033   0.69312   0.23300   0.00000  Uiso   1.00
H28    H     0.58414   0.00856   0.59026   0.00000  Uiso   1.00
H29    H     0.28815   0.91172   0.17067   0.00000  Uiso   1.00
H30    H     0.68547   0.59503   0.13263   0.00000  Uiso   1.00
H31    H     0.59174   0.11762   0.17188   0.00000  Uiso   1.00
H32    H     0.62465   0.20655   0.30682   0.00000  Uiso   1.00
H33    H     0.48427   0.16063   0.10783   0.00000  Uiso   1.00
H34    H     0.67269   0.01045   0.08980   0.00000  Uiso   1.00
H35    H     0.65098   0.26612   0.47404   0.00000  Uiso   1.00
H36    H     0.35499   0.16927   0.05443   0.00000  Uiso   1.00
H37    H     0.75231   0.85259   0.01641   0.00000  Uiso   1.00
O38    O     0.63778   0.19042   0.62337   0.00000  Uiso   1.00
O39    O     0.24946   0.06336   0.07286   0.00000  Uiso   1.00
O40    O     0.77073   0.64787   0.02297   0.00000  Uiso   1.00
N41    N     0.59536   0.05696   0.54439   0.00000  Uiso   1.00
N42    N     0.31863   0.96643   0.15210   0.00000  Uiso   1.00
N43    N     0.69008   0.67035   0.11653   0.00000  Uiso   1.00
N44    N     0.63133   0.19555   0.48185   0.00000  Uiso   1.00
N45    N     0.35460   0.10502   0.08956   0.00000  Uiso   1.00
N46    N     0.72605   0.80894   0.05399   0.00000  Uiso   1.00
C47    C     0.96845   0.11429   0.77654   0.00000  Uiso   1.00
C48    C     0.94206   0.03323   0.83507   0.00000  Uiso   1.00
C49    C     0.93992   0.04227   0.91913   0.00000  Uiso   1.00
C50    C     0.91396   0.95955   0.96188   0.00000  Uiso   1.00
C51    C     0.87652   0.84714   0.05885   0.00000  Uiso   1.00
C52    C     0.01834   0.05817   0.72696   0.00000  Uiso   1.00
C53    C     0.08032   0.08819   0.72012   0.00000  Uiso   1.00
C54    C     0.11857   0.02647   0.67185   0.00000  Uiso   1.00
C55    C     0.19953   0.95282   0.60093   0.00000  Uiso   1.00
C56    C     0.91596   0.13977   0.71717   0.00000  Uiso   1.00
C57    C     0.89188   0.23840   0.70207   0.00000  Uiso   1.00
C58    C     0.84394   0.24538   0.64555   0.00000  Uiso   1.00
C59    C     0.76594   0.29842   0.55943   0.00000  Uiso   1.00
C60    C     0.92615   0.95131   0.70299   0.00000  Uiso   1.00
C61    C     0.91909   0.94470   0.79512   0.00000  Uiso   1.00
C62    C     0.89313   0.86195   0.83775   0.00000  Uiso   1.00
C63    C     0.89095   0.87087   0.92186   0.00000  Uiso   1.00
C64    C     0.99537   0.96965   0.68702   0.00000  Uiso   1.00
C65    C     0.03353   0.90787   0.63874   0.00000  Uiso   1.00
C66    C     0.09556   0.93778   0.63183   0.00000  Uiso   1.00
C67    C     0.89298   0.05124   0.67722   0.00000  Uiso   1.00
C68    C     0.84508   0.05807   0.62070   0.00000  Uiso   1.00
C69    C     0.82092   0.15670   0.60552   0.00000  Uiso   1.00
H70    H     0.98633   0.18320   0.80764   0.00000  Uiso   1.00
H71    H     0.95771   0.11079   0.95002   0.00000  Uiso   1.00
H72    H     0.09809   0.15670   0.75103   0.00000  Uiso   1.00
H73    H     0.90967   0.30688   0.73300   0.00000  Uiso   1.00
H74    H     0.91586   0.99144   0.09026   0.00000  Uiso   1.00
H75    H     0.21185   0.08828   0.67067   0.00000  Uiso   1.00
H76    H     0.81453   0.40497   0.63263   0.00000  Uiso   1.00
H77    H     0.90826   0.88238   0.67188   0.00000  Uiso   1.00
H78    H     0.87535   0.79345   0.80682   0.00000  Uiso   1.00
H79    H     0.01573   0.83937   0.60783   0.00000  Uiso   1.00
H80    H     0.82731   0.98955   0.58980   0.00000  Uiso   1.00
H81    H     0.84902   0.73388   0.97404   0.00000  Uiso   1.00
H82    H     0.14501   0.83073   0.55443   0.00000  Uiso   1.00
H83    H     0.74769   0.14741   0.51641   0.00000  Uiso   1.00
O84    O     0.86222   0.80958   0.12337   0.00000  Uiso   1.00
O85    O     0.25054   0.93664   0.57286   0.00000  Uiso   1.00
O86    O     0.72927   0.35213   0.52297   0.00000  Uiso   1.00
N87    N     0.90464   0.94304   0.04439   0.00000  Uiso   1.00
N88    N     0.18137   0.03357   0.65210   0.00000  Uiso   1.00
N89    N     0.80992   0.32965   0.61653   0.00000  Uiso   1.00
N90    N     0.86867   0.80445   0.98185   0.00000  Uiso   1.00
N91    N     0.14540   0.89498   0.58956   0.00000  Uiso   1.00
N92    N     0.77395   0.19106   0.55399   0.00000  Uiso   1.00
C93    C     0.46845   0.38571   0.22346   0.00000  Uiso   1.00
C94    C     0.44206   0.46677   0.16493   0.00000  Uiso   1.00
C95    C     0.43992   0.45773   0.08087   0.00000  Uiso   1.00
C96    C     0.41396   0.54045   0.03812   0.00000  Uiso   1.00
C97    C     0.37652   0.65286   0.94115   0.00000  Uiso   1.00
C98    C     0.51834   0.44183   0.27304   0.00000  Uiso   1.00
C99    C     0.58032   0.41181   0.27988   0.00000  Uiso   1.00
C100   C     0.61857   0.47353   0.32815   0.00000  Uiso   1.00
C101   C     0.69953   0.54718   0.39907   0.00000  Uiso   1.00
C102   C     0.41596   0.36023   0.28283   0.00000  Uiso   1.00
C103   C     0.39188   0.26160   0.29793   0.00000  Uiso   1.00
C104   C     0.34394   0.25462   0.35445   0.00000  Uiso   1.00
C105   C     0.26594   0.20158   0.44057   0.00000  Uiso   1.00
C106   C     0.42615   0.54869   0.29701   0.00000  Uiso   1.00
C107   C     0.41909   0.55530   0.20488   0.00000  Uiso   1.00
C108   C     0.39313   0.63805   0.16225   0.00000  Uiso   1.00
C109   C     0.39095   0.62913   0.07814   0.00000  Uiso   1.00
C110   C     0.49537   0.53035   0.31298   0.00000  Uiso   1.00
C111   C     0.53353   0.59213   0.36126   0.00000  Uiso   1.00
C112   C     0.59556   0.56222   0.36817   0.00000  Uiso   1.00
C113   C     0.39298   0.44876   0.32278   0.00000  Uiso   1.00
C114   C     0.34508   0.44193   0.37930   0.00000  Uiso   1.00
C115   C     0.32092   0.34330   0.39448   0.00000  Uiso   1.00
H116   H     0.48633   0.31680   0.19236   0.00000  Uiso   1.00
H117   H     0.45771   0.38921   0.04998   0.00000  Uiso   1.00
H118   H     0.59809   0.34330   0.24897   0.00000  Uiso   1.00
H119   H     0.40967   0.19312   0.26700   0.00000  Uiso   1.00
H120   H     0.41586   0.50856   0.90974   0.00000  Uiso   1.00
H121   H     0.71185   0.41172   0.32933   0.00000  Uiso   1.00
H122   H     0.31453   0.09503   0.36737   0.00000  Uiso   1.00
H123   H     0.40826   0.61762   0.32812   0.00000  Uiso   1.00
H124   H     0.37535   0.70655   0.19318   0.00000  Uiso   1.00
H125   H     0.51573   0.66063   0.39217   0.00000  Uiso   1.00
H126   H     0.32731   0.51045   0.41020   0.00000  Uiso   1.00
H127   H     0.34902   0.76612   0.02596   0.00000  Uiso   1.00
H128   H     0.64501   0.66927   0.44557   0.00000  Uiso   1.00
H129   H     0.24769   0.35259   0.48359   0.00000  Uiso   1.00
O130   O     0.36222   0.69042   0.87663   0.00000  Uiso   1.00
O131   O     0.75054   0.56336   0.42714   0.00000  Uiso   1.00
O132   O     0.22927   0.14787   0.47703   0.00000  Uiso   1.00
N133   N     0.40464   0.55696   0.95561   0.00000  Uiso   1.00
N134   N     0.68137   0.46643   0.34790   0.00000  Uiso   1.00
N135   N     0.30992   0.17035   0.38347   0.00000  Uiso   1.00
N136   N     0.36867   0.69555   0.01815   0.00000  Uiso   1.00
N137   N     0.64540   0.60502   0.41044   0.00000  Uiso   1.00
N138   N     0.27395   0.30894   0.44601   0.00000  Uiso   1.00
C139   C     0.03155   0.61429   0.72346   0.00000  Uiso   1.00
C140   C     0.05794   0.53323   0.66493   0.00000  Uiso   1.00
C141   C     0.06008   0.54227   0.58087   0.00000  Uiso   1.00
C142   C     0.08604   0.45955   0.53812   0.00000  Uiso   1.00
C143   C     0.12348   0.34714   0.44115   0.00000  Uiso   1.00
C144   C     0.98166   0.55817   0.77304   0.00000  Uiso   1.00
C145   C     0.91968   0.58819   0.77988   0.00000  Uiso   1.00
C146   C     0.88143   0.52647   0.82815   0.00000  Uiso   1.00
C147   C     0.80047   0.45282   0.89907   0.00000  Uiso   1.00
C148   C     0.08404   0.63977   0.78283   0.00000  Uiso   1.00
C149   C     0.10812   0.73840   0.79793   0.00000  Uiso   1.00
C150   C     0.15606   0.74538   0.85445   0.00000  Uiso   1.00
C151   C     0.23406   0.79842   0.94057   0.00000  Uiso   1.00
C152   C     0.07385   0.45131   0.79701   0.00000  Uiso   1.00
C153   C     0.08091   0.44470   0.70488   0.00000  Uiso   1.00
C154   C     0.10687   0.36195   0.66225   0.00000  Uiso   1.00
C155   C     0.10905   0.37087   0.57814   0.00000  Uiso   1.00
C156   C     0.00463   0.46965   0.81298   0.00000  Uiso   1.00
C157   C     0.96647   0.40787   0.86126   0.00000  Uiso   1.00
C158   C     0.90444   0.43778   0.86817   0.00000  Uiso   1.00
C159   C     0.10702   0.55124   0.82278   0.00000  Uiso   1.00
C160   C     0.15492   0.55807   0.87930   0.00000  Uiso   1.00
C161   C     0.17908   0.65670   0.89448   0.00000  Uiso   1.00
H162   H     0.01367   0.68320   0.69236   0.00000  Uiso   1.00
H163   H     0.04229   0.61079   0.54998   0.00000  Uiso   1.00
H164   H     0.90191   0.65670   0.74897   0.00000  Uiso   1.00
H165   H     0.09033   0.80688   0.76700   0.00000  Uiso   1.00
H166   H     0.08414   0.49144   0.40974   0.00000  Uiso   1.00
H167   H     0.78815   0.58828   0.82933   0.00000  Uiso   1.00
H168   H     0.18547   0.90497   0.86737   0.00000  Uiso   1.00
H169   H     0.09174   0.38238   0.82812   0.00000  Uiso   1.00
H170   H     0.12465   0.29345   0.69318   0.00000  Uiso   1.00
H171   H     0.98427   0.33937   0.89217   0.00000  Uiso   1.00
H172   H     0.17269   0.48955   0.91020   0.00000  Uiso   1.00
H173   H     0.15098   0.23388   0.52596   0.00000  Uiso   1.00
H174   H     0.85499   0.33073   0.94557   0.00000  Uiso   1.00
H175   H     0.25231   0.64741   0.98359   0.00000  Uiso   1.00
O176   O     0.13778   0.30958   0.37663   0.00000  Uiso   1.00
O177   O     0.74946   0.43664   0.92714   0.00000  Uiso   1.00
O178   O     0.27073   0.85213   0.97703   0.00000  Uiso   1.00
N179   N     0.09536   0.44304   0.45561   0.00000  Uiso   1.00
N180   N     0.81863   0.53357   0.84790   0.00000  Uiso   1.00
N181   N     0.19008   0.82965   0.88347   0.00000  Uiso   1.00
N182   N     0.13133   0.30445   0.51815   0.00000  Uiso   1.00
N183   N     0.85460   0.39498   0.91044   0.00000  Uiso   1.00
N184   N     0.22605   0.69106   0.94601   0.00000  Uiso   1.00
C185   C     0.46845   0.11429   0.72346   0.00000  Uiso   1.00
C186   C     0.44206   0.03323   0.66493   0.00000  Uiso   1.00
C187   C     0.43992   0.04227   0.58087   0.00000  Uiso   1.00
C188   C     0.41396   0.95955   0.53812   0.00000  Uiso   1.00
C189   C     0.37652   0.84714   0.44115   0.00000  Uiso   1.00
C190   C     0.51834   0.05817   0.77304   0.00000  Uiso   1.00
C191   C     0.58032   0.08819   0.77988   0.00000  Uiso   1.00
C192   C     0.61857   0.02647   0.82815   0.00000  Uiso   1.00
C193   C     0.69953   0.95282   0.89907   0.00000  Uiso   1.00
C194   C     0.41596   0.13977   0.78283   0.00000  Uiso   1.00
C195   C     0.39188   0.23840   0.79793   0.00000  Uiso   1.00
C196   C     0.34394   0.24538   0.85445   0.00000  Uiso   1.00
C197   C     0.26594   0.29842   0.94057   0.00000  Uiso   1.00
C198   C     0.42615   0.95131   0.79701   0.00000  Uiso   1.00
C199   C     0.41909   0.94470   0.70488   0.00000  Uiso   1.00
C200   C     0.39313   0.86195   0.66225   0.00000  Uiso   1.00
C201   C     0.39095   0.87087   0.57814   0.00000  Uiso   1.00
C202   C     0.49537   0.96965   0.81298   0.00000  Uiso   1.00
C203   C     0.53353   0.90787   0.86126   0.00000  Uiso   1.00
C204   C     0.59556   0.93778   0.86817   0.00000  Uiso   1.00
C205   C     0.39298   0.05124   0.82278   0.00000  Uiso   1.00
C206   C     0.34508   0.05807   0.87930   0.00000  Uiso   1.00
C207   C     0.32092   0.15670   0.89448   0.00000  Uiso   1.00
H208   H     0.48633   0.18320   0.69236   0.00000  Uiso   1.00
H209   H     0.45771   0.11079   0.54998   0.00000  Uiso   1.00
H210   H     0.59809   0.15670   0.74897   0.00000  Uiso   1.00
H211   H     0.40967   0.30688   0.76700   0.00000  Uiso   1.00
H212   H     0.41586   0.99144   0.40974   0.00000  Uiso   1.00
H213   H     0.71185   0.08828   0.82933   0.00000  Uiso   1.00
H214   H     0.31453   0.40497   0.86737   0.00000  Uiso   1.00
H215   H     0.40826   0.88238   0.82812   0.00000  Uiso   1.00
H216   H     0.37535   0.79345   0.69318   0.00000  Uiso   1.00
H217   H     0.51573   0.83937   0.89217   0.00000  Uiso   1.00
H218   H     0.32731   0.98955   0.91020   0.00000  Uiso   1.00
H219   H     0.34902   0.73388   0.52596   0.00000  Uiso   1.00
H220   H     0.64501   0.83073   0.94557   0.00000  Uiso   1.00
H221   H     0.24769   0.14741   0.98359   0.00000  Uiso   1.00
O222   O     0.36222   0.80958   0.37663   0.00000  Uiso   1.00
O223   O     0.75054   0.93664   0.92714   0.00000  Uiso   1.00
O224   O     0.22927   0.35213   0.97703   0.00000  Uiso   1.00
N225   N     0.40464   0.94304   0.45561   0.00000  Uiso   1.00
N226   N     0.68137   0.03357   0.84790   0.00000  Uiso   1.00
N227   N     0.30992   0.32965   0.88347   0.00000  Uiso   1.00
N228   N     0.36867   0.80445   0.51815   0.00000  Uiso   1.00
N229   N     0.64540   0.89498   0.91044   0.00000  Uiso   1.00
N230   N     0.27395   0.19106   0.94601   0.00000  Uiso   1.00
C231   C     0.03155   0.88571   0.22346   0.00000  Uiso   1.00
C232   C     0.05794   0.96677   0.16493   0.00000  Uiso   1.00
C233   C     0.06008   0.95773   0.08087   0.00000  Uiso   1.00
C234   C     0.08604   0.04045   0.03812   0.00000  Uiso   1.00
C235   C     0.12348   0.15286   0.94115   0.00000  Uiso   1.00
C236   C     0.98166   0.94183   0.27304   0.00000  Uiso   1.00
C237   C     0.91968   0.91181   0.27988   0.00000  Uiso   1.00
C238   C     0.88143   0.97353   0.32815   0.00000  Uiso   1.00
C239   C     0.80047   0.04718   0.39907   0.00000  Uiso   1.00
C240   C     0.08404   0.86023   0.28283   0.00000  Uiso   1.00
C241   C     0.10812   0.76160   0.29793   0.00000  Uiso   1.00
C242   C     0.15606   0.75462   0.35445   0.00000  Uiso   1.00
C243   C     0.23406   0.70158   0.44057   0.00000  Uiso   1.00
C244   C     0.07385   0.04869   0.29701   0.00000  Uiso   1.00
C245   C     0.08091   0.05530   0.20488   0.00000  Uiso   1.00
C246   C     0.10687   0.13805   0.16225   0.00000  Uiso   1.00
C247   C     0.10905   0.12913   0.07814   0.00000  Uiso   1.00
C248   C     0.00463   0.03035   0.31298   0.00000  Uiso   1.00
C249   C     0.96647   0.09213   0.36126   0.00000  Uiso   1.00
C250   C     0.90444   0.06222   0.36817   0.00000  Uiso   1.00
C251   C     0.10702   0.94876   0.32278   0.00000  Uiso   1.00
C252   C     0.15492   0.94193   0.37930   0.00000  Uiso   1.00
C253   C     0.17908   0.84330   0.39448   0.00000  Uiso   1.00
H254   H     0.01367   0.81680   0.19236   0.00000  Uiso   1.00
H255   H     0.04229   0.88921   0.04998   0.00000  Uiso   1.00
H256   H     0.90191   0.84330   0.24897   0.00000  Uiso   1.00
H257   H     0.09033   0.69312   0.26700   0.00000  Uiso   1.00
H258   H     0.08414   0.00856   0.90974   0.00000  Uiso   1.00
H259   H     0.78815   0.91172   0.32933   0.00000  Uiso   1.00
H260   H     0.18547   0.59503   0.36737   0.00000  Uiso   1.00
H261   H     0.09174   0.11762   0.32812   0.00000  Uiso   1.00
H262   H     0.12465   0.20655   0.19318   0.00000  Uiso   1.00
H263   H     0.98427   0.16063   0.39217   0.00000  Uiso   1.00
H264   H     0.17269   0.01045   0.41020   0.00000  Uiso   1.00
H265   H     0.15098   0.26612   0.02596   0.00000  Uiso   1.00
H266   H     0.85499   0.16927   0.44557   0.00000  Uiso   1.00
H267   H     0.25231   0.85259   0.48359   0.00000  Uiso   1.00
O268   O     0.13778   0.19042   0.87663   0.00000  Uiso   1.00
O269   O     0.74946   0.06336   0.42714   0.00000  Uiso   1.00
O270   O     0.27073   0.64787   0.47703   0.00000  Uiso   1.00
N271   N     0.09536   0.05696   0.95561   0.00000  Uiso   1.00
N272   N     0.81863   0.96643   0.34790   0.00000  Uiso   1.00
N273   N     0.19008   0.67035   0.38347   0.00000  Uiso   1.00
N274   N     0.13133   0.19555   0.01815   0.00000  Uiso   1.00
N275   N     0.85460   0.10502   0.41044   0.00000  Uiso   1.00
N276   N     0.22605   0.80894   0.44601   0.00000  Uiso   1.00
C277   C     0.53155   0.61429   0.77654   0.00000  Uiso   1.00
C278   C     0.55794   0.53323   0.83507   0.00000  Uiso   1.00
C279   C     0.56008   0.54227   0.91913   0.00000  Uiso   1.00
C280   C     0.58604   0.45955   0.96188   0.00000  Uiso   1.00
C281   C     0.62348   0.34714   0.05885   0.00000  Uiso   1.00
C282   C     0.48166   0.55817   0.72696   0.00000  Uiso   1.00
C283   C     0.41968   0.58819   0.72012   0.00000  Uiso   1.00
C284   C     0.38143   0.52647   0.67185   0.00000  Uiso   1.00
C285   C     0.30047   0.45282   0.60093   0.00000  Uiso   1.00
C286   C     0.58404   0.63977   0.71717   0.00000  Uiso   1.00
C287   C     0.60812   0.73840   0.70207   0.00000  Uiso   1.00
C288   C     0.65606   0.74538   0.64555   0.00000  Uiso   1.00
C289   C     0.73406   0.79842   0.55943   0.00000  Uiso   1.00
C290   C     0.57385   0.45131   0.70299   0.00000  Uiso   1.00
C291   C     0.58091   0.44470   0.79512   0.00000  Uiso   1.00
C292   C     0.60687   0.36195   0.83775   0.00000  Uiso   1.00
C293   C     0.60905   0.37087   0.92186   0.00000  Uiso   1.00
C294   C     0.50463   0.46965   0.68702   0.00000  Uiso   1.00
C295   C     0.46647   0.40787   0.63874   0.00000  Uiso   1.00
C296   C     0.40444   0.43778   0.63183   0.00000  Uiso   1.00
C297   C     0.60702   0.55124   0.67722   0.00000  Uiso   1.00
C298   C     0.65492   0.55807   0.62070   0.00000  Uiso   1.00
C299   C     0.67908   0.65670   0.60552   0.00000  Uiso   1.00
H300   H     0.51367   0.68320   0.80764   0.00000  Uiso   1.00
H301   H     0.54229   0.61079   0.95002   0.00000  Uiso   1.00
H302   H     0.40191   0.65670   0.75103   0.00000  Uiso   1.00
H303   H     0.59033   0.80688   0.73300   0.00000  Uiso   1.00
H304   H     0.58414   0.49144   0.09026   0.00000  Uiso   1.00
H305   H     0.28815   0.58828   0.67067   0.00000  Uiso   1.00
H306   H     0.68547   0.90497   0.63263   0.00000  Uiso   1.00
H307   H     0.59174   0.38238   0.67188   0.00000  Uiso   1.00
H308   H     0.62465   0.29345   0.80682   0.00000  Uiso   1.00
H309   H     0.48427   0.33937   0.60783   0.00000  Uiso   1.00
H310   H     0.67269   0.48955   0.58980   0.00000  Uiso   1.00
H311   H     0.65098   0.23388   0.97404   0.00000  Uiso   1.00
H312   H     0.35499   0.33073   0.55443   0.00000  Uiso   1.00
H313   H     0.75231   0.64741   0.51641   0.00000  Uiso   1.00
O314   O     0.63778   0.30958   0.12337   0.00000  Uiso   1.00
O315   O     0.24946   0.43664   0.57286   0.00000  Uiso   1.00
O316   O     0.77073   0.85213   0.52297   0.00000  Uiso   1.00
N317   N     0.59536   0.44304   0.04439   0.00000  Uiso   1.00
N318   N     0.31863   0.53357   0.65210   0.00000  Uiso   1.00
N319   N     0.69008   0.82965   0.61653   0.00000  Uiso   1.00
N320   N     0.63133   0.30445   0.98185   0.00000  Uiso   1.00
N321   N     0.35460   0.39498   0.58956   0.00000  Uiso   1.00
N322   N     0.72605   0.69106   0.55399   0.00000  Uiso   1.00
C323   C     0.96845   0.38571   0.27654   0.00000  Uiso   1.00
C324   C     0.94206   0.46677   0.33507   0.00000  Uiso   1.00
C325   C     0.93992   0.45773   0.41913   0.00000  Uiso   1.00
C326   C     0.91396   0.54045   0.46188   0.00000  Uiso   1.00
C327   C     0.87652   0.65286   0.55885   0.00000  Uiso   1.00
C328   C     0.01834   0.44183   0.22696   0.00000  Uiso   1.00
C329   C     0.08032   0.41181   0.22012   0.00000  Uiso   1.00
C330   C     0.11857   0.47353   0.17185   0.00000  Uiso   1.00
C331   C     0.19953   0.54718   0.10093   0.00000  Uiso   1.00
C332   C     0.91596   0.36023   0.21717   0.00000  Uiso   1.00
C333   C     0.89188   0.26160   0.20207   0.00000  Uiso   1.00
C334   C     0.84394   0.25462   0.14555   0.00000  Uiso   1.00
C335   C     0.76594   0.20158   0.05943   0.00000  Uiso   1.00
C336   C     0.92615   0.54869   0.20299   0.00000  Uiso   1.00
C337   C     0.91909   0.55530   0.29512   0.00000  Uiso   1.00
C338   C     0.89313   0.63805   0.33775   0.00000  Uiso   1.00
C339   C     0.89095   0.62913   0.42186   0.00000  Uiso   1.00
C340   C     0.99537   0.53035   0.18702   0.00000  Uiso   1.00
C341   C     0.03353   0.59213   0.13874   0.00000  Uiso   1.00
C342   C     0.09556   0.56222   0.13183   0.00000  Uiso   1.00
C343   C     0.89298   0.44876   0.17722   0.00000  Uiso   1.00
C344   C     0.84508   0.44193   0.12070   0.00000  Uiso   1.00
C345   C     0.82092   0.34330   0.10552   0.00000  Uiso   1.00
H346   H     0.98633   0.31680   0.30764   0.00000  Uiso   1.00
H347   H     0.95771   0.38921   0.45002   0.00000  Uiso   1.00
H348   H     0.09809   0.34330   0.25103   0.00000  Uiso   1.00
H349   H     0.90967   0.19312   0.23300   0.00000  Uiso   1.00
H350   H     0.91586   0.50856   0.59026   0.00000  Uiso   1.00
H351   H     0.21185   0.41172   0.17067   0.00000  Uiso   1.00
H352   H     0.81453   0.09503   0.13263   0.00000  Uiso   1.00
H353   H     0.90826   0.61762   0.17188   0.00000  Uiso   1.00
H354   H     0.87535   0.70655   0.30682   0.00000  Uiso   1.00
H355   H     0.01573   0.66063   0.10783   0.00000  Uiso   1.00
H356   H     0.82731   0.51045   0.08980   0.00000  Uiso   1.00
H357   H     0.84902   0.76612   0.47404   0.00000  Uiso   1.00
H358   H     0.14501   0.66927   0.05443   0.00000  Uiso   1.00
H359   H     0.74769   0.35259   0.01641   0.00000  Uiso   1.00
O360   O     0.86222   0.69042   0.62337   0.00000  Uiso   1.00
O361   O     0.25054   0.56336   0.07286   0.00000  Uiso   1.00
O362   O     0.72927   0.14787   0.02297   0.00000  Uiso   1.00
N363   N     0.90464   0.55696   0.54439   0.00000  Uiso   1.00
N364   N     0.18137   0.46643   0.15210   0.00000  Uiso   1.00
N365   N     0.80992   0.17035   0.11653   0.00000  Uiso   1.00
N366   N     0.86867   0.69555   0.48185   0.00000  Uiso   1.00
N367   N     0.14540   0.60502   0.08956   0.00000  Uiso   1.00
N368   N     0.77395   0.30894   0.05399   0.00000  Uiso   1.00
