data_job_05301
_audit_creation_date              2018-12-19
_audit_creation_method            'Materials Studio'
_symmetry_space_group_name_H-M    'P1'
_symmetry_Int_Tables_number       1
_symmetry_cell_setting            triclinic
loop_
_symmetry_equiv_pos_as_xyz
  x,y,z
_cell_length_a                    17.1014
_cell_length_b                    18.4693
_cell_length_c                    30.6292
_cell_angle_alpha                 90.0000
_cell_angle_beta                  136.8191
_cell_angle_gamma                 90.0000
loop_
_atom_site_label
_atom_site_type_symbol
_atom_site_fract_x
_atom_site_fract_y
_atom_site_fract_z
_atom_site_U_iso_or_equiv
_atom_site_adp_type
_atom_site_occupancy
C1     C     0.58669   0.72310   0.99803   0.00000  Uiso   1.00
C2     C     0.58033   0.66983   0.03340   0.00000  Uiso   1.00
C3     C     0.60903   0.59699   0.04333   0.00000  Uiso   1.00
C4     C     0.59727   0.55740   0.07681   0.00000  Uiso   1.00
C5     C     0.59329   0.46978   0.12825   0.00000  Uiso   1.00
C6     C     0.46722   0.75518   0.94480   0.00000  Uiso   1.00
C7     C     0.40084   0.75409   0.88023   0.00000  Uiso   1.00
C8     C     0.29387   0.78636   0.83913   0.00000  Uiso   1.00
C9     C     0.11431   0.83129   0.75301   0.00000  Uiso   1.00
C10    C     0.66322   0.78488   0.04454   0.00000  Uiso   1.00
C11    C     0.76162   0.80880   0.06382   0.00000  Uiso   1.00
C12    C     0.81965   0.86608   0.10669   0.00000  Uiso   1.00
C13    C     0.94441   0.95714   0.17544   0.00000  Uiso   1.00
C14    C     0.51477   0.78233   0.03985   0.00000  Uiso   1.00
C15    C     0.54126   0.70201   0.05611   0.00000  Uiso   1.00
C16    C     0.52946   0.66252   0.08959   0.00000  Uiso   1.00
C17    C     0.55814   0.58963   0.09957   0.00000  Uiso   1.00
C18    C     0.42815   0.78735   0.96751   0.00000  Uiso   1.00
C19    C     0.32126   0.81963   0.92649   0.00000  Uiso   1.00
C20    C     0.25473   0.81859   0.86188   0.00000  Uiso   1.00
C21    C     0.62416   0.81706   0.06725   0.00000  Uiso   1.00
C22    C     0.68204   0.87432   0.11009   0.00000  Uiso   1.00
C23    C     0.78051   0.89831   0.12944   0.00000  Uiso   1.00
H24    H     0.61710   0.69806   0.98034   0.00000  Uiso   1.00
H25    H     0.63925   0.57211   0.02574   0.00000  Uiso   1.00
H26    H     0.43110   0.72920   0.86267   0.00000  Uiso   1.00
H27    H     0.79182   0.78389   0.04624   0.00000  Uiso   1.00
H28    H     0.64655   0.44665   0.08606   0.00000  Uiso   1.00
H29    H     0.20765   0.77791   0.74222   0.00000  Uiso   1.00
H30    H     0.96831   0.89323   0.12931   0.00000  Uiso   1.00
H31    H     0.48435   0.80738   0.05753   0.00000  Uiso   1.00
H32    H     0.49922   0.68743   0.10716   0.00000  Uiso   1.00
H33    H     0.29106   0.84452   0.94409   0.00000  Uiso   1.00
H34    H     0.65178   0.89921   0.12766   0.00000  Uiso   1.00
H35    H     0.53289   0.54025   0.15214   0.00000  Uiso   1.00
H36    H     0.09399   0.87151   0.80830   0.00000  Uiso   1.00
H37    H     0.85465   0.98683   0.19539   0.00000  Uiso   1.00
O38    O     0.60186   0.41256   0.15034   0.00000  Uiso   1.00
O39    O     0.02606   0.84718   0.69924   0.00000  Uiso   1.00
O40    O     0.02403   0.99847   0.20709   0.00000  Uiso   1.00
N41    N     0.61778   0.48514   0.09481   0.00000  Uiso   1.00
N42    N     0.20743   0.79484   0.77334   0.00000  Uiso   1.00
N43    N     0.91857   0.90267   0.13522   0.00000  Uiso   1.00
N44    N     0.55662   0.53551   0.13037   0.00000  Uiso   1.00
N45    N     0.14627   0.84521   0.80890   0.00000  Uiso   1.00
N46    N     0.85741   0.95303   0.17078   0.00000  Uiso   1.00
C47    C     0.08669   0.22310   0.99803   0.00000  Uiso   1.00
C48    C     0.08033   0.16983   0.03340   0.00000  Uiso   1.00
C49    C     0.10903   0.09699   0.04333   0.00000  Uiso   1.00
C50    C     0.09727   0.05740   0.07681   0.00000  Uiso   1.00
C51    C     0.09329   0.96978   0.12825   0.00000  Uiso   1.00
C52    C     0.96722   0.25518   0.94480   0.00000  Uiso   1.00
C53    C     0.90084   0.25409   0.88023   0.00000  Uiso   1.00
C54    C     0.79387   0.28636   0.83913   0.00000  Uiso   1.00
C55    C     0.61431   0.33129   0.75301   0.00000  Uiso   1.00
C56    C     0.16322   0.28488   0.04454   0.00000  Uiso   1.00
C57    C     0.26162   0.30880   0.06382   0.00000  Uiso   1.00
C58    C     0.31965   0.36608   0.10669   0.00000  Uiso   1.00
C59    C     0.44441   0.45714   0.17544   0.00000  Uiso   1.00
C60    C     0.01477   0.28233   0.03985   0.00000  Uiso   1.00
C61    C     0.04126   0.20201   0.05611   0.00000  Uiso   1.00
C62    C     0.02946   0.16252   0.08959   0.00000  Uiso   1.00
C63    C     0.05814   0.08963   0.09957   0.00000  Uiso   1.00
C64    C     0.92815   0.28735   0.96751   0.00000  Uiso   1.00
C65    C     0.82126   0.31963   0.92649   0.00000  Uiso   1.00
C66    C     0.75473   0.31859   0.86188   0.00000  Uiso   1.00
C67    C     0.12416   0.31706   0.06725   0.00000  Uiso   1.00
C68    C     0.18204   0.37432   0.11009   0.00000  Uiso   1.00
C69    C     0.28051   0.39831   0.12944   0.00000  Uiso   1.00
H70    H     0.11710   0.19806   0.98034   0.00000  Uiso   1.00
H71    H     0.13925   0.07211   0.02574   0.00000  Uiso   1.00
H72    H     0.93110   0.22920   0.86267   0.00000  Uiso   1.00
H73    H     0.29182   0.28389   0.04624   0.00000  Uiso   1.00
H74    H     0.14655   0.94665   0.08606   0.00000  Uiso   1.00
H75    H     0.70765   0.27791   0.74222   0.00000  Uiso   1.00
H76    H     0.46831   0.39323   0.12931   0.00000  Uiso   1.00
H77    H     0.98435   0.30738   0.05753   0.00000  Uiso   1.00
H78    H     0.99922   0.18743   0.10716   0.00000  Uiso   1.00
H79    H     0.79106   0.34452   0.94409   0.00000  Uiso   1.00
H80    H     0.15178   0.39921   0.12766   0.00000  Uiso   1.00
H81    H     0.03289   0.04025   0.15214   0.00000  Uiso   1.00
H82    H     0.59399   0.37151   0.80830   0.00000  Uiso   1.00
H83    H     0.35465   0.48683   0.19539   0.00000  Uiso   1.00
O84    O     0.10186   0.91256   0.15034   0.00000  Uiso   1.00
O85    O     0.52606   0.34718   0.69924   0.00000  Uiso   1.00
O86    O     0.52403   0.49847   0.20709   0.00000  Uiso   1.00
N87    N     0.11778   0.98514   0.09481   0.00000  Uiso   1.00
N88    N     0.70743   0.29484   0.77334   0.00000  Uiso   1.00
N89    N     0.41857   0.40267   0.13522   0.00000  Uiso   1.00
N90    N     0.05662   0.03551   0.13037   0.00000  Uiso   1.00
N91    N     0.64627   0.34521   0.80890   0.00000  Uiso   1.00
N92    N     0.35741   0.45303   0.17078   0.00000  Uiso   1.00
C93    C     0.41331   0.72310   0.50197   0.00000  Uiso   1.00
C94    C     0.41967   0.66983   0.46660   0.00000  Uiso   1.00
C95    C     0.39097   0.59699   0.45667   0.00000  Uiso   1.00
C96    C     0.40273   0.55740   0.42319   0.00000  Uiso   1.00
C97    C     0.40671   0.46978   0.37175   0.00000  Uiso   1.00
C98    C     0.53278   0.75518   0.55520   0.00000  Uiso   1.00
C99    C     0.59916   0.75409   0.61977   0.00000  Uiso   1.00
C100   C     0.70613   0.78636   0.66087   0.00000  Uiso   1.00
C101   C     0.88569   0.83129   0.74699   0.00000  Uiso   1.00
C102   C     0.33678   0.78488   0.45546   0.00000  Uiso   1.00
C103   C     0.23838   0.80880   0.43618   0.00000  Uiso   1.00
C104   C     0.18035   0.86608   0.39331   0.00000  Uiso   1.00
C105   C     0.05559   0.95714   0.32456   0.00000  Uiso   1.00
C106   C     0.48523   0.78233   0.46015   0.00000  Uiso   1.00
C107   C     0.45874   0.70201   0.44389   0.00000  Uiso   1.00
C108   C     0.47054   0.66252   0.41041   0.00000  Uiso   1.00
C109   C     0.44186   0.58963   0.40043   0.00000  Uiso   1.00
C110   C     0.57185   0.78735   0.53249   0.00000  Uiso   1.00
C111   C     0.67874   0.81963   0.57351   0.00000  Uiso   1.00
C112   C     0.74527   0.81859   0.63812   0.00000  Uiso   1.00
C113   C     0.37584   0.81706   0.43275   0.00000  Uiso   1.00
C114   C     0.31796   0.87432   0.38991   0.00000  Uiso   1.00
C115   C     0.21949   0.89831   0.37056   0.00000  Uiso   1.00
H116   H     0.38290   0.69806   0.51966   0.00000  Uiso   1.00
H117   H     0.36075   0.57211   0.47426   0.00000  Uiso   1.00
H118   H     0.56890   0.72920   0.63733   0.00000  Uiso   1.00
H119   H     0.20818   0.78389   0.45376   0.00000  Uiso   1.00
H120   H     0.35345   0.44665   0.41394   0.00000  Uiso   1.00
H121   H     0.79235   0.77791   0.75778   0.00000  Uiso   1.00
H122   H     0.03169   0.89323   0.37069   0.00000  Uiso   1.00
H123   H     0.51565   0.80738   0.44247   0.00000  Uiso   1.00
H124   H     0.50078   0.68743   0.39284   0.00000  Uiso   1.00
H125   H     0.70894   0.84452   0.55591   0.00000  Uiso   1.00
H126   H     0.34822   0.89921   0.37234   0.00000  Uiso   1.00
H127   H     0.46711   0.54025   0.34786   0.00000  Uiso   1.00
H128   H     0.90601   0.87151   0.69170   0.00000  Uiso   1.00
H129   H     0.14535   0.98683   0.30461   0.00000  Uiso   1.00
O130   O     0.39814   0.41256   0.34966   0.00000  Uiso   1.00
O131   O     0.97394   0.84718   0.80076   0.00000  Uiso   1.00
O132   O     0.97597   0.99847   0.29291   0.00000  Uiso   1.00
N133   N     0.38222   0.48514   0.40519   0.00000  Uiso   1.00
N134   N     0.79257   0.79484   0.72666   0.00000  Uiso   1.00
N135   N     0.08143   0.90267   0.36478   0.00000  Uiso   1.00
N136   N     0.44338   0.53551   0.36963   0.00000  Uiso   1.00
N137   N     0.85373   0.84521   0.69110   0.00000  Uiso   1.00
N138   N     0.14259   0.95303   0.32922   0.00000  Uiso   1.00
C139   C     0.91331   0.22310   0.50197   0.00000  Uiso   1.00
C140   C     0.91967   0.16983   0.46660   0.00000  Uiso   1.00
C141   C     0.89097   0.09699   0.45667   0.00000  Uiso   1.00
C142   C     0.90273   0.05740   0.42319   0.00000  Uiso   1.00
C143   C     0.90671   0.96978   0.37175   0.00000  Uiso   1.00
C144   C     0.03278   0.25518   0.55520   0.00000  Uiso   1.00
C145   C     0.09916   0.25409   0.61977   0.00000  Uiso   1.00
C146   C     0.20613   0.28636   0.66087   0.00000  Uiso   1.00
C147   C     0.38569   0.33129   0.74699   0.00000  Uiso   1.00
C148   C     0.83678   0.28488   0.45546   0.00000  Uiso   1.00
C149   C     0.73838   0.30880   0.43618   0.00000  Uiso   1.00
C150   C     0.68035   0.36608   0.39331   0.00000  Uiso   1.00
C151   C     0.55559   0.45714   0.32456   0.00000  Uiso   1.00
C152   C     0.98523   0.28233   0.46015   0.00000  Uiso   1.00
C153   C     0.95874   0.20201   0.44389   0.00000  Uiso   1.00
C154   C     0.97054   0.16252   0.41041   0.00000  Uiso   1.00
C155   C     0.94186   0.08963   0.40043   0.00000  Uiso   1.00
C156   C     0.07185   0.28735   0.53249   0.00000  Uiso   1.00
C157   C     0.17874   0.31963   0.57351   0.00000  Uiso   1.00
C158   C     0.24527   0.31859   0.63812   0.00000  Uiso   1.00
C159   C     0.87584   0.31706   0.43275   0.00000  Uiso   1.00
C160   C     0.81796   0.37432   0.38991   0.00000  Uiso   1.00
C161   C     0.71949   0.39831   0.37056   0.00000  Uiso   1.00
H162   H     0.88290   0.19806   0.51966   0.00000  Uiso   1.00
H163   H     0.86075   0.07211   0.47426   0.00000  Uiso   1.00
H164   H     0.06890   0.22920   0.63733   0.00000  Uiso   1.00
H165   H     0.70818   0.28389   0.45376   0.00000  Uiso   1.00
H166   H     0.85345   0.94665   0.41394   0.00000  Uiso   1.00
H167   H     0.29235   0.27791   0.75778   0.00000  Uiso   1.00
H168   H     0.53169   0.39323   0.37069   0.00000  Uiso   1.00
H169   H     0.01565   0.30738   0.44247   0.00000  Uiso   1.00
H170   H     0.00078   0.18743   0.39284   0.00000  Uiso   1.00
H171   H     0.20894   0.34452   0.55591   0.00000  Uiso   1.00
H172   H     0.84822   0.39921   0.37234   0.00000  Uiso   1.00
H173   H     0.96711   0.04025   0.34786   0.00000  Uiso   1.00
H174   H     0.40601   0.37151   0.69170   0.00000  Uiso   1.00
H175   H     0.64535   0.48683   0.30461   0.00000  Uiso   1.00
O176   O     0.89814   0.91256   0.34966   0.00000  Uiso   1.00
O177   O     0.47394   0.34718   0.80076   0.00000  Uiso   1.00
O178   O     0.47597   0.49847   0.29291   0.00000  Uiso   1.00
N179   N     0.88222   0.98514   0.40519   0.00000  Uiso   1.00
N180   N     0.29257   0.29484   0.72666   0.00000  Uiso   1.00
N181   N     0.58143   0.40267   0.36478   0.00000  Uiso   1.00
N182   N     0.94338   0.03551   0.36963   0.00000  Uiso   1.00
N183   N     0.35373   0.34521   0.69110   0.00000  Uiso   1.00
N184   N     0.64259   0.45303   0.32922   0.00000  Uiso   1.00
C185   C     0.41331   0.27690   0.00197   0.00000  Uiso   1.00
C186   C     0.41967   0.33017   0.96660   0.00000  Uiso   1.00
C187   C     0.39097   0.40301   0.95667   0.00000  Uiso   1.00
C188   C     0.40273   0.44260   0.92319   0.00000  Uiso   1.00
C189   C     0.40671   0.53022   0.87175   0.00000  Uiso   1.00
C190   C     0.53278   0.24482   0.05520   0.00000  Uiso   1.00
C191   C     0.59916   0.24591   0.11977   0.00000  Uiso   1.00
C192   C     0.70613   0.21364   0.16087   0.00000  Uiso   1.00
C193   C     0.88569   0.16871   0.24699   0.00000  Uiso   1.00
C194   C     0.33678   0.21512   0.95546   0.00000  Uiso   1.00
C195   C     0.23838   0.19120   0.93618   0.00000  Uiso   1.00
C196   C     0.18035   0.13392   0.89331   0.00000  Uiso   1.00
C197   C     0.05559   0.04286   0.82456   0.00000  Uiso   1.00
C198   C     0.48523   0.21767   0.96015   0.00000  Uiso   1.00
C199   C     0.45874   0.29799   0.94389   0.00000  Uiso   1.00
C200   C     0.47054   0.33748   0.91041   0.00000  Uiso   1.00
C201   C     0.44186   0.41037   0.90043   0.00000  Uiso   1.00
C202   C     0.57185   0.21265   0.03249   0.00000  Uiso   1.00
C203   C     0.67874   0.18037   0.07351   0.00000  Uiso   1.00
C204   C     0.74527   0.18141   0.13812   0.00000  Uiso   1.00
C205   C     0.37584   0.18294   0.93275   0.00000  Uiso   1.00
C206   C     0.31796   0.12568   0.88991   0.00000  Uiso   1.00
C207   C     0.21949   0.10169   0.87056   0.00000  Uiso   1.00
H208   H     0.38290   0.30194   0.01966   0.00000  Uiso   1.00
H209   H     0.36075   0.42789   0.97426   0.00000  Uiso   1.00
H210   H     0.56890   0.27080   0.13733   0.00000  Uiso   1.00
H211   H     0.20818   0.21611   0.95376   0.00000  Uiso   1.00
H212   H     0.35345   0.55335   0.91394   0.00000  Uiso   1.00
H213   H     0.79235   0.22209   0.25778   0.00000  Uiso   1.00
H214   H     0.03169   0.10677   0.87069   0.00000  Uiso   1.00
H215   H     0.51565   0.19262   0.94247   0.00000  Uiso   1.00
H216   H     0.50078   0.31257   0.89284   0.00000  Uiso   1.00
H217   H     0.70894   0.15548   0.05591   0.00000  Uiso   1.00
H218   H     0.34822   0.10079   0.87234   0.00000  Uiso   1.00
H219   H     0.46711   0.45975   0.84786   0.00000  Uiso   1.00
H220   H     0.90601   0.12849   0.19170   0.00000  Uiso   1.00
H221   H     0.14535   0.01317   0.80461   0.00000  Uiso   1.00
O222   O     0.39814   0.58744   0.84966   0.00000  Uiso   1.00
O223   O     0.97394   0.15282   0.30076   0.00000  Uiso   1.00
O224   O     0.97597   0.00153   0.79291   0.00000  Uiso   1.00
N225   N     0.38222   0.51486   0.90519   0.00000  Uiso   1.00
N226   N     0.79257   0.20516   0.22666   0.00000  Uiso   1.00
N227   N     0.08143   0.09733   0.86478   0.00000  Uiso   1.00
N228   N     0.44338   0.46449   0.86963   0.00000  Uiso   1.00
N229   N     0.85373   0.15479   0.19110   0.00000  Uiso   1.00
N230   N     0.14259   0.04697   0.82922   0.00000  Uiso   1.00
C231   C     0.91331   0.77690   0.00197   0.00000  Uiso   1.00
C232   C     0.91967   0.83017   0.96660   0.00000  Uiso   1.00
C233   C     0.89097   0.90301   0.95667   0.00000  Uiso   1.00
C234   C     0.90273   0.94260   0.92319   0.00000  Uiso   1.00
C235   C     0.90671   0.03022   0.87175   0.00000  Uiso   1.00
C236   C     0.03278   0.74482   0.05520   0.00000  Uiso   1.00
C237   C     0.09916   0.74591   0.11977   0.00000  Uiso   1.00
C238   C     0.20613   0.71364   0.16087   0.00000  Uiso   1.00
C239   C     0.38569   0.66871   0.24699   0.00000  Uiso   1.00
C240   C     0.83678   0.71512   0.95546   0.00000  Uiso   1.00
C241   C     0.73838   0.69120   0.93618   0.00000  Uiso   1.00
C242   C     0.68035   0.63392   0.89331   0.00000  Uiso   1.00
C243   C     0.55559   0.54286   0.82456   0.00000  Uiso   1.00
C244   C     0.98523   0.71767   0.96015   0.00000  Uiso   1.00
C245   C     0.95874   0.79799   0.94389   0.00000  Uiso   1.00
C246   C     0.97054   0.83748   0.91041   0.00000  Uiso   1.00
C247   C     0.94186   0.91037   0.90043   0.00000  Uiso   1.00
C248   C     0.07185   0.71265   0.03249   0.00000  Uiso   1.00
C249   C     0.17874   0.68037   0.07351   0.00000  Uiso   1.00
C250   C     0.24527   0.68141   0.13812   0.00000  Uiso   1.00
C251   C     0.87584   0.68294   0.93275   0.00000  Uiso   1.00
C252   C     0.81796   0.62568   0.88991   0.00000  Uiso   1.00
C253   C     0.71949   0.60169   0.87056   0.00000  Uiso   1.00
H254   H     0.88290   0.80194   0.01966   0.00000  Uiso   1.00
H255   H     0.86075   0.92789   0.97426   0.00000  Uiso   1.00
H256   H     0.06890   0.77080   0.13733   0.00000  Uiso   1.00
H257   H     0.70818   0.71611   0.95376   0.00000  Uiso   1.00
H258   H     0.85345   0.05335   0.91394   0.00000  Uiso   1.00
H259   H     0.29235   0.72209   0.25778   0.00000  Uiso   1.00
H260   H     0.53169   0.60677   0.87069   0.00000  Uiso   1.00
H261   H     0.01565   0.69262   0.94247   0.00000  Uiso   1.00
H262   H     0.00078   0.81257   0.89284   0.00000  Uiso   1.00
H263   H     0.20894   0.65548   0.05591   0.00000  Uiso   1.00
H264   H     0.84822   0.60079   0.87234   0.00000  Uiso   1.00
H265   H     0.96711   0.95975   0.84786   0.00000  Uiso   1.00
H266   H     0.40601   0.62849   0.19170   0.00000  Uiso   1.00
H267   H     0.64535   0.51317   0.80461   0.00000  Uiso   1.00
O268   O     0.89814   0.08744   0.84966   0.00000  Uiso   1.00
O269   O     0.47394   0.65282   0.30076   0.00000  Uiso   1.00
O270   O     0.47597   0.50153   0.79291   0.00000  Uiso   1.00
N271   N     0.88222   0.01486   0.90519   0.00000  Uiso   1.00
N272   N     0.29257   0.70516   0.22666   0.00000  Uiso   1.00
N273   N     0.58143   0.59733   0.86478   0.00000  Uiso   1.00
N274   N     0.94338   0.96449   0.86963   0.00000  Uiso   1.00
N275   N     0.35373   0.65479   0.19110   0.00000  Uiso   1.00
N276   N     0.64259   0.54697   0.82922   0.00000  Uiso   1.00
C277   C     0.58669   0.27690   0.49803   0.00000  Uiso   1.00
C278   C     0.58033   0.33017   0.53340   0.00000  Uiso   1.00
C279   C     0.60903   0.40301   0.54333   0.00000  Uiso   1.00
C280   C     0.59727   0.44260   0.57681   0.00000  Uiso   1.00
C281   C     0.59329   0.53022   0.62825   0.00000  Uiso   1.00
C282   C     0.46722   0.24482   0.44480   0.00000  Uiso   1.00
C283   C     0.40084   0.24591   0.38023   0.00000  Uiso   1.00
C284   C     0.29387   0.21364   0.33913   0.00000  Uiso   1.00
C285   C     0.11431   0.16871   0.25301   0.00000  Uiso   1.00
C286   C     0.66322   0.21512   0.54454   0.00000  Uiso   1.00
C287   C     0.76162   0.19120   0.56382   0.00000  Uiso   1.00
C288   C     0.81965   0.13392   0.60669   0.00000  Uiso   1.00
C289   C     0.94441   0.04286   0.67544   0.00000  Uiso   1.00
C290   C     0.51477   0.21767   0.53985   0.00000  Uiso   1.00
C291   C     0.54126   0.29799   0.55611   0.00000  Uiso   1.00
C292   C     0.52946   0.33748   0.58959   0.00000  Uiso   1.00
C293   C     0.55814   0.41037   0.59957   0.00000  Uiso   1.00
C294   C     0.42815   0.21265   0.46751   0.00000  Uiso   1.00
C295   C     0.32126   0.18037   0.42649   0.00000  Uiso   1.00
C296   C     0.25473   0.18141   0.36188   0.00000  Uiso   1.00
C297   C     0.62416   0.18294   0.56725   0.00000  Uiso   1.00
C298   C     0.68204   0.12568   0.61009   0.00000  Uiso   1.00
C299   C     0.78051   0.10169   0.62944   0.00000  Uiso   1.00
H300   H     0.61710   0.30194   0.48034   0.00000  Uiso   1.00
H301   H     0.63925   0.42789   0.52574   0.00000  Uiso   1.00
H302   H     0.43110   0.27080   0.36267   0.00000  Uiso   1.00
H303   H     0.79182   0.21611   0.54624   0.00000  Uiso   1.00
H304   H     0.64655   0.55335   0.58606   0.00000  Uiso   1.00
H305   H     0.20765   0.22209   0.24222   0.00000  Uiso   1.00
H306   H     0.96831   0.10677   0.62931   0.00000  Uiso   1.00
H307   H     0.48435   0.19262   0.55753   0.00000  Uiso   1.00
H308   H     0.49922   0.31257   0.60716   0.00000  Uiso   1.00
H309   H     0.29106   0.15548   0.44409   0.00000  Uiso   1.00
H310   H     0.65178   0.10079   0.62766   0.00000  Uiso   1.00
H311   H     0.53289   0.45975   0.65214   0.00000  Uiso   1.00
H312   H     0.09399   0.12849   0.30830   0.00000  Uiso   1.00
H313   H     0.85465   0.01317   0.69539   0.00000  Uiso   1.00
O314   O     0.60186   0.58744   0.65034   0.00000  Uiso   1.00
O315   O     0.02606   0.15282   0.19924   0.00000  Uiso   1.00
O316   O     0.02403   0.00153   0.70709   0.00000  Uiso   1.00
N317   N     0.61778   0.51486   0.59481   0.00000  Uiso   1.00
N318   N     0.20743   0.20516   0.27334   0.00000  Uiso   1.00
N319   N     0.91857   0.09733   0.63522   0.00000  Uiso   1.00
N320   N     0.55662   0.46449   0.63037   0.00000  Uiso   1.00
N321   N     0.14627   0.15479   0.30890   0.00000  Uiso   1.00
N322   N     0.85741   0.04697   0.67078   0.00000  Uiso   1.00
C323   C     0.08669   0.77690   0.49803   0.00000  Uiso   1.00
C324   C     0.08033   0.83017   0.53340   0.00000  Uiso   1.00
C325   C     0.10903   0.90301   0.54333   0.00000  Uiso   1.00
C326   C     0.09727   0.94260   0.57681   0.00000  Uiso   1.00
C327   C     0.09329   0.03022   0.62825   0.00000  Uiso   1.00
C328   C     0.96722   0.74482   0.44480   0.00000  Uiso   1.00
C329   C     0.90084   0.74591   0.38023   0.00000  Uiso   1.00
C330   C     0.79387   0.71364   0.33913   0.00000  Uiso   1.00
C331   C     0.61431   0.66871   0.25301   0.00000  Uiso   1.00
C332   C     0.16322   0.71512   0.54454   0.00000  Uiso   1.00
C333   C     0.26162   0.69120   0.56382   0.00000  Uiso   1.00
C334   C     0.31965   0.63392   0.60669   0.00000  Uiso   1.00
C335   C     0.44441   0.54286   0.67544   0.00000  Uiso   1.00
C336   C     0.01477   0.71767   0.53985   0.00000  Uiso   1.00
C337   C     0.04126   0.79799   0.55611   0.00000  Uiso   1.00
C338   C     0.02946   0.83748   0.58959   0.00000  Uiso   1.00
C339   C     0.05814   0.91037   0.59957   0.00000  Uiso   1.00
C340   C     0.92815   0.71265   0.46751   0.00000  Uiso   1.00
C341   C     0.82126   0.68037   0.42649   0.00000  Uiso   1.00
C342   C     0.75473   0.68141   0.36188   0.00000  Uiso   1.00
C343   C     0.12416   0.68294   0.56725   0.00000  Uiso   1.00
C344   C     0.18204   0.62568   0.61009   0.00000  Uiso   1.00
C345   C     0.28051   0.60169   0.62944   0.00000  Uiso   1.00
H346   H     0.11710   0.80194   0.48034   0.00000  Uiso   1.00
H347   H     0.13925   0.92789   0.52574   0.00000  Uiso   1.00
H348   H     0.93110   0.77080   0.36267   0.00000  Uiso   1.00
H349   H     0.29182   0.71611   0.54624   0.00000  Uiso   1.00
H350   H     0.14655   0.05335   0.58606   0.00000  Uiso   1.00
H351   H     0.70765   0.72209   0.24222   0.00000  Uiso   1.00
H352   H     0.46831   0.60677   0.62931   0.00000  Uiso   1.00
H353   H     0.98435   0.69262   0.55753   0.00000  Uiso   1.00
H354   H     0.99922   0.81257   0.60716   0.00000  Uiso   1.00
H355   H     0.79106   0.65548   0.44409   0.00000  Uiso   1.00
H356   H     0.15178   0.60079   0.62766   0.00000  Uiso   1.00
H357   H     0.03289   0.95975   0.65214   0.00000  Uiso   1.00
H358   H     0.59399   0.62849   0.30830   0.00000  Uiso   1.00
H359   H     0.35465   0.51317   0.69539   0.00000  Uiso   1.00
O360   O     0.10186   0.08744   0.65034   0.00000  Uiso   1.00
O361   O     0.52606   0.65282   0.19924   0.00000  Uiso   1.00
O362   O     0.52403   0.50153   0.70709   0.00000  Uiso   1.00
N363   N     0.11778   0.01486   0.59481   0.00000  Uiso   1.00
N364   N     0.70743   0.70516   0.27334   0.00000  Uiso   1.00
N365   N     0.41857   0.59733   0.63522   0.00000  Uiso   1.00
N366   N     0.05662   0.96449   0.63037   0.00000  Uiso   1.00
N367   N     0.64627   0.65479   0.30890   0.00000  Uiso   1.00
N368   N     0.35741   0.54697   0.67078   0.00000  Uiso   1.00
