data_job_00517
_audit_creation_date              2018-12-19
_audit_creation_method            'Materials Studio'
_symmetry_space_group_name_H-M    'P1'
_symmetry_Int_Tables_number       1
_symmetry_cell_setting            triclinic
loop_
_symmetry_equiv_pos_as_xyz
  x,y,z
_cell_length_a                    17.4829
_cell_length_b                    7.0183
_cell_length_c                    21.6730
_cell_angle_alpha                 90.0000
_cell_angle_beta                  90.0000
_cell_angle_gamma                 90.0000
loop_
_atom_site_label
_atom_site_type_symbol
_atom_site_fract_x
_atom_site_fract_y
_atom_site_fract_z
_atom_site_U_iso_or_equiv
_atom_site_adp_type
_atom_site_occupancy
C1     C     0.92258   0.95995   0.53222   0.00000  Uiso   1.00
C2     C     0.92102   0.05579   0.59535   0.00000  Uiso   1.00
C3     C     0.90355   0.96725   0.65084   0.00000  Uiso   1.00
C4     C     0.90525   0.07965   0.70354   0.00000  Uiso   1.00
C5     C     0.89997   0.19899   0.80199   0.00000  Uiso   1.00
C6     C     0.86773   0.07326   0.49164   0.00000  Uiso   1.00
C7     C     0.80547   0.99939   0.45992   0.00000  Uiso   1.00
C8     C     0.76231   0.12650   0.42531   0.00000  Uiso   1.00
C9     C     0.67434   0.27293   0.36270   0.00000  Uiso   1.00
C10    C     0.00233   0.99550   0.50617   0.00000  Uiso   1.00
C11    C     0.05325   0.85626   0.48666   0.00000  Uiso   1.00
C12    C     0.12342   0.91791   0.46427   0.00000  Uiso   1.00
C13    C     0.24444   0.94361   0.42423   0.00000  Uiso   1.00
C14    C     0.95666   0.31703   0.52712   0.00000  Uiso   1.00
C15    C     0.93953   0.24975   0.59258   0.00000  Uiso   1.00
C16    C     0.94126   0.36231   0.64521   0.00000  Uiso   1.00
C17    C     0.92380   0.27395   0.70077   0.00000  Uiso   1.00
C18    C     0.88624   0.26721   0.48887   0.00000  Uiso   1.00
C19    C     0.84317   0.39445   0.45429   0.00000  Uiso   1.00
C20    C     0.78086   0.32080   0.42254   0.00000  Uiso   1.00
C21    C     0.02085   0.18946   0.50341   0.00000  Uiso   1.00
C22    C     0.09095   0.25133   0.48103   0.00000  Uiso   1.00
C23    C     0.14196   0.11221   0.46150   0.00000  Uiso   1.00
H24    H     0.90816   0.80895   0.53437   0.00000  Uiso   1.00
H25    H     0.88922   0.81715   0.65296   0.00000  Uiso   1.00
H26    H     0.79116   0.84929   0.46207   0.00000  Uiso   1.00
H27    H     0.03890   0.70618   0.48881   0.00000  Uiso   1.00
H28    H     0.87636   0.91179   0.78323   0.00000  Uiso   1.00
H29    H     0.66960   0.97953   0.38070   0.00000  Uiso   1.00
H30    H     0.19201   0.67777   0.43708   0.00000  Uiso   1.00
H31    H     0.97107   0.46804   0.52497   0.00000  Uiso   1.00
H32    H     0.95559   0.51240   0.64306   0.00000  Uiso   1.00
H33    H     0.85752   0.54453   0.45216   0.00000  Uiso   1.00
H34    H     0.10526   0.40143   0.47890   0.00000  Uiso   1.00
H35    H     0.93022   0.47608   0.77518   0.00000  Uiso   1.00
H36    H     0.72346   0.54382   0.37265   0.00000  Uiso   1.00
H37    H     0.24587   0.24206   0.42904   0.00000  Uiso   1.00
O38    O     0.89194   0.21124   0.85705   0.00000  Uiso   1.00
O39    O     0.62069   0.30011   0.32894   0.00000  Uiso   1.00
O40    O     0.30609   0.90420   0.40292   0.00000  Uiso   1.00
N41    N     0.89117   0.03850   0.76513   0.00000  Uiso   1.00
N42    N     0.69786   0.10184   0.38880   0.00000  Uiso   1.00
N43    N     0.18627   0.81972   0.44150   0.00000  Uiso   1.00
N44    N     0.92016   0.34214   0.76080   0.00000  Uiso   1.00
N45    N     0.72684   0.40548   0.38447   0.00000  Uiso   1.00
N46    N     0.21525   0.12336   0.43717   0.00000  Uiso   1.00
C47    C     0.57742   0.04005   0.03222   0.00000  Uiso   1.00
C48    C     0.57898   0.94421   0.09535   0.00000  Uiso   1.00
C49    C     0.59645   0.03275   0.15084   0.00000  Uiso   1.00
C50    C     0.59475   0.92035   0.20354   0.00000  Uiso   1.00
C51    C     0.60003   0.80101   0.30199   0.00000  Uiso   1.00
C52    C     0.63227   0.92674   0.99164   0.00000  Uiso   1.00
C53    C     0.69453   0.00061   0.95992   0.00000  Uiso   1.00
C54    C     0.73769   0.87350   0.92531   0.00000  Uiso   1.00
C55    C     0.82566   0.72707   0.86270   0.00000  Uiso   1.00
C56    C     0.49767   0.00450   0.00617   0.00000  Uiso   1.00
C57    C     0.44675   0.14374   0.98666   0.00000  Uiso   1.00
C58    C     0.37658   0.08209   0.96427   0.00000  Uiso   1.00
C59    C     0.25556   0.05639   0.92423   0.00000  Uiso   1.00
C60    C     0.54334   0.68297   0.02712   0.00000  Uiso   1.00
C61    C     0.56047   0.75025   0.09258   0.00000  Uiso   1.00
C62    C     0.55874   0.63769   0.14521   0.00000  Uiso   1.00
C63    C     0.57620   0.72605   0.20077   0.00000  Uiso   1.00
C64    C     0.61376   0.73279   0.98887   0.00000  Uiso   1.00
C65    C     0.65683   0.60555   0.95429   0.00000  Uiso   1.00
C66    C     0.71914   0.67920   0.92254   0.00000  Uiso   1.00
C67    C     0.47915   0.81054   0.00341   0.00000  Uiso   1.00
C68    C     0.40905   0.74867   0.98103   0.00000  Uiso   1.00
C69    C     0.35804   0.88779   0.96150   0.00000  Uiso   1.00
H70    H     0.59184   0.19105   0.03437   0.00000  Uiso   1.00
H71    H     0.61078   0.18285   0.15296   0.00000  Uiso   1.00
H72    H     0.70884   0.15071   0.96207   0.00000  Uiso   1.00
H73    H     0.46110   0.29382   0.98881   0.00000  Uiso   1.00
H74    H     0.62364   0.08821   0.28323   0.00000  Uiso   1.00
H75    H     0.83040   0.02047   0.88070   0.00000  Uiso   1.00
H76    H     0.30799   0.32223   0.93708   0.00000  Uiso   1.00
H77    H     0.52893   0.53196   0.02497   0.00000  Uiso   1.00
H78    H     0.54441   0.48760   0.14306   0.00000  Uiso   1.00
H79    H     0.64248   0.45547   0.95216   0.00000  Uiso   1.00
H80    H     0.39474   0.59857   0.97890   0.00000  Uiso   1.00
H81    H     0.56978   0.52392   0.27518   0.00000  Uiso   1.00
H82    H     0.77654   0.45618   0.87265   0.00000  Uiso   1.00
H83    H     0.25413   0.75794   0.92904   0.00000  Uiso   1.00
O84    O     0.60806   0.78876   0.35705   0.00000  Uiso   1.00
O85    O     0.87931   0.69989   0.82894   0.00000  Uiso   1.00
O86    O     0.19391   0.09580   0.90292   0.00000  Uiso   1.00
N87    N     0.60883   0.96150   0.26513   0.00000  Uiso   1.00
N88    N     0.80214   0.89816   0.88880   0.00000  Uiso   1.00
N89    N     0.31373   0.18028   0.94150   0.00000  Uiso   1.00
N90    N     0.57984   0.65786   0.26080   0.00000  Uiso   1.00
N91    N     0.77316   0.59452   0.88447   0.00000  Uiso   1.00
N92    N     0.28475   0.87664   0.93717   0.00000  Uiso   1.00
C93    C     0.07742   0.45995   0.96778   0.00000  Uiso   1.00
C94    C     0.07898   0.55579   0.90465   0.00000  Uiso   1.00
C95    C     0.09645   0.46725   0.84916   0.00000  Uiso   1.00
C96    C     0.09475   0.57965   0.79646   0.00000  Uiso   1.00
C97    C     0.10003   0.69899   0.69801   0.00000  Uiso   1.00
C98    C     0.13227   0.57326   0.00836   0.00000  Uiso   1.00
C99    C     0.19453   0.49939   0.04008   0.00000  Uiso   1.00
C100   C     0.23769   0.62650   0.07469   0.00000  Uiso   1.00
C101   C     0.32566   0.77293   0.13730   0.00000  Uiso   1.00
C102   C     0.99767   0.49550   0.99383   0.00000  Uiso   1.00
C103   C     0.94675   0.35626   0.01334   0.00000  Uiso   1.00
C104   C     0.87658   0.41791   0.03573   0.00000  Uiso   1.00
C105   C     0.75556   0.44361   0.07577   0.00000  Uiso   1.00
C106   C     0.04334   0.81703   0.97288   0.00000  Uiso   1.00
C107   C     0.06047   0.74975   0.90742   0.00000  Uiso   1.00
C108   C     0.05874   0.86231   0.85479   0.00000  Uiso   1.00
C109   C     0.07620   0.77395   0.79923   0.00000  Uiso   1.00
C110   C     0.11376   0.76721   0.01113   0.00000  Uiso   1.00
C111   C     0.15683   0.89445   0.04571   0.00000  Uiso   1.00
C112   C     0.21914   0.82080   0.07746   0.00000  Uiso   1.00
C113   C     0.97915   0.68946   0.99659   0.00000  Uiso   1.00
C114   C     0.90905   0.75133   0.01897   0.00000  Uiso   1.00
C115   C     0.85804   0.61221   0.03850   0.00000  Uiso   1.00
H116   H     0.09184   0.30895   0.96563   0.00000  Uiso   1.00
H117   H     0.11078   0.31715   0.84704   0.00000  Uiso   1.00
H118   H     0.20884   0.34929   0.03793   0.00000  Uiso   1.00
H119   H     0.96110   0.20618   0.01119   0.00000  Uiso   1.00
H120   H     0.12364   0.41179   0.71677   0.00000  Uiso   1.00
H121   H     0.33040   0.47953   0.11930   0.00000  Uiso   1.00
H122   H     0.80799   0.17777   0.06292   0.00000  Uiso   1.00
H123   H     0.02893   0.96804   0.97503   0.00000  Uiso   1.00
H124   H     0.04441   0.01240   0.85694   0.00000  Uiso   1.00
H125   H     0.14248   0.04453   0.04784   0.00000  Uiso   1.00
H126   H     0.89474   0.90143   0.02110   0.00000  Uiso   1.00
H127   H     0.06978   0.97608   0.72482   0.00000  Uiso   1.00
H128   H     0.27654   0.04382   0.12735   0.00000  Uiso   1.00
H129   H     0.75413   0.74206   0.07096   0.00000  Uiso   1.00
O130   O     0.10806   0.71124   0.64295   0.00000  Uiso   1.00
O131   O     0.37931   0.80011   0.17106   0.00000  Uiso   1.00
O132   O     0.69391   0.40420   0.09708   0.00000  Uiso   1.00
N133   N     0.10883   0.53850   0.73487   0.00000  Uiso   1.00
N134   N     0.30214   0.60184   0.11120   0.00000  Uiso   1.00
N135   N     0.81373   0.31972   0.05850   0.00000  Uiso   1.00
N136   N     0.07984   0.84214   0.73920   0.00000  Uiso   1.00
N137   N     0.27316   0.90548   0.11553   0.00000  Uiso   1.00
N138   N     0.78475   0.62336   0.06283   0.00000  Uiso   1.00
C139   C     0.42258   0.54005   0.46778   0.00000  Uiso   1.00
C140   C     0.42102   0.44421   0.40465   0.00000  Uiso   1.00
C141   C     0.40355   0.53275   0.34916   0.00000  Uiso   1.00
C142   C     0.40525   0.42035   0.29646   0.00000  Uiso   1.00
C143   C     0.39997   0.30101   0.19801   0.00000  Uiso   1.00
C144   C     0.36773   0.42674   0.50836   0.00000  Uiso   1.00
C145   C     0.30547   0.50061   0.54008   0.00000  Uiso   1.00
C146   C     0.26231   0.37350   0.57469   0.00000  Uiso   1.00
C147   C     0.17434   0.22707   0.63730   0.00000  Uiso   1.00
C148   C     0.50233   0.50450   0.49383   0.00000  Uiso   1.00
C149   C     0.55325   0.64374   0.51334   0.00000  Uiso   1.00
C150   C     0.62342   0.58209   0.53573   0.00000  Uiso   1.00
C151   C     0.74444   0.55639   0.57577   0.00000  Uiso   1.00
C152   C     0.45666   0.18297   0.47288   0.00000  Uiso   1.00
C153   C     0.43953   0.25025   0.40742   0.00000  Uiso   1.00
C154   C     0.44126   0.13769   0.35479   0.00000  Uiso   1.00
C155   C     0.42380   0.22605   0.29923   0.00000  Uiso   1.00
C156   C     0.38624   0.23279   0.51113   0.00000  Uiso   1.00
C157   C     0.34317   0.10555   0.54571   0.00000  Uiso   1.00
C158   C     0.28086   0.17920   0.57746   0.00000  Uiso   1.00
C159   C     0.52085   0.31054   0.49659   0.00000  Uiso   1.00
C160   C     0.59095   0.24867   0.51897   0.00000  Uiso   1.00
C161   C     0.64196   0.38779   0.53850   0.00000  Uiso   1.00
H162   H     0.40816   0.69105   0.46563   0.00000  Uiso   1.00
H163   H     0.38922   0.68285   0.34704   0.00000  Uiso   1.00
H164   H     0.29116   0.65071   0.53793   0.00000  Uiso   1.00
H165   H     0.53890   0.79382   0.51119   0.00000  Uiso   1.00
H166   H     0.37636   0.58821   0.21677   0.00000  Uiso   1.00
H167   H     0.16960   0.52047   0.61930   0.00000  Uiso   1.00
H168   H     0.69201   0.82223   0.56292   0.00000  Uiso   1.00
H169   H     0.47107   0.03196   0.47503   0.00000  Uiso   1.00
H170   H     0.45559   0.98760   0.35694   0.00000  Uiso   1.00
H171   H     0.35752   0.95547   0.54784   0.00000  Uiso   1.00
H172   H     0.60526   0.09857   0.52110   0.00000  Uiso   1.00
H173   H     0.43022   0.02392   0.22482   0.00000  Uiso   1.00
H174   H     0.22346   0.95618   0.62735   0.00000  Uiso   1.00
H175   H     0.74587   0.25794   0.57096   0.00000  Uiso   1.00
O176   O     0.39194   0.28876   0.14295   0.00000  Uiso   1.00
O177   O     0.12069   0.19989   0.67106   0.00000  Uiso   1.00
O178   O     0.80609   0.59580   0.59708   0.00000  Uiso   1.00
N179   N     0.39117   0.46150   0.23487   0.00000  Uiso   1.00
N180   N     0.19786   0.39816   0.61120   0.00000  Uiso   1.00
N181   N     0.68627   0.68028   0.55850   0.00000  Uiso   1.00
N182   N     0.42016   0.15786   0.23920   0.00000  Uiso   1.00
N183   N     0.22684   0.09452   0.61553   0.00000  Uiso   1.00
N184   N     0.71525   0.37664   0.56283   0.00000  Uiso   1.00
