data_job_06297
_audit_creation_date              2018-12-19
_audit_creation_method            'Materials Studio'
_symmetry_space_group_name_H-M    'P1'
_symmetry_Int_Tables_number       1
_symmetry_cell_setting            triclinic
loop_
_symmetry_equiv_pos_as_xyz
  x,y,z
_cell_length_a                    16.5742
_cell_length_b                    16.2537
_cell_length_c                    14.8465
_cell_angle_alpha                 90.3191
_cell_angle_beta                  90.3641
_cell_angle_gamma                 87.3850
loop_
_atom_site_label
_atom_site_type_symbol
_atom_site_fract_x
_atom_site_fract_y
_atom_site_fract_z
_atom_site_U_iso_or_equiv
_atom_site_adp_type
_atom_site_occupancy
C1     C     0.61632   0.19877   0.57153   0.00000  Uiso   1.00
C2     C     0.64722   0.26441   0.63517   0.00000  Uiso   1.00
C3     C     0.65038   0.34772   0.61628   0.00000  Uiso   1.00
C4     C     0.68068   0.39770   0.68341   0.00000  Uiso   1.00
C5     C     0.72471   0.50453   0.76957   0.00000  Uiso   1.00
C6     C     0.68520   0.13389   0.56207   0.00000  Uiso   1.00
C7     C     0.72028   0.10745   0.48172   0.00000  Uiso   1.00
C8     C     0.78255   0.04756   0.48733   0.00000  Uiso   1.00
C9     C     0.88550   0.95171   0.46001   0.00000  Uiso   1.00
C10    C     0.54957   0.15732   0.62209   0.00000  Uiso   1.00
C11    C     0.47064   0.15056   0.59219   0.00000  Uiso   1.00
C12    C     0.41872   0.11037   0.64832   0.00000  Uiso   1.00
C13    C     0.31110   0.05089   0.71417   0.00000  Uiso   1.00
C14    C     0.66450   0.13939   0.72436   0.00000  Uiso   1.00
C15    C     0.67339   0.23215   0.71817   0.00000  Uiso   1.00
C16    C     0.70369   0.28203   0.78535   0.00000  Uiso   1.00
C17    C     0.70690   0.36540   0.76657   0.00000  Uiso   1.00
C18    C     0.71136   0.10164   0.64508   0.00000  Uiso   1.00
C19    C     0.77359   0.04177   0.65080   0.00000  Uiso   1.00
C20    C     0.80877   0.01525   0.57049   0.00000  Uiso   1.00
C21    C     0.57574   0.12507   0.70510   0.00000  Uiso   1.00
C22    C     0.52394   0.08487   0.76127   0.00000  Uiso   1.00
C23    C     0.44494   0.07806   0.73147   0.00000  Uiso   1.00
H24    H     0.59595   0.22387   0.50691   0.00000  Uiso   1.00
H25    H     0.63013   0.37265   0.55203   0.00000  Uiso   1.00
H26    H     0.70002   0.13242   0.41750   0.00000  Uiso   1.00
H27    H     0.45041   0.17552   0.52795   0.00000  Uiso   1.00
H28    H     0.67960   0.52337   0.63864   0.00000  Uiso   1.00
H29    H     0.82693   0.01681   0.35498   0.00000  Uiso   1.00
H30    H     0.30058   0.10770   0.58789   0.00000  Uiso   1.00
H31    H     0.68487   0.11428   0.78898   0.00000  Uiso   1.00
H32    H     0.72393   0.25706   0.84958   0.00000  Uiso   1.00
H33    H     0.79382   0.01682   0.71505   0.00000  Uiso   1.00
H34    H     0.54421   0.05993   0.82550   0.00000  Uiso   1.00
H35    H     0.75573   0.42955   0.88015   0.00000  Uiso   1.00
H36    H     0.90307   0.92298   0.59648   0.00000  Uiso   1.00
H37    H     0.37672   0.01388   0.82939   0.00000  Uiso   1.00
O38    O     0.74178   0.57235   0.79416   0.00000  Uiso   1.00
O39    O     0.93507   0.90775   0.42200   0.00000  Uiso   1.00
O40    O     0.24451   0.02700   0.72758   0.00000  Uiso   1.00
N41    N     0.69214   0.48170   0.68717   0.00000  Uiso   1.00
N42    N     0.82990   0.00811   0.42196   0.00000  Uiso   1.00
N43    N     0.33781   0.09306   0.63970   0.00000  Uiso   1.00
N44    N     0.73311   0.43122   0.81712   0.00000  Uiso   1.00
N45    N     0.87087   0.95762   0.55192   0.00000  Uiso   1.00
N46    N     0.37878   0.04257   0.76966   0.00000  Uiso   1.00
C47    C     0.58288   0.61885   0.19793   0.00000  Uiso   1.00
C48    C     0.63681   0.65087   0.27270   0.00000  Uiso   1.00
C49    C     0.61752   0.65558   0.36347   0.00000  Uiso   1.00
C50    C     0.67502   0.68671   0.42119   0.00000  Uiso   1.00
C51    C     0.74747   0.73259   0.54216   0.00000  Uiso   1.00
C52    C     0.57316   0.68818   0.12938   0.00000  Uiso   1.00
C53    C     0.50036   0.72425   0.09964   0.00000  Uiso   1.00
C54    C     0.50430   0.78679   0.03671   0.00000  Uiso   1.00
C55    C     0.47792   0.89055   0.93512   0.00000  Uiso   1.00
C56    C     0.63216   0.54966   0.15133   0.00000  Uiso   1.00
C57    C     0.60897   0.46926   0.14002   0.00000  Uiso   1.00
C58    C     0.66257   0.41517   0.09555   0.00000  Uiso   1.00
C59    C     0.72781   0.30385   0.02804   0.00000  Uiso   1.00
C60    C     0.71930   0.66575   0.13904   0.00000  Uiso   1.00
C61    C     0.71090   0.67635   0.24071   0.00000  Uiso   1.00
C62    C     0.76845   0.70747   0.29831   0.00000  Uiso   1.00
C63    C     0.74926   0.71223   0.38915   0.00000  Uiso   1.00
C64    C     0.64725   0.71366   0.09740   0.00000  Uiso   1.00
C65    C     0.65129   0.77615   0.03449   0.00000  Uiso   1.00
C66    C     0.57852   0.81231   0.00466   0.00000  Uiso   1.00
C67    C     0.70626   0.57513   0.11935   0.00000  Uiso   1.00
C68    C     0.75990   0.52116   0.07487   0.00000  Uiso   1.00
C69    C     0.73680   0.44069   0.06350   0.00000  Uiso   1.00
H70    H     0.52519   0.59902   0.22282   0.00000  Uiso   1.00
H71    H     0.56017   0.63587   0.38819   0.00000  Uiso   1.00
H72    H     0.44303   0.70452   0.12440   0.00000  Uiso   1.00
H73    H     0.55163   0.44957   0.16478   0.00000  Uiso   1.00
H74    H     0.63161   0.68798   0.55742   0.00000  Uiso   1.00
H75    H     0.38462   0.83272   0.00118   0.00000  Uiso   1.00
H76    H     0.61361   0.29511   0.08633   0.00000  Uiso   1.00
H77    H     0.77699   0.68559   0.11413   0.00000  Uiso   1.00
H78    H     0.82579   0.72719   0.27354   0.00000  Uiso   1.00
H79    H     0.70865   0.79584   0.00975   0.00000  Uiso   1.00
H80    H     0.81724   0.54089   0.05013   0.00000  Uiso   1.00
H81    H     0.84719   0.76210   0.46437   0.00000  Uiso   1.00
H82    H     0.60020   0.90684   0.90812   0.00000  Uiso   1.00
H83    H     0.82919   0.36923   0.99327   0.00000  Uiso   1.00
O84    O     0.76695   0.75087   0.61771   0.00000  Uiso   1.00
O85    O     0.44290   0.94075   0.88793   0.00000  Uiso   1.00
O86    O     0.74333   0.23541   0.99965   0.00000  Uiso   1.00
N87    N     0.67566   0.69970   0.51365   0.00000  Uiso   1.00
N88    N     0.44474   0.83504   0.99360   0.00000  Uiso   1.00
N89    N     0.65881   0.33241   0.07319   0.00000  Uiso   1.00
N90    N     0.79166   0.73958   0.46358   0.00000  Uiso   1.00
N91    N     0.56074   0.87492   0.94353   0.00000  Uiso   1.00
N92    N     0.77482   0.37230   0.02312   0.00000  Uiso   1.00
C93    C     0.20056   0.58017   0.61574   0.00000  Uiso   1.00
C94    C     0.26437   0.63505   0.65494   0.00000  Uiso   1.00
C95    C     0.34639   0.61467   0.66182   0.00000  Uiso   1.00
C96    C     0.39479   0.67334   0.69973   0.00000  Uiso   1.00
C97    C     0.49881   0.74694   0.75608   0.00000  Uiso   1.00
C98    C     0.13772   0.57193   0.68934   0.00000  Uiso   1.00
C99    C     0.11325   0.49848   0.72514   0.00000  Uiso   1.00
C100   C     0.05503   0.50403   0.79200   0.00000  Uiso   1.00
C101   C     0.96239   0.47963   0.90171   0.00000  Uiso   1.00
C102   C     0.15853   0.62975   0.54069   0.00000  Uiso   1.00
C103   C     0.15154   0.60491   0.45151   0.00000  Uiso   1.00
C104   C     0.11082   0.65913   0.39321   0.00000  Uiso   1.00
C105   C     0.05049   0.72451   0.27213   0.00000  Uiso   1.00
C106   C     0.14065   0.72061   0.67081   0.00000  Uiso   1.00
C107   C     0.23182   0.71133   0.68485   0.00000  Uiso   1.00
C108   C     0.28011   0.77005   0.72275   0.00000  Uiso   1.00
C109   C     0.36219   0.74976   0.72969   0.00000  Uiso   1.00
C110   C     0.10518   0.64821   0.71925   0.00000  Uiso   1.00
C111   C     0.04698   0.65386   0.78607   0.00000  Uiso   1.00
C112   C     0.02243   0.58044   0.82196   0.00000  Uiso   1.00
C113   C     0.12599   0.70604   0.57060   0.00000  Uiso   1.00
C114   C     0.08527   0.76030   0.51243   0.00000  Uiso   1.00
C115   C     0.07822   0.73555   0.42318   0.00000  Uiso   1.00
H116   H     0.22588   0.52078   0.59246   0.00000  Uiso   1.00
H117   H     0.37155   0.55563   0.63868   0.00000  Uiso   1.00
H118   H     0.13844   0.43946   0.70197   0.00000  Uiso   1.00
H119   H     0.17673   0.54588   0.42838   0.00000  Uiso   1.00
H120   H     0.51869   0.62789   0.70314   0.00000  Uiso   1.00
H121   H     0.02715   0.38295   0.83658   0.00000  Uiso   1.00
H122   H     0.10788   0.60735   0.25966   0.00000  Uiso   1.00
H123   H     0.11531   0.78000   0.69410   0.00000  Uiso   1.00
H124   H     0.25491   0.82908   0.74589   0.00000  Uiso   1.00
H125   H     0.02181   0.71291   0.80919   0.00000  Uiso   1.00
H126   H     0.06009   0.81932   0.53560   0.00000  Uiso   1.00
H127   H     0.42402   0.84983   0.79016   0.00000  Uiso   1.00
H128   H     0.93248   0.60489   0.92361   0.00000  Uiso   1.00
H129   H     0.01322   0.82929   0.34669   0.00000  Uiso   1.00
O130   O     0.56518   0.76646   0.77891   0.00000  Uiso   1.00
O131   O     0.92029   0.44510   0.95398   0.00000  Uiso   1.00
O132   O     0.02622   0.73951   0.19707   0.00000  Uiso   1.00
N133   N     0.47725   0.67340   0.71649   0.00000  Uiso   1.00
N134   N     0.01770   0.44439   0.84127   0.00000  Uiso   1.00
N135   N     0.09316   0.65417   0.30190   0.00000  Uiso   1.00
N136   N     0.42631   0.79282   0.76332   0.00000  Uiso   1.00
N137   N     0.96676   0.56382   0.88810   0.00000  Uiso   1.00
N138   N     0.04223   0.77360   0.34873   0.00000  Uiso   1.00
C139   C     0.38368   0.80123   0.42847   0.00000  Uiso   1.00
C140   C     0.35278   0.73559   0.36483   0.00000  Uiso   1.00
C141   C     0.34962   0.65228   0.38372   0.00000  Uiso   1.00
C142   C     0.31932   0.60229   0.31659   0.00000  Uiso   1.00
C143   C     0.27529   0.49547   0.23043   0.00000  Uiso   1.00
C144   C     0.31480   0.86611   0.43793   0.00000  Uiso   1.00
C145   C     0.27972   0.89254   0.51827   0.00000  Uiso   1.00
C146   C     0.21745   0.95244   0.51267   0.00000  Uiso   1.00
C147   C     0.11450   0.04829   0.53999   0.00000  Uiso   1.00
C148   C     0.45043   0.84268   0.37791   0.00000  Uiso   1.00
C149   C     0.52936   0.84944   0.40781   0.00000  Uiso   1.00
C150   C     0.58128   0.88963   0.35168   0.00000  Uiso   1.00
C151   C     0.68890   0.94911   0.28583   0.00000  Uiso   1.00
C152   C     0.33550   0.86061   0.27564   0.00000  Uiso   1.00
C153   C     0.32661   0.76784   0.28183   0.00000  Uiso   1.00
C154   C     0.29631   0.71797   0.21465   0.00000  Uiso   1.00
C155   C     0.29310   0.63460   0.23343   0.00000  Uiso   1.00
C156   C     0.28864   0.89836   0.35492   0.00000  Uiso   1.00
C157   C     0.22641   0.95823   0.34920   0.00000  Uiso   1.00
C158   C     0.19123   0.98475   0.42951   0.00000  Uiso   1.00
C159   C     0.42426   0.87493   0.29490   0.00000  Uiso   1.00
C160   C     0.47606   0.91512   0.23873   0.00000  Uiso   1.00
C161   C     0.55506   0.92194   0.26853   0.00000  Uiso   1.00
H162   H     0.40405   0.77613   0.49309   0.00000  Uiso   1.00
H163   H     0.36987   0.62735   0.44797   0.00000  Uiso   1.00
H164   H     0.29998   0.86758   0.58250   0.00000  Uiso   1.00
H165   H     0.54959   0.82448   0.47205   0.00000  Uiso   1.00
H166   H     0.32040   0.47663   0.36136   0.00000  Uiso   1.00
H167   H     0.17307   0.98319   0.64502   0.00000  Uiso   1.00
H168   H     0.69942   0.89230   0.41211   0.00000  Uiso   1.00
H169   H     0.31513   0.88571   0.21102   0.00000  Uiso   1.00
H170   H     0.27607   0.74294   0.15042   0.00000  Uiso   1.00
H171   H     0.20618   0.98318   0.28495   0.00000  Uiso   1.00
H172   H     0.45579   0.94007   0.17450   0.00000  Uiso   1.00
H173   H     0.24427   0.57045   0.11985   0.00000  Uiso   1.00
H174   H     0.09693   0.07702   0.40352   0.00000  Uiso   1.00
H175   H     0.62328   0.98612   0.17061   0.00000  Uiso   1.00
O176   O     0.25822   0.42765   0.20584   0.00000  Uiso   1.00
O177   O     0.06493   0.09225   0.57800   0.00000  Uiso   1.00
O178   O     0.75549   0.97300   0.27242   0.00000  Uiso   1.00
N179   N     0.30786   0.51830   0.31283   0.00000  Uiso   1.00
N180   N     0.17010   0.99189   0.57804   0.00000  Uiso   1.00
N181   N     0.66219   0.90694   0.36030   0.00000  Uiso   1.00
N182   N     0.26689   0.56878   0.18288   0.00000  Uiso   1.00
N183   N     0.12913   0.04238   0.44808   0.00000  Uiso   1.00
N184   N     0.62122   0.95742   0.23034   0.00000  Uiso   1.00
C185   C     0.41712   0.38115   0.80207   0.00000  Uiso   1.00
C186   C     0.36319   0.34913   0.72730   0.00000  Uiso   1.00
C187   C     0.38248   0.34442   0.63653   0.00000  Uiso   1.00
C188   C     0.32498   0.31329   0.57881   0.00000  Uiso   1.00
C189   C     0.25253   0.26741   0.45784   0.00000  Uiso   1.00
C190   C     0.42684   0.31182   0.87061   0.00000  Uiso   1.00
C191   C     0.49964   0.27575   0.90036   0.00000  Uiso   1.00
C192   C     0.49570   0.21321   0.96329   0.00000  Uiso   1.00
C193   C     0.52208   0.10945   0.06488   0.00000  Uiso   1.00
C194   C     0.36784   0.45034   0.84867   0.00000  Uiso   1.00
C195   C     0.39103   0.53074   0.85998   0.00000  Uiso   1.00
C196   C     0.33743   0.58483   0.90445   0.00000  Uiso   1.00
C197   C     0.27219   0.69615   0.97196   0.00000  Uiso   1.00
C198   C     0.28070   0.33425   0.86096   0.00000  Uiso   1.00
C199   C     0.28910   0.32365   0.75929   0.00000  Uiso   1.00
C200   C     0.23155   0.29253   0.70169   0.00000  Uiso   1.00
C201   C     0.25074   0.28777   0.61085   0.00000  Uiso   1.00
C202   C     0.35275   0.28634   0.90260   0.00000  Uiso   1.00
C203   C     0.34871   0.22385   0.96551   0.00000  Uiso   1.00
C204   C     0.42147   0.18769   0.99534   0.00000  Uiso   1.00
C205   C     0.29374   0.42487   0.88065   0.00000  Uiso   1.00
C206   C     0.24010   0.47884   0.92513   0.00000  Uiso   1.00
C207   C     0.26320   0.55931   0.93650   0.00000  Uiso   1.00
H208   H     0.47481   0.40098   0.77717   0.00000  Uiso   1.00
H209   H     0.43983   0.36413   0.61181   0.00000  Uiso   1.00
H210   H     0.55697   0.29548   0.87560   0.00000  Uiso   1.00
H211   H     0.44837   0.55043   0.83522   0.00000  Uiso   1.00
H212   H     0.36839   0.31202   0.44258   0.00000  Uiso   1.00
H213   H     0.61538   0.16728   0.99882   0.00000  Uiso   1.00
H214   H     0.38639   0.70489   0.91367   0.00000  Uiso   1.00
H215   H     0.22301   0.31441   0.88587   0.00000  Uiso   1.00
H216   H     0.17421   0.27281   0.72646   0.00000  Uiso   1.00
H217   H     0.29135   0.20416   0.99025   0.00000  Uiso   1.00
H218   H     0.18276   0.45911   0.94987   0.00000  Uiso   1.00
H219   H     0.15281   0.23790   0.53563   0.00000  Uiso   1.00
H220   H     0.39980   0.09315   0.09188   0.00000  Uiso   1.00
H221   H     0.17081   0.63077   0.00673   0.00000  Uiso   1.00
O222   O     0.23305   0.24913   0.38229   0.00000  Uiso   1.00
O223   O     0.55709   0.05925   0.11207   0.00000  Uiso   1.00
O224   O     0.25667   0.76459   0.00035   0.00000  Uiso   1.00
N225   N     0.32434   0.30030   0.48635   0.00000  Uiso   1.00
N226   N     0.55526   0.16496   0.00640   0.00000  Uiso   1.00
N227   N     0.34119   0.66758   0.92681   0.00000  Uiso   1.00
N228   N     0.20834   0.26042   0.53642   0.00000  Uiso   1.00
N229   N     0.43926   0.12508   0.05647   0.00000  Uiso   1.00
N230   N     0.22518   0.62770   0.97688   0.00000  Uiso   1.00
C231   C     0.79944   0.41983   0.38426   0.00000  Uiso   1.00
C232   C     0.73563   0.36495   0.34506   0.00000  Uiso   1.00
C233   C     0.65361   0.38533   0.33818   0.00000  Uiso   1.00
C234   C     0.60521   0.32666   0.30027   0.00000  Uiso   1.00
C235   C     0.50119   0.25306   0.24392   0.00000  Uiso   1.00
C236   C     0.86228   0.42807   0.31066   0.00000  Uiso   1.00
C237   C     0.88675   0.50152   0.27486   0.00000  Uiso   1.00
C238   C     0.94497   0.49597   0.20800   0.00000  Uiso   1.00
C239   C     0.03761   0.52036   0.09829   0.00000  Uiso   1.00
C240   C     0.84147   0.37025   0.45931   0.00000  Uiso   1.00
C241   C     0.84846   0.39509   0.54849   0.00000  Uiso   1.00
C242   C     0.88918   0.34087   0.60679   0.00000  Uiso   1.00
C243   C     0.94951   0.27549   0.72787   0.00000  Uiso   1.00
C244   C     0.85935   0.27939   0.32919   0.00000  Uiso   1.00
C245   C     0.76818   0.28867   0.31515   0.00000  Uiso   1.00
C246   C     0.71989   0.22995   0.27725   0.00000  Uiso   1.00
C247   C     0.63781   0.25024   0.27031   0.00000  Uiso   1.00
C248   C     0.89482   0.35179   0.28075   0.00000  Uiso   1.00
C249   C     0.95302   0.34614   0.21393   0.00000  Uiso   1.00
C250   C     0.97757   0.41956   0.17804   0.00000  Uiso   1.00
C251   C     0.87401   0.29396   0.42940   0.00000  Uiso   1.00
C252   C     0.91473   0.23970   0.48757   0.00000  Uiso   1.00
C253   C     0.92178   0.26445   0.57682   0.00000  Uiso   1.00
H254   H     0.77411   0.47922   0.40754   0.00000  Uiso   1.00
H255   H     0.62845   0.44437   0.36132   0.00000  Uiso   1.00
H256   H     0.86156   0.56054   0.29803   0.00000  Uiso   1.00
H257   H     0.82327   0.45412   0.57162   0.00000  Uiso   1.00
H258   H     0.48131   0.37211   0.29686   0.00000  Uiso   1.00
H259   H     0.97285   0.61705   0.16342   0.00000  Uiso   1.00
H260   H     0.89212   0.39265   0.74034   0.00000  Uiso   1.00
H261   H     0.88469   0.22000   0.30590   0.00000  Uiso   1.00
H262   H     0.74509   0.17092   0.25411   0.00000  Uiso   1.00
H263   H     0.97819   0.28709   0.19081   0.00000  Uiso   1.00
H264   H     0.93990   0.18068   0.46440   0.00000  Uiso   1.00
H265   H     0.57598   0.15017   0.20984   0.00000  Uiso   1.00
H266   H     0.06752   0.39511   0.07639   0.00000  Uiso   1.00
H267   H     0.98678   0.17071   0.65331   0.00000  Uiso   1.00
O268   O     0.43482   0.23354   0.22109   0.00000  Uiso   1.00
O269   O     0.07971   0.55490   0.04602   0.00000  Uiso   1.00
O270   O     0.97378   0.26049   0.80293   0.00000  Uiso   1.00
N271   N     0.52275   0.32660   0.28351   0.00000  Uiso   1.00
N272   N     0.98230   0.55561   0.15873   0.00000  Uiso   1.00
N273   N     0.90684   0.34583   0.69810   0.00000  Uiso   1.00
N274   N     0.57369   0.20718   0.23668   0.00000  Uiso   1.00
N275   N     0.03324   0.43618   0.11190   0.00000  Uiso   1.00
N276   N     0.95777   0.22640   0.65127   0.00000  Uiso   1.00
