data_job_03358
_audit_creation_date              2018-12-19
_audit_creation_method            'Materials Studio'
_symmetry_space_group_name_H-M    'P1'
_symmetry_Int_Tables_number       1
_symmetry_cell_setting            triclinic
loop_
_symmetry_equiv_pos_as_xyz
  x,y,z
_cell_length_a                    16.3320
_cell_length_b                    13.3035
_cell_length_c                    23.7345
_cell_angle_alpha                 90.0000
_cell_angle_beta                  56.2648
_cell_angle_gamma                 90.0000
loop_
_atom_site_label
_atom_site_type_symbol
_atom_site_fract_x
_atom_site_fract_y
_atom_site_fract_z
_atom_site_U_iso_or_equiv
_atom_site_adp_type
_atom_site_occupancy
C1     C     0.13185   0.24933   0.46330   0.00000  Uiso   1.00
C2     C     0.15245   0.21629   0.39505   0.00000  Uiso   1.00
C3     C     0.08447   0.17401   0.38436   0.00000  Uiso   1.00
C4     C     0.11781   0.14889   0.31815   0.00000  Uiso   1.00
C5     C     0.13493   0.09501   0.22032   0.00000  Uiso   1.00
C6     C     0.20537   0.19282   0.47202   0.00000  Uiso   1.00
C7     C     0.18188   0.13082   0.52606   0.00000  Uiso   1.00
C8     C     0.25976   0.08596   0.52464   0.00000  Uiso   1.00
C9     C     0.35904   0.99571   0.54633   0.00000  Uiso   1.00
C10    C     0.16114   0.35984   0.45527   0.00000  Uiso   1.00
C11    C     0.10049   0.43826   0.49524   0.00000  Uiso   1.00
C12    C     0.14115   0.53402   0.47974   0.00000  Uiso   1.00
C13    C     0.17177   0.70308   0.47543   0.00000  Uiso   1.00
C14    C     0.31193   0.27993   0.36470   0.00000  Uiso   1.00
C15    C     0.25027   0.23291   0.34149   0.00000  Uiso   1.00
C16    C     0.28371   0.20786   0.27527   0.00000  Uiso   1.00
C17    C     0.21580   0.16554   0.26449   0.00000  Uiso   1.00
C18    C     0.30318   0.20944   0.41846   0.00000  Uiso   1.00
C19    C     0.38112   0.16467   0.41697   0.00000  Uiso   1.00
C20    C     0.35776   0.10261   0.47098   0.00000  Uiso   1.00
C21    C     0.25896   0.37646   0.40172   0.00000  Uiso   1.00
C22    C     0.29973   0.47211   0.38615   0.00000  Uiso   1.00
C23    C     0.23914   0.55067   0.42608   0.00000  Uiso   1.00
H24    H     0.05570   0.23639   0.50500   0.00000  Uiso   1.00
H25    H     0.00878   0.16115   0.42582   0.00000  Uiso   1.00
H26    H     0.10618   0.11798   0.56750   0.00000  Uiso   1.00
H27    H     0.02480   0.42537   0.53668   0.00000  Uiso   1.00
H28    H     0.99992   0.08502   0.31443   0.00000  Uiso   1.00
H29    H     0.20527   0.99402   0.61316   0.00000  Uiso   1.00
H30    H     0.03367   0.64223   0.54819   0.00000  Uiso   1.00
H31    H     0.38809   0.29287   0.32300   0.00000  Uiso   1.00
H32    H     0.35941   0.22073   0.23384   0.00000  Uiso   1.00
H33    H     0.45680   0.17755   0.37551   0.00000  Uiso   1.00
H34    H     0.37542   0.48495   0.34470   0.00000  Uiso   1.00
H35    H     0.28450   0.13337   0.15861   0.00000  Uiso   1.00
H36    H     0.48986   0.04238   0.45735   0.00000  Uiso   1.00
H37    H     0.31825   0.69058   0.39237   0.00000  Uiso   1.00
O38    O     0.11736   0.06069   0.18115   0.00000  Uiso   1.00
O39    O     0.38677   0.94132   0.57309   0.00000  Uiso   1.00
O40    O     0.16163   0.79174   0.48784   0.00000  Uiso   1.00
N41    N     0.07082   0.10632   0.28999   0.00000  Uiso   1.00
N42    N     0.26282   0.02123   0.56929   0.00000  Uiso   1.00
N43    N     0.10239   0.62724   0.50855   0.00000  Uiso   1.00
N44    N     0.22396   0.13234   0.20614   0.00000  Uiso   1.00
N45    N     0.41595   0.04725   0.48544   0.00000  Uiso   1.00
N46    N     0.25552   0.65326   0.42471   0.00000  Uiso   1.00
C47    C     0.86815   0.24933   0.03670   0.00000  Uiso   1.00
C48    C     0.84755   0.21629   0.10495   0.00000  Uiso   1.00
C49    C     0.91553   0.17401   0.11564   0.00000  Uiso   1.00
C50    C     0.88219   0.14889   0.18185   0.00000  Uiso   1.00
C51    C     0.86507   0.09501   0.27968   0.00000  Uiso   1.00
C52    C     0.79463   0.19282   0.02798   0.00000  Uiso   1.00
C53    C     0.81812   0.13082   0.97394   0.00000  Uiso   1.00
C54    C     0.74024   0.08596   0.97536   0.00000  Uiso   1.00
C55    C     0.64096   0.99571   0.95367   0.00000  Uiso   1.00
C56    C     0.83886   0.35984   0.04473   0.00000  Uiso   1.00
C57    C     0.89951   0.43826   0.00476   0.00000  Uiso   1.00
C58    C     0.85885   0.53402   0.02026   0.00000  Uiso   1.00
C59    C     0.82823   0.70308   0.02457   0.00000  Uiso   1.00
C60    C     0.68807   0.27993   0.13530   0.00000  Uiso   1.00
C61    C     0.74973   0.23291   0.15851   0.00000  Uiso   1.00
C62    C     0.71629   0.20786   0.22473   0.00000  Uiso   1.00
C63    C     0.78420   0.16554   0.23551   0.00000  Uiso   1.00
C64    C     0.69682   0.20944   0.08154   0.00000  Uiso   1.00
C65    C     0.61888   0.16467   0.08303   0.00000  Uiso   1.00
C66    C     0.64224   0.10261   0.02902   0.00000  Uiso   1.00
C67    C     0.74104   0.37646   0.09828   0.00000  Uiso   1.00
C68    C     0.70027   0.47211   0.11385   0.00000  Uiso   1.00
C69    C     0.76086   0.55067   0.07392   0.00000  Uiso   1.00
H70    H     0.94430   0.23639   0.99500   0.00000  Uiso   1.00
H71    H     0.99122   0.16115   0.07418   0.00000  Uiso   1.00
H72    H     0.89382   0.11798   0.93250   0.00000  Uiso   1.00
H73    H     0.97520   0.42537   0.96332   0.00000  Uiso   1.00
H74    H     0.00008   0.08502   0.18557   0.00000  Uiso   1.00
H75    H     0.79473   0.99402   0.88684   0.00000  Uiso   1.00
H76    H     0.96633   0.64223   0.95181   0.00000  Uiso   1.00
H77    H     0.61191   0.29287   0.17700   0.00000  Uiso   1.00
H78    H     0.64059   0.22073   0.26616   0.00000  Uiso   1.00
H79    H     0.54320   0.17755   0.12449   0.00000  Uiso   1.00
H80    H     0.62458   0.48495   0.15530   0.00000  Uiso   1.00
H81    H     0.71550   0.13337   0.34139   0.00000  Uiso   1.00
H82    H     0.51014   0.04238   0.04265   0.00000  Uiso   1.00
H83    H     0.68175   0.69058   0.10763   0.00000  Uiso   1.00
O84    O     0.88264   0.06069   0.31885   0.00000  Uiso   1.00
O85    O     0.61323   0.94132   0.92691   0.00000  Uiso   1.00
O86    O     0.83837   0.79174   0.01216   0.00000  Uiso   1.00
N87    N     0.92918   0.10632   0.21001   0.00000  Uiso   1.00
N88    N     0.73718   0.02123   0.93071   0.00000  Uiso   1.00
N89    N     0.89761   0.62724   0.99145   0.00000  Uiso   1.00
N90    N     0.77604   0.13234   0.29386   0.00000  Uiso   1.00
N91    N     0.58405   0.04725   0.01456   0.00000  Uiso   1.00
N92    N     0.74448   0.65326   0.07529   0.00000  Uiso   1.00
C93    C     0.86815   0.75067   0.53670   0.00000  Uiso   1.00
C94    C     0.84755   0.78371   0.60495   0.00000  Uiso   1.00
C95    C     0.91553   0.82599   0.61564   0.00000  Uiso   1.00
C96    C     0.88219   0.85111   0.68185   0.00000  Uiso   1.00
C97    C     0.86507   0.90499   0.77968   0.00000  Uiso   1.00
C98    C     0.79463   0.80718   0.52798   0.00000  Uiso   1.00
C99    C     0.81812   0.86918   0.47394   0.00000  Uiso   1.00
C100   C     0.74024   0.91404   0.47536   0.00000  Uiso   1.00
C101   C     0.64096   0.00429   0.45367   0.00000  Uiso   1.00
C102   C     0.83886   0.64016   0.54473   0.00000  Uiso   1.00
C103   C     0.89951   0.56174   0.50476   0.00000  Uiso   1.00
C104   C     0.85885   0.46598   0.52026   0.00000  Uiso   1.00
C105   C     0.82823   0.29692   0.52457   0.00000  Uiso   1.00
C106   C     0.68807   0.72007   0.63530   0.00000  Uiso   1.00
C107   C     0.74973   0.76709   0.65851   0.00000  Uiso   1.00
C108   C     0.71629   0.79214   0.72473   0.00000  Uiso   1.00
C109   C     0.78420   0.83446   0.73551   0.00000  Uiso   1.00
C110   C     0.69682   0.79056   0.58154   0.00000  Uiso   1.00
C111   C     0.61888   0.83533   0.58303   0.00000  Uiso   1.00
C112   C     0.64224   0.89739   0.52902   0.00000  Uiso   1.00
C113   C     0.74104   0.62354   0.59828   0.00000  Uiso   1.00
C114   C     0.70027   0.52789   0.61385   0.00000  Uiso   1.00
C115   C     0.76086   0.44933   0.57392   0.00000  Uiso   1.00
H116   H     0.94430   0.76361   0.49500   0.00000  Uiso   1.00
H117   H     0.99122   0.83885   0.57418   0.00000  Uiso   1.00
H118   H     0.89382   0.88202   0.43250   0.00000  Uiso   1.00
H119   H     0.97520   0.57463   0.46332   0.00000  Uiso   1.00
H120   H     0.00008   0.91498   0.68557   0.00000  Uiso   1.00
H121   H     0.79473   0.00598   0.38684   0.00000  Uiso   1.00
H122   H     0.96633   0.35777   0.45181   0.00000  Uiso   1.00
H123   H     0.61191   0.70713   0.67700   0.00000  Uiso   1.00
H124   H     0.64059   0.77927   0.76616   0.00000  Uiso   1.00
H125   H     0.54320   0.82245   0.62449   0.00000  Uiso   1.00
H126   H     0.62458   0.51505   0.65530   0.00000  Uiso   1.00
H127   H     0.71550   0.86663   0.84139   0.00000  Uiso   1.00
H128   H     0.51014   0.95762   0.54265   0.00000  Uiso   1.00
H129   H     0.68175   0.30942   0.60763   0.00000  Uiso   1.00
O130   O     0.88264   0.93931   0.81885   0.00000  Uiso   1.00
O131   O     0.61323   0.05868   0.42691   0.00000  Uiso   1.00
O132   O     0.83837   0.20826   0.51216   0.00000  Uiso   1.00
N133   N     0.92918   0.89368   0.71001   0.00000  Uiso   1.00
N134   N     0.73718   0.97877   0.43071   0.00000  Uiso   1.00
N135   N     0.89761   0.37276   0.49145   0.00000  Uiso   1.00
N136   N     0.77604   0.86766   0.79386   0.00000  Uiso   1.00
N137   N     0.58405   0.95275   0.51456   0.00000  Uiso   1.00
N138   N     0.74448   0.34674   0.57529   0.00000  Uiso   1.00
C139   C     0.13185   0.75067   0.96330   0.00000  Uiso   1.00
C140   C     0.15245   0.78371   0.89505   0.00000  Uiso   1.00
C141   C     0.08447   0.82599   0.88436   0.00000  Uiso   1.00
C142   C     0.11781   0.85111   0.81815   0.00000  Uiso   1.00
C143   C     0.13493   0.90499   0.72032   0.00000  Uiso   1.00
C144   C     0.20537   0.80718   0.97202   0.00000  Uiso   1.00
C145   C     0.18188   0.86918   0.02606   0.00000  Uiso   1.00
C146   C     0.25976   0.91404   0.02464   0.00000  Uiso   1.00
C147   C     0.35904   0.00429   0.04633   0.00000  Uiso   1.00
C148   C     0.16114   0.64016   0.95527   0.00000  Uiso   1.00
C149   C     0.10049   0.56174   0.99524   0.00000  Uiso   1.00
C150   C     0.14115   0.46598   0.97974   0.00000  Uiso   1.00
C151   C     0.17177   0.29692   0.97543   0.00000  Uiso   1.00
C152   C     0.31193   0.72007   0.86470   0.00000  Uiso   1.00
C153   C     0.25027   0.76709   0.84149   0.00000  Uiso   1.00
C154   C     0.28371   0.79214   0.77527   0.00000  Uiso   1.00
C155   C     0.21580   0.83446   0.76449   0.00000  Uiso   1.00
C156   C     0.30318   0.79056   0.91846   0.00000  Uiso   1.00
C157   C     0.38112   0.83533   0.91697   0.00000  Uiso   1.00
C158   C     0.35776   0.89739   0.97098   0.00000  Uiso   1.00
C159   C     0.25896   0.62354   0.90172   0.00000  Uiso   1.00
C160   C     0.29973   0.52789   0.88615   0.00000  Uiso   1.00
C161   C     0.23914   0.44933   0.92608   0.00000  Uiso   1.00
H162   H     0.05570   0.76361   0.00500   0.00000  Uiso   1.00
H163   H     0.00878   0.83885   0.92582   0.00000  Uiso   1.00
H164   H     0.10618   0.88202   0.06750   0.00000  Uiso   1.00
H165   H     0.02480   0.57463   0.03668   0.00000  Uiso   1.00
H166   H     0.99992   0.91498   0.81443   0.00000  Uiso   1.00
H167   H     0.20527   0.00598   0.11316   0.00000  Uiso   1.00
H168   H     0.03367   0.35777   0.04819   0.00000  Uiso   1.00
H169   H     0.38809   0.70713   0.82300   0.00000  Uiso   1.00
H170   H     0.35941   0.77927   0.73384   0.00000  Uiso   1.00
H171   H     0.45680   0.82245   0.87551   0.00000  Uiso   1.00
H172   H     0.37542   0.51505   0.84470   0.00000  Uiso   1.00
H173   H     0.28450   0.86663   0.65861   0.00000  Uiso   1.00
H174   H     0.48986   0.95762   0.95735   0.00000  Uiso   1.00
H175   H     0.31825   0.30942   0.89237   0.00000  Uiso   1.00
O176   O     0.11736   0.93931   0.68115   0.00000  Uiso   1.00
O177   O     0.38677   0.05868   0.07309   0.00000  Uiso   1.00
O178   O     0.16163   0.20826   0.98784   0.00000  Uiso   1.00
N179   N     0.07082   0.89368   0.78999   0.00000  Uiso   1.00
N180   N     0.26282   0.97877   0.06929   0.00000  Uiso   1.00
N181   N     0.10239   0.37276   0.00855   0.00000  Uiso   1.00
N182   N     0.22396   0.86766   0.70614   0.00000  Uiso   1.00
N183   N     0.41595   0.95275   0.98544   0.00000  Uiso   1.00
N184   N     0.25552   0.34674   0.92471   0.00000  Uiso   1.00
