data_job_04949
_audit_creation_date              2018-12-19
_audit_creation_method            'Materials Studio'
_symmetry_space_group_name_H-M    'P1'
_symmetry_Int_Tables_number       1
_symmetry_cell_setting            triclinic
loop_
_symmetry_equiv_pos_as_xyz
  x,y,z
_cell_length_a                    12.3856
_cell_length_b                    17.5702
_cell_length_c                    25.2796
_cell_angle_alpha                 90.0000
_cell_angle_beta                  90.0000
_cell_angle_gamma                 90.0000
loop_
_atom_site_label
_atom_site_type_symbol
_atom_site_fract_x
_atom_site_fract_y
_atom_site_fract_z
_atom_site_U_iso_or_equiv
_atom_site_adp_type
_atom_site_occupancy
C1     C     0.10090   0.45389   0.93538   0.00000  Uiso   1.00
C2     C     0.17931   0.41399   0.89804   0.00000  Uiso   1.00
C3     C     0.27286   0.37617   0.91293   0.00000  Uiso   1.00
C4     C     0.33370   0.34339   0.87282   0.00000  Uiso   1.00
C5     C     0.46029   0.28071   0.82291   0.00000  Uiso   1.00
C6     C     0.09275   0.53582   0.91589   0.00000  Uiso   1.00
C7     C     0.11351   0.60044   0.94578   0.00000  Uiso   1.00
C8     C     0.10147   0.67022   0.92070   0.00000  Uiso   1.00
C9     C     0.09360   0.79670   0.89851   0.00000  Uiso   1.00
C10    C     0.99069   0.41806   0.92525   0.00000  Uiso   1.00
C11    C     0.92562   0.38368   0.96302   0.00000  Uiso   1.00
C12    C     0.82764   0.35433   0.94581   0.00000  Uiso   1.00
C13    C     0.66130   0.29796   0.93816   0.00000  Uiso   1.00
C14    C     0.04258   0.46293   0.83767   0.00000  Uiso   1.00
C15    C     0.14763   0.41890   0.84497   0.00000  Uiso   1.00
C16    C     0.20834   0.38617   0.80483   0.00000  Uiso   1.00
C17    C     0.30197   0.34830   0.81965   0.00000  Uiso   1.00
C18    C     0.06107   0.54074   0.86282   0.00000  Uiso   1.00
C19    C     0.04899   0.61044   0.83768   0.00000  Uiso   1.00
C20    C     0.06974   0.67514   0.86753   0.00000  Uiso   1.00
C21    C     0.95901   0.42297   0.87218   0.00000  Uiso   1.00
C22    C     0.86110   0.39368   0.85492   0.00000  Uiso   1.00
C23    C     0.79590   0.35925   0.89265   0.00000  Uiso   1.00
H24    H     0.12557   0.45007   0.97669   0.00000  Uiso   1.00
H25    H     0.29736   0.37238   0.95400   0.00000  Uiso   1.00
H26    H     0.13802   0.59662   0.98685   0.00000  Uiso   1.00
H27    H     0.95016   0.37989   0.00408   0.00000  Uiso   1.00
H28    H     0.47387   0.28844   0.90543   0.00000  Uiso   1.00
H29    H     0.13786   0.76126   0.97471   0.00000  Uiso   1.00
H30    H     0.74173   0.30424   0.01104   0.00000  Uiso   1.00
H31    H     0.01792   0.46676   0.79635   0.00000  Uiso   1.00
H32    H     0.18380   0.38998   0.76376   0.00000  Uiso   1.00
H33    H     0.02447   0.61422   0.79662   0.00000  Uiso   1.00
H34    H     0.83661   0.39749   0.81384   0.00000  Uiso   1.00
H35    H     0.38171   0.30273   0.75103   0.00000  Uiso   1.00
H36    H     0.04570   0.77554   0.82031   0.00000  Uiso   1.00
H37    H     0.64957   0.31852   0.85664   0.00000  Uiso   1.00
O38    O     0.53888   0.24480   0.81005   0.00000  Uiso   1.00
O39    O     0.09803   0.86511   0.90093   0.00000  Uiso   1.00
O40    O     0.57831   0.26551   0.94860   0.00000  Uiso   1.00
N41    N     0.42940   0.30233   0.87357   0.00000  Uiso   1.00
N42    N     0.11527   0.74438   0.93833   0.00000  Uiso   1.00
N43    N     0.74491   0.31712   0.97230   0.00000  Uiso   1.00
N44    N     0.37981   0.31001   0.79049   0.00000  Uiso   1.00
N45    N     0.06568   0.75207   0.85525   0.00000  Uiso   1.00
N46    N     0.69532   0.32481   0.88922   0.00000  Uiso   1.00
C47    C     0.07179   0.95374   0.06158   0.00000  Uiso   1.00
C48    C     0.99411   0.91388   0.09930   0.00000  Uiso   1.00
C49    C     0.90087   0.87536   0.08482   0.00000  Uiso   1.00
C50    C     0.84069   0.84276   0.12523   0.00000  Uiso   1.00
C51    C     0.71516   0.78003   0.17575   0.00000  Uiso   1.00
C52    C     0.07917   0.03596   0.08055   0.00000  Uiso   1.00
C53    C     0.05748   0.10007   0.05030   0.00000  Uiso   1.00
C54    C     0.06892   0.17024   0.07493   0.00000  Uiso   1.00
C55    C     0.07554   0.29704   0.09632   0.00000  Uiso   1.00
C56    C     0.18248   0.91865   0.07174   0.00000  Uiso   1.00
C57    C     0.24766   0.88414   0.03407   0.00000  Uiso   1.00
C58    C     0.34609   0.85556   0.05128   0.00000  Uiso   1.00
C59    C     0.51310   0.80021   0.05899   0.00000  Uiso   1.00
C60    C     0.13072   0.96435   0.15913   0.00000  Uiso   1.00
C61    C     0.02611   0.91965   0.15229   0.00000  Uiso   1.00
C62    C     0.96606   0.88710   0.19274   0.00000  Uiso   1.00
C63    C     0.87275   0.84853   0.17831   0.00000  Uiso   1.00
C64    C     0.11118   0.04173   0.13353   0.00000  Uiso   1.00
C65    C     0.12266   0.11182   0.15822   0.00000  Uiso   1.00
C66    C     0.10098   0.17602   0.12801   0.00000  Uiso   1.00
C67    C     0.21448   0.92441   0.12472   0.00000  Uiso   1.00
C68    C     0.31284   0.89588   0.14199   0.00000  Uiso   1.00
C69    C     0.37815   0.86133   0.10436   0.00000  Uiso   1.00
H70    H     0.04688   0.94925   0.02034   0.00000  Uiso   1.00
H71    H     0.87612   0.87091   0.04381   0.00000  Uiso   1.00
H72    H     0.03272   0.09559   0.00930   0.00000  Uiso   1.00
H73    H     0.22286   0.87969   0.99308   0.00000  Uiso   1.00
H74    H     0.70090   0.78662   0.09320   0.00000  Uiso   1.00
H75    H     0.03113   0.26037   0.02042   0.00000  Uiso   1.00
H76    H     0.43208   0.80511   0.98622   0.00000  Uiso   1.00
H77    H     0.15563   0.96884   0.20038   0.00000  Uiso   1.00
H78    H     0.99084   0.89157   0.23373   0.00000  Uiso   1.00
H79    H     0.14744   0.11626   0.19922   0.00000  Uiso   1.00
H80    H     0.33758   0.90035   0.18299   0.00000  Uiso   1.00
H81    H     0.79401   0.80340   0.24735   0.00000  Uiso   1.00
H82    H     0.12424   0.27715   0.17457   0.00000  Uiso   1.00
H83    H     0.52519   0.82188   0.14036   0.00000  Uiso   1.00
O84    O     0.63707   0.74385   0.18897   0.00000  Uiso   1.00
O85    O     0.07033   0.36539   0.09348   0.00000  Uiso   1.00
O86    O     0.59637   0.76809   0.04860   0.00000  Uiso   1.00
N87    N     0.74544   0.80116   0.12490   0.00000  Uiso   1.00
N88    N     0.05416   0.24409   0.05686   0.00000  Uiso   1.00
N89    N     0.42904   0.81847   0.02488   0.00000  Uiso   1.00
N90    N     0.79554   0.81019   0.20785   0.00000  Uiso   1.00
N91    N     0.10427   0.25311   0.13981   0.00000  Uiso   1.00
N92    N     0.47914   0.82750   0.10782   0.00000  Uiso   1.00
C93    C     0.89910   0.54611   0.43538   0.00000  Uiso   1.00
C94    C     0.82069   0.58601   0.39804   0.00000  Uiso   1.00
C95    C     0.72714   0.62383   0.41293   0.00000  Uiso   1.00
C96    C     0.66630   0.65661   0.37282   0.00000  Uiso   1.00
C97    C     0.53971   0.71929   0.32291   0.00000  Uiso   1.00
C98    C     0.90725   0.46418   0.41589   0.00000  Uiso   1.00
C99    C     0.88649   0.39956   0.44578   0.00000  Uiso   1.00
C100   C     0.89853   0.32978   0.42070   0.00000  Uiso   1.00
C101   C     0.90640   0.20330   0.39851   0.00000  Uiso   1.00
C102   C     0.00931   0.58194   0.42525   0.00000  Uiso   1.00
C103   C     0.07438   0.61632   0.46302   0.00000  Uiso   1.00
C104   C     0.17236   0.64567   0.44581   0.00000  Uiso   1.00
C105   C     0.33870   0.70204   0.43816   0.00000  Uiso   1.00
C106   C     0.95742   0.53707   0.33767   0.00000  Uiso   1.00
C107   C     0.85237   0.58110   0.34497   0.00000  Uiso   1.00
C108   C     0.79166   0.61383   0.30483   0.00000  Uiso   1.00
C109   C     0.69803   0.65170   0.31965   0.00000  Uiso   1.00
C110   C     0.93893   0.45926   0.36282   0.00000  Uiso   1.00
C111   C     0.95101   0.38956   0.33768   0.00000  Uiso   1.00
C112   C     0.93026   0.32486   0.36753   0.00000  Uiso   1.00
C113   C     0.04099   0.57703   0.37218   0.00000  Uiso   1.00
C114   C     0.13890   0.60632   0.35492   0.00000  Uiso   1.00
C115   C     0.20410   0.64075   0.39265   0.00000  Uiso   1.00
H116   H     0.87443   0.54993   0.47669   0.00000  Uiso   1.00
H117   H     0.70264   0.62762   0.45400   0.00000  Uiso   1.00
H118   H     0.86198   0.40338   0.48685   0.00000  Uiso   1.00
H119   H     0.04984   0.62011   0.50408   0.00000  Uiso   1.00
H120   H     0.52613   0.71156   0.40543   0.00000  Uiso   1.00
H121   H     0.86214   0.23874   0.47471   0.00000  Uiso   1.00
H122   H     0.25827   0.69576   0.51104   0.00000  Uiso   1.00
H123   H     0.98208   0.53324   0.29635   0.00000  Uiso   1.00
H124   H     0.81620   0.61002   0.26376   0.00000  Uiso   1.00
H125   H     0.97553   0.38578   0.29662   0.00000  Uiso   1.00
H126   H     0.16339   0.60251   0.31384   0.00000  Uiso   1.00
H127   H     0.61829   0.69727   0.25103   0.00000  Uiso   1.00
H128   H     0.95430   0.22446   0.32031   0.00000  Uiso   1.00
H129   H     0.35043   0.68148   0.35664   0.00000  Uiso   1.00
O130   O     0.46112   0.75520   0.31005   0.00000  Uiso   1.00
O131   O     0.90197   0.13489   0.40093   0.00000  Uiso   1.00
O132   O     0.42169   0.73449   0.44860   0.00000  Uiso   1.00
N133   N     0.57060   0.69767   0.37357   0.00000  Uiso   1.00
N134   N     0.88473   0.25562   0.43833   0.00000  Uiso   1.00
N135   N     0.25509   0.68288   0.47230   0.00000  Uiso   1.00
N136   N     0.62019   0.68999   0.29049   0.00000  Uiso   1.00
N137   N     0.93432   0.24793   0.35525   0.00000  Uiso   1.00
N138   N     0.30468   0.67519   0.38922   0.00000  Uiso   1.00
C139   C     0.92821   0.04626   0.56158   0.00000  Uiso   1.00
C140   C     0.00589   0.08612   0.59930   0.00000  Uiso   1.00
C141   C     0.09913   0.12464   0.58482   0.00000  Uiso   1.00
C142   C     0.15931   0.15724   0.62523   0.00000  Uiso   1.00
C143   C     0.28484   0.21997   0.67575   0.00000  Uiso   1.00
C144   C     0.92083   0.96404   0.58055   0.00000  Uiso   1.00
C145   C     0.94252   0.89993   0.55030   0.00000  Uiso   1.00
C146   C     0.93108   0.82976   0.57493   0.00000  Uiso   1.00
C147   C     0.92446   0.70296   0.59632   0.00000  Uiso   1.00
C148   C     0.81752   0.08135   0.57174   0.00000  Uiso   1.00
C149   C     0.75234   0.11586   0.53407   0.00000  Uiso   1.00
C150   C     0.65391   0.14444   0.55128   0.00000  Uiso   1.00
C151   C     0.48690   0.19979   0.55899   0.00000  Uiso   1.00
C152   C     0.86928   0.03565   0.65913   0.00000  Uiso   1.00
C153   C     0.97389   0.08035   0.65229   0.00000  Uiso   1.00
C154   C     0.03394   0.11290   0.69274   0.00000  Uiso   1.00
C155   C     0.12725   0.15147   0.67831   0.00000  Uiso   1.00
C156   C     0.88882   0.95827   0.63353   0.00000  Uiso   1.00
C157   C     0.87734   0.88818   0.65822   0.00000  Uiso   1.00
C158   C     0.89902   0.82398   0.62801   0.00000  Uiso   1.00
C159   C     0.78552   0.07559   0.62472   0.00000  Uiso   1.00
C160   C     0.68716   0.10412   0.64199   0.00000  Uiso   1.00
C161   C     0.62185   0.13867   0.60436   0.00000  Uiso   1.00
H162   H     0.95312   0.05075   0.52034   0.00000  Uiso   1.00
H163   H     0.12388   0.12909   0.54381   0.00000  Uiso   1.00
H164   H     0.96728   0.90441   0.50930   0.00000  Uiso   1.00
H165   H     0.77714   0.12031   0.49308   0.00000  Uiso   1.00
H166   H     0.29910   0.21338   0.59320   0.00000  Uiso   1.00
H167   H     0.96887   0.73963   0.52042   0.00000  Uiso   1.00
H168   H     0.56792   0.19489   0.48622   0.00000  Uiso   1.00
H169   H     0.84437   0.03116   0.70038   0.00000  Uiso   1.00
H170   H     0.00916   0.10843   0.73373   0.00000  Uiso   1.00
H171   H     0.85256   0.88374   0.69922   0.00000  Uiso   1.00
H172   H     0.66242   0.09965   0.68299   0.00000  Uiso   1.00
H173   H     0.20599   0.19660   0.74735   0.00000  Uiso   1.00
H174   H     0.87576   0.72285   0.67457   0.00000  Uiso   1.00
H175   H     0.47481   0.17812   0.64036   0.00000  Uiso   1.00
O176   O     0.36293   0.25615   0.68897   0.00000  Uiso   1.00
O177   O     0.92967   0.63461   0.59348   0.00000  Uiso   1.00
O178   O     0.40363   0.23191   0.54860   0.00000  Uiso   1.00
N179   N     0.25456   0.19884   0.62490   0.00000  Uiso   1.00
N180   N     0.94584   0.75591   0.55686   0.00000  Uiso   1.00
N181   N     0.57096   0.18153   0.52488   0.00000  Uiso   1.00
N182   N     0.20446   0.18981   0.70785   0.00000  Uiso   1.00
N183   N     0.89573   0.74689   0.63981   0.00000  Uiso   1.00
N184   N     0.52086   0.17250   0.60782   0.00000  Uiso   1.00
C185   C     0.60090   0.04611   0.93538   0.00000  Uiso   1.00
C186   C     0.67931   0.08601   0.89804   0.00000  Uiso   1.00
C187   C     0.77286   0.12383   0.91293   0.00000  Uiso   1.00
C188   C     0.83370   0.15661   0.87282   0.00000  Uiso   1.00
C189   C     0.96029   0.21929   0.82291   0.00000  Uiso   1.00
C190   C     0.59275   0.96418   0.91589   0.00000  Uiso   1.00
C191   C     0.61351   0.89956   0.94578   0.00000  Uiso   1.00
C192   C     0.60147   0.82978   0.92070   0.00000  Uiso   1.00
C193   C     0.59360   0.70330   0.89851   0.00000  Uiso   1.00
C194   C     0.49069   0.08194   0.92525   0.00000  Uiso   1.00
C195   C     0.42562   0.11632   0.96302   0.00000  Uiso   1.00
C196   C     0.32764   0.14567   0.94581   0.00000  Uiso   1.00
C197   C     0.16130   0.20204   0.93816   0.00000  Uiso   1.00
C198   C     0.54258   0.03707   0.83767   0.00000  Uiso   1.00
C199   C     0.64763   0.08110   0.84497   0.00000  Uiso   1.00
C200   C     0.70834   0.11383   0.80483   0.00000  Uiso   1.00
C201   C     0.80197   0.15170   0.81965   0.00000  Uiso   1.00
C202   C     0.56107   0.95926   0.86282   0.00000  Uiso   1.00
C203   C     0.54899   0.88956   0.83768   0.00000  Uiso   1.00
C204   C     0.56974   0.82486   0.86753   0.00000  Uiso   1.00
C205   C     0.45901   0.07703   0.87218   0.00000  Uiso   1.00
C206   C     0.36110   0.10632   0.85492   0.00000  Uiso   1.00
C207   C     0.29590   0.14075   0.89265   0.00000  Uiso   1.00
H208   H     0.62557   0.04993   0.97669   0.00000  Uiso   1.00
H209   H     0.79736   0.12762   0.95400   0.00000  Uiso   1.00
H210   H     0.63802   0.90338   0.98685   0.00000  Uiso   1.00
H211   H     0.45016   0.12011   0.00408   0.00000  Uiso   1.00
H212   H     0.97387   0.21156   0.90543   0.00000  Uiso   1.00
H213   H     0.63786   0.73874   0.97471   0.00000  Uiso   1.00
H214   H     0.24173   0.19576   0.01104   0.00000  Uiso   1.00
H215   H     0.51792   0.03324   0.79635   0.00000  Uiso   1.00
H216   H     0.68380   0.11002   0.76376   0.00000  Uiso   1.00
H217   H     0.52447   0.88578   0.79662   0.00000  Uiso   1.00
H218   H     0.33661   0.10251   0.81384   0.00000  Uiso   1.00
H219   H     0.88171   0.19727   0.75103   0.00000  Uiso   1.00
H220   H     0.54570   0.72446   0.82031   0.00000  Uiso   1.00
H221   H     0.14957   0.18148   0.85664   0.00000  Uiso   1.00
O222   O     0.03888   0.25520   0.81005   0.00000  Uiso   1.00
O223   O     0.59803   0.63489   0.90093   0.00000  Uiso   1.00
O224   O     0.07831   0.23449   0.94860   0.00000  Uiso   1.00
N225   N     0.92940   0.19767   0.87357   0.00000  Uiso   1.00
N226   N     0.61527   0.75562   0.93833   0.00000  Uiso   1.00
N227   N     0.24491   0.18288   0.97230   0.00000  Uiso   1.00
N228   N     0.87981   0.18999   0.79049   0.00000  Uiso   1.00
N229   N     0.56568   0.74793   0.85525   0.00000  Uiso   1.00
N230   N     0.19532   0.17519   0.88922   0.00000  Uiso   1.00
C231   C     0.57179   0.54626   0.06158   0.00000  Uiso   1.00
C232   C     0.49411   0.58612   0.09930   0.00000  Uiso   1.00
C233   C     0.40087   0.62464   0.08482   0.00000  Uiso   1.00
C234   C     0.34069   0.65724   0.12523   0.00000  Uiso   1.00
C235   C     0.21516   0.71997   0.17575   0.00000  Uiso   1.00
C236   C     0.57917   0.46404   0.08055   0.00000  Uiso   1.00
C237   C     0.55748   0.39993   0.05030   0.00000  Uiso   1.00
C238   C     0.56892   0.32976   0.07493   0.00000  Uiso   1.00
C239   C     0.57554   0.20296   0.09632   0.00000  Uiso   1.00
C240   C     0.68248   0.58135   0.07174   0.00000  Uiso   1.00
C241   C     0.74766   0.61586   0.03407   0.00000  Uiso   1.00
C242   C     0.84609   0.64444   0.05128   0.00000  Uiso   1.00
C243   C     0.01310   0.69979   0.05899   0.00000  Uiso   1.00
C244   C     0.63072   0.53565   0.15913   0.00000  Uiso   1.00
C245   C     0.52611   0.58035   0.15229   0.00000  Uiso   1.00
C246   C     0.46606   0.61290   0.19274   0.00000  Uiso   1.00
C247   C     0.37275   0.65147   0.17831   0.00000  Uiso   1.00
C248   C     0.61118   0.45827   0.13353   0.00000  Uiso   1.00
C249   C     0.62266   0.38818   0.15822   0.00000  Uiso   1.00
C250   C     0.60098   0.32398   0.12801   0.00000  Uiso   1.00
C251   C     0.71448   0.57559   0.12472   0.00000  Uiso   1.00
C252   C     0.81284   0.60412   0.14199   0.00000  Uiso   1.00
C253   C     0.87815   0.63867   0.10436   0.00000  Uiso   1.00
H254   H     0.54688   0.55075   0.02034   0.00000  Uiso   1.00
H255   H     0.37612   0.62909   0.04381   0.00000  Uiso   1.00
H256   H     0.53272   0.40441   0.00930   0.00000  Uiso   1.00
H257   H     0.72286   0.62031   0.99308   0.00000  Uiso   1.00
H258   H     0.20090   0.71338   0.09320   0.00000  Uiso   1.00
H259   H     0.53113   0.23963   0.02042   0.00000  Uiso   1.00
H260   H     0.93208   0.69489   0.98622   0.00000  Uiso   1.00
H261   H     0.65563   0.53116   0.20038   0.00000  Uiso   1.00
H262   H     0.49084   0.60843   0.23373   0.00000  Uiso   1.00
H263   H     0.64744   0.38374   0.19922   0.00000  Uiso   1.00
H264   H     0.83758   0.59965   0.18299   0.00000  Uiso   1.00
H265   H     0.29401   0.69660   0.24735   0.00000  Uiso   1.00
H266   H     0.62424   0.22285   0.17457   0.00000  Uiso   1.00
H267   H     0.02519   0.67812   0.14036   0.00000  Uiso   1.00
O268   O     0.13707   0.75615   0.18897   0.00000  Uiso   1.00
O269   O     0.57033   0.13461   0.09348   0.00000  Uiso   1.00
O270   O     0.09637   0.73191   0.04860   0.00000  Uiso   1.00
N271   N     0.24544   0.69884   0.12490   0.00000  Uiso   1.00
N272   N     0.55416   0.25591   0.05686   0.00000  Uiso   1.00
N273   N     0.92904   0.68153   0.02488   0.00000  Uiso   1.00
N274   N     0.29554   0.68981   0.20785   0.00000  Uiso   1.00
N275   N     0.60427   0.24689   0.13981   0.00000  Uiso   1.00
N276   N     0.97914   0.67250   0.10782   0.00000  Uiso   1.00
C277   C     0.39910   0.95389   0.43538   0.00000  Uiso   1.00
C278   C     0.32069   0.91399   0.39804   0.00000  Uiso   1.00
C279   C     0.22714   0.87617   0.41293   0.00000  Uiso   1.00
C280   C     0.16630   0.84339   0.37282   0.00000  Uiso   1.00
C281   C     0.03971   0.78071   0.32291   0.00000  Uiso   1.00
C282   C     0.40725   0.03582   0.41589   0.00000  Uiso   1.00
C283   C     0.38649   0.10044   0.44578   0.00000  Uiso   1.00
C284   C     0.39853   0.17022   0.42070   0.00000  Uiso   1.00
C285   C     0.40640   0.29670   0.39851   0.00000  Uiso   1.00
C286   C     0.50931   0.91806   0.42525   0.00000  Uiso   1.00
C287   C     0.57438   0.88368   0.46302   0.00000  Uiso   1.00
C288   C     0.67236   0.85433   0.44581   0.00000  Uiso   1.00
C289   C     0.83870   0.79796   0.43816   0.00000  Uiso   1.00
C290   C     0.45742   0.96293   0.33767   0.00000  Uiso   1.00
C291   C     0.35237   0.91890   0.34497   0.00000  Uiso   1.00
C292   C     0.29166   0.88617   0.30483   0.00000  Uiso   1.00
C293   C     0.19803   0.84830   0.31965   0.00000  Uiso   1.00
C294   C     0.43893   0.04074   0.36282   0.00000  Uiso   1.00
C295   C     0.45101   0.11044   0.33768   0.00000  Uiso   1.00
C296   C     0.43026   0.17514   0.36753   0.00000  Uiso   1.00
C297   C     0.54099   0.92297   0.37218   0.00000  Uiso   1.00
C298   C     0.63890   0.89368   0.35492   0.00000  Uiso   1.00
C299   C     0.70410   0.85925   0.39265   0.00000  Uiso   1.00
H300   H     0.37443   0.95007   0.47669   0.00000  Uiso   1.00
H301   H     0.20264   0.87238   0.45400   0.00000  Uiso   1.00
H302   H     0.36198   0.09662   0.48685   0.00000  Uiso   1.00
H303   H     0.54984   0.87989   0.50408   0.00000  Uiso   1.00
H304   H     0.02613   0.78844   0.40543   0.00000  Uiso   1.00
H305   H     0.36214   0.26126   0.47471   0.00000  Uiso   1.00
H306   H     0.75827   0.80424   0.51104   0.00000  Uiso   1.00
H307   H     0.48208   0.96676   0.29635   0.00000  Uiso   1.00
H308   H     0.31620   0.88998   0.26376   0.00000  Uiso   1.00
H309   H     0.47553   0.11422   0.29662   0.00000  Uiso   1.00
H310   H     0.66339   0.89749   0.31384   0.00000  Uiso   1.00
H311   H     0.11829   0.80273   0.25103   0.00000  Uiso   1.00
H312   H     0.45430   0.27554   0.32031   0.00000  Uiso   1.00
H313   H     0.85043   0.81852   0.35664   0.00000  Uiso   1.00
O314   O     0.96112   0.74480   0.31005   0.00000  Uiso   1.00
O315   O     0.40197   0.36511   0.40093   0.00000  Uiso   1.00
O316   O     0.92169   0.76551   0.44860   0.00000  Uiso   1.00
N317   N     0.07060   0.80233   0.37357   0.00000  Uiso   1.00
N318   N     0.38473   0.24438   0.43833   0.00000  Uiso   1.00
N319   N     0.75509   0.81712   0.47230   0.00000  Uiso   1.00
N320   N     0.12019   0.81001   0.29049   0.00000  Uiso   1.00
N321   N     0.43432   0.25207   0.35525   0.00000  Uiso   1.00
N322   N     0.80468   0.82481   0.38922   0.00000  Uiso   1.00
C323   C     0.42821   0.45374   0.56158   0.00000  Uiso   1.00
C324   C     0.50589   0.41388   0.59930   0.00000  Uiso   1.00
C325   C     0.59913   0.37536   0.58482   0.00000  Uiso   1.00
C326   C     0.65931   0.34276   0.62523   0.00000  Uiso   1.00
C327   C     0.78484   0.28003   0.67575   0.00000  Uiso   1.00
C328   C     0.42083   0.53596   0.58055   0.00000  Uiso   1.00
C329   C     0.44252   0.60007   0.55030   0.00000  Uiso   1.00
C330   C     0.43108   0.67024   0.57493   0.00000  Uiso   1.00
C331   C     0.42446   0.79704   0.59632   0.00000  Uiso   1.00
C332   C     0.31752   0.41865   0.57174   0.00000  Uiso   1.00
C333   C     0.25234   0.38414   0.53407   0.00000  Uiso   1.00
C334   C     0.15391   0.35556   0.55128   0.00000  Uiso   1.00
C335   C     0.98690   0.30021   0.55899   0.00000  Uiso   1.00
C336   C     0.36928   0.46435   0.65913   0.00000  Uiso   1.00
C337   C     0.47389   0.41965   0.65229   0.00000  Uiso   1.00
C338   C     0.53394   0.38710   0.69274   0.00000  Uiso   1.00
C339   C     0.62725   0.34853   0.67831   0.00000  Uiso   1.00
C340   C     0.38882   0.54173   0.63353   0.00000  Uiso   1.00
C341   C     0.37734   0.61182   0.65822   0.00000  Uiso   1.00
C342   C     0.39902   0.67602   0.62801   0.00000  Uiso   1.00
C343   C     0.28552   0.42441   0.62472   0.00000  Uiso   1.00
C344   C     0.18716   0.39588   0.64199   0.00000  Uiso   1.00
C345   C     0.12185   0.36133   0.60436   0.00000  Uiso   1.00
H346   H     0.45312   0.44925   0.52034   0.00000  Uiso   1.00
H347   H     0.62388   0.37091   0.54381   0.00000  Uiso   1.00
H348   H     0.46728   0.59559   0.50930   0.00000  Uiso   1.00
H349   H     0.27714   0.37969   0.49308   0.00000  Uiso   1.00
H350   H     0.79910   0.28662   0.59320   0.00000  Uiso   1.00
H351   H     0.46887   0.76037   0.52042   0.00000  Uiso   1.00
H352   H     0.06792   0.30511   0.48622   0.00000  Uiso   1.00
H353   H     0.34437   0.46884   0.70038   0.00000  Uiso   1.00
H354   H     0.50916   0.39157   0.73373   0.00000  Uiso   1.00
H355   H     0.35256   0.61626   0.69922   0.00000  Uiso   1.00
H356   H     0.16242   0.40035   0.68299   0.00000  Uiso   1.00
H357   H     0.70599   0.30340   0.74735   0.00000  Uiso   1.00
H358   H     0.37576   0.77715   0.67457   0.00000  Uiso   1.00
H359   H     0.97481   0.32188   0.64036   0.00000  Uiso   1.00
O360   O     0.86293   0.24385   0.68897   0.00000  Uiso   1.00
O361   O     0.42967   0.86539   0.59348   0.00000  Uiso   1.00
O362   O     0.90363   0.26809   0.54860   0.00000  Uiso   1.00
N363   N     0.75456   0.30116   0.62490   0.00000  Uiso   1.00
N364   N     0.44584   0.74409   0.55686   0.00000  Uiso   1.00
N365   N     0.07096   0.31847   0.52488   0.00000  Uiso   1.00
N366   N     0.70446   0.31019   0.70785   0.00000  Uiso   1.00
N367   N     0.39573   0.75311   0.63981   0.00000  Uiso   1.00
N368   N     0.02086   0.32750   0.60782   0.00000  Uiso   1.00
