data_job_00929
_audit_creation_date              2018-12-19
_audit_creation_method            'Materials Studio'
_symmetry_space_group_name_H-M    'P1'
_symmetry_Int_Tables_number       1
_symmetry_cell_setting            triclinic
loop_
_symmetry_equiv_pos_as_xyz
  x,y,z
_cell_length_a                    9.6013
_cell_length_b                    20.3746
_cell_length_c                    15.8695
_cell_angle_alpha                 90.0000
_cell_angle_beta                  132.4012
_cell_angle_gamma                 90.0000
loop_
_atom_site_label
_atom_site_type_symbol
_atom_site_fract_x
_atom_site_fract_y
_atom_site_fract_z
_atom_site_U_iso_or_equiv
_atom_site_adp_type
_atom_site_occupancy
C1     C     0.14787   0.78573   0.38202   0.00000  Uiso   1.00
C2     C     0.00007   0.83856   0.33824   0.00000  Uiso   1.00
C3     C     0.84964   0.85389   0.22449   0.00000  Uiso   1.00
C4     C     0.73015   0.90383   0.20206   0.00000  Uiso   1.00
C5     C     0.49615   0.98082   0.12065   0.00000  Uiso   1.00
C6     C     0.33836   0.82040   0.46272   0.00000  Uiso   1.00
C7     C     0.47236   0.82045   0.45364   0.00000  Uiso   1.00
C8     C     0.63764   0.85510   0.53600   0.00000  Uiso   1.00
C9     C     0.92889   0.90385   0.64790   0.00000  Uiso   1.00
C10    C     0.14306   0.74033   0.45642   0.00000  Uiso   1.00
C11    C     0.11291   0.67304   0.44207   0.00000  Uiso   1.00
C12    C     0.11381   0.64027   0.51915   0.00000  Uiso   1.00
C13    C     0.10184   0.56469   0.62127   0.00000  Uiso   1.00
C14    C     0.20315   0.84716   0.54445   0.00000  Uiso   1.00
C15    C     0.03011   0.87193   0.42647   0.00000  Uiso   1.00
C16    C     0.91080   0.92186   0.40420   0.00000  Uiso   1.00
C17    C     0.76022   0.93726   0.29044   0.00000  Uiso   1.00
C18    C     0.36839   0.85377   0.55094   0.00000  Uiso   1.00
C19    C     0.53352   0.88843   0.63334   0.00000  Uiso   1.00
C20    C     0.66773   0.88853   0.62438   0.00000  Uiso   1.00
C21    C     0.17308   0.77369   0.54465   0.00000  Uiso   1.00
C22    C     0.17406   0.74102   0.62177   0.00000  Uiso   1.00
C23    C     0.14389   0.67370   0.60753   0.00000  Uiso   1.00
H24    H     0.12450   0.75975   0.31334   0.00000  Uiso   1.00
H25    H     0.82647   0.82806   0.15624   0.00000  Uiso   1.00
H26    H     0.44909   0.79462   0.38536   0.00000  Uiso   1.00
H27    H     0.08968   0.64724   0.37379   0.00000  Uiso   1.00
H28    H     0.50932   0.91852   0.02098   0.00000  Uiso   1.00
H29    H     0.82218   0.84800   0.50410   0.00000  Uiso   1.00
H30    H     0.06430   0.53721   0.47971   0.00000  Uiso   1.00
H31    H     0.22653   0.87315   0.61314   0.00000  Uiso   1.00
H32    H     0.93408   0.94768   0.47249   0.00000  Uiso   1.00
H33    H     0.55671   0.91424   0.70160   0.00000  Uiso   1.00
H34    H     0.19730   0.76686   0.69003   0.00000  Uiso   1.00
H35    H     0.59666   0.01561   0.27765   0.00000  Uiso   1.00
H36    H     0.90954   0.94509   0.76078   0.00000  Uiso   1.00
H37    H     0.15165   0.63430   0.73638   0.00000  Uiso   1.00
O38    O     0.35881   0.01407   0.05138   0.00000  Uiso   1.00
O39    O     0.08124   0.92153   0.68523   0.00000  Uiso   1.00
O40    O     0.08691   0.51379   0.65322   0.00000  Uiso   1.00
N41    N     0.56999   0.93114   0.10069   0.00000  Uiso   1.00
N42    N     0.79742   0.86521   0.55237   0.00000  Uiso   1.00
N43    N     0.08892   0.57464   0.52958   0.00000  Uiso   1.00
N44    N     0.61699   0.98338   0.23880   0.00000  Uiso   1.00
N45    N     0.84442   0.91745   0.69049   0.00000  Uiso   1.00
N46    N     0.13592   0.62689   0.66769   0.00000  Uiso   1.00
C47    C     0.85213   0.28573   0.11798   0.00000  Uiso   1.00
C48    C     0.99993   0.33856   0.16176   0.00000  Uiso   1.00
C49    C     0.15036   0.35389   0.27551   0.00000  Uiso   1.00
C50    C     0.26985   0.40383   0.29794   0.00000  Uiso   1.00
C51    C     0.50385   0.48082   0.37935   0.00000  Uiso   1.00
C52    C     0.66164   0.32040   0.03728   0.00000  Uiso   1.00
C53    C     0.52764   0.32045   0.04636   0.00000  Uiso   1.00
C54    C     0.36236   0.35510   0.96400   0.00000  Uiso   1.00
C55    C     0.07111   0.40385   0.85210   0.00000  Uiso   1.00
C56    C     0.85694   0.24033   0.04358   0.00000  Uiso   1.00
C57    C     0.88709   0.17304   0.05793   0.00000  Uiso   1.00
C58    C     0.88619   0.14027   0.98085   0.00000  Uiso   1.00
C59    C     0.89816   0.06469   0.87873   0.00000  Uiso   1.00
C60    C     0.79685   0.34716   0.95555   0.00000  Uiso   1.00
C61    C     0.96989   0.37193   0.07353   0.00000  Uiso   1.00
C62    C     0.08920   0.42186   0.09580   0.00000  Uiso   1.00
C63    C     0.23978   0.43726   0.20956   0.00000  Uiso   1.00
C64    C     0.63161   0.35377   0.94906   0.00000  Uiso   1.00
C65    C     0.46648   0.38843   0.86666   0.00000  Uiso   1.00
C66    C     0.33227   0.38853   0.87562   0.00000  Uiso   1.00
C67    C     0.82692   0.27369   0.95535   0.00000  Uiso   1.00
C68    C     0.82594   0.24102   0.87823   0.00000  Uiso   1.00
C69    C     0.85611   0.17370   0.89247   0.00000  Uiso   1.00
H70    H     0.87550   0.25975   0.18666   0.00000  Uiso   1.00
H71    H     0.17353   0.32806   0.34376   0.00000  Uiso   1.00
H72    H     0.55091   0.29462   0.11464   0.00000  Uiso   1.00
H73    H     0.91032   0.14724   0.12621   0.00000  Uiso   1.00
H74    H     0.49068   0.41852   0.47902   0.00000  Uiso   1.00
H75    H     0.17782   0.34800   0.99590   0.00000  Uiso   1.00
H76    H     0.93570   0.03721   0.02029   0.00000  Uiso   1.00
H77    H     0.77347   0.37315   0.88686   0.00000  Uiso   1.00
H78    H     0.06592   0.44768   0.02751   0.00000  Uiso   1.00
H79    H     0.44329   0.41424   0.79840   0.00000  Uiso   1.00
H80    H     0.80270   0.26686   0.80997   0.00000  Uiso   1.00
H81    H     0.40334   0.51561   0.22235   0.00000  Uiso   1.00
H82    H     0.09046   0.44509   0.73922   0.00000  Uiso   1.00
H83    H     0.84835   0.13430   0.76362   0.00000  Uiso   1.00
O84    O     0.64119   0.51407   0.44862   0.00000  Uiso   1.00
O85    O     0.91876   0.42153   0.81477   0.00000  Uiso   1.00
O86    O     0.91309   0.01379   0.84678   0.00000  Uiso   1.00
N87    N     0.43001   0.43114   0.39931   0.00000  Uiso   1.00
N88    N     0.20258   0.36521   0.94763   0.00000  Uiso   1.00
N89    N     0.91108   0.07464   0.97042   0.00000  Uiso   1.00
N90    N     0.38301   0.48338   0.26120   0.00000  Uiso   1.00
N91    N     0.15558   0.41745   0.80951   0.00000  Uiso   1.00
N92    N     0.86408   0.12689   0.83231   0.00000  Uiso   1.00
C93    C     0.85213   0.21427   0.61798   0.00000  Uiso   1.00
C94    C     0.99993   0.16144   0.66176   0.00000  Uiso   1.00
C95    C     0.15036   0.14611   0.77551   0.00000  Uiso   1.00
C96    C     0.26985   0.09617   0.79794   0.00000  Uiso   1.00
C97    C     0.50385   0.01918   0.87935   0.00000  Uiso   1.00
C98    C     0.66164   0.17960   0.53728   0.00000  Uiso   1.00
C99    C     0.52764   0.17955   0.54636   0.00000  Uiso   1.00
C100   C     0.36236   0.14490   0.46400   0.00000  Uiso   1.00
C101   C     0.07111   0.09615   0.35210   0.00000  Uiso   1.00
C102   C     0.85694   0.25967   0.54358   0.00000  Uiso   1.00
C103   C     0.88709   0.32696   0.55793   0.00000  Uiso   1.00
C104   C     0.88619   0.35973   0.48085   0.00000  Uiso   1.00
C105   C     0.89816   0.43531   0.37873   0.00000  Uiso   1.00
C106   C     0.79685   0.15284   0.45555   0.00000  Uiso   1.00
C107   C     0.96989   0.12807   0.57353   0.00000  Uiso   1.00
C108   C     0.08920   0.07814   0.59580   0.00000  Uiso   1.00
C109   C     0.23978   0.06274   0.70956   0.00000  Uiso   1.00
C110   C     0.63161   0.14623   0.44906   0.00000  Uiso   1.00
C111   C     0.46648   0.11157   0.36666   0.00000  Uiso   1.00
C112   C     0.33227   0.11147   0.37562   0.00000  Uiso   1.00
C113   C     0.82692   0.22631   0.45535   0.00000  Uiso   1.00
C114   C     0.82594   0.25898   0.37823   0.00000  Uiso   1.00
C115   C     0.85611   0.32630   0.39247   0.00000  Uiso   1.00
H116   H     0.87550   0.24025   0.68666   0.00000  Uiso   1.00
H117   H     0.17353   0.17194   0.84376   0.00000  Uiso   1.00
H118   H     0.55091   0.20538   0.61464   0.00000  Uiso   1.00
H119   H     0.91032   0.35276   0.62621   0.00000  Uiso   1.00
H120   H     0.49068   0.08148   0.97902   0.00000  Uiso   1.00
H121   H     0.17782   0.15200   0.49590   0.00000  Uiso   1.00
H122   H     0.93570   0.46279   0.52029   0.00000  Uiso   1.00
H123   H     0.77347   0.12685   0.38686   0.00000  Uiso   1.00
H124   H     0.06592   0.05232   0.52751   0.00000  Uiso   1.00
H125   H     0.44329   0.08576   0.29840   0.00000  Uiso   1.00
H126   H     0.80270   0.23314   0.30997   0.00000  Uiso   1.00
H127   H     0.40334   0.98439   0.72235   0.00000  Uiso   1.00
H128   H     0.09046   0.05491   0.23922   0.00000  Uiso   1.00
H129   H     0.84835   0.36570   0.26362   0.00000  Uiso   1.00
O130   O     0.64119   0.98593   0.94862   0.00000  Uiso   1.00
O131   O     0.91876   0.07847   0.31477   0.00000  Uiso   1.00
O132   O     0.91309   0.48621   0.34678   0.00000  Uiso   1.00
N133   N     0.43001   0.06886   0.89931   0.00000  Uiso   1.00
N134   N     0.20258   0.13479   0.44763   0.00000  Uiso   1.00
N135   N     0.91108   0.42536   0.47042   0.00000  Uiso   1.00
N136   N     0.38301   0.01662   0.76120   0.00000  Uiso   1.00
N137   N     0.15558   0.08255   0.30951   0.00000  Uiso   1.00
N138   N     0.86408   0.37311   0.33231   0.00000  Uiso   1.00
C139   C     0.14787   0.71427   0.88202   0.00000  Uiso   1.00
C140   C     0.00007   0.66144   0.83824   0.00000  Uiso   1.00
C141   C     0.84964   0.64611   0.72449   0.00000  Uiso   1.00
C142   C     0.73015   0.59617   0.70206   0.00000  Uiso   1.00
C143   C     0.49615   0.51918   0.62065   0.00000  Uiso   1.00
C144   C     0.33836   0.67960   0.96272   0.00000  Uiso   1.00
C145   C     0.47236   0.67955   0.95364   0.00000  Uiso   1.00
C146   C     0.63764   0.64490   0.03600   0.00000  Uiso   1.00
C147   C     0.92889   0.59615   0.14790   0.00000  Uiso   1.00
C148   C     0.14306   0.75967   0.95642   0.00000  Uiso   1.00
C149   C     0.11291   0.82696   0.94207   0.00000  Uiso   1.00
C150   C     0.11381   0.85973   0.01915   0.00000  Uiso   1.00
C151   C     0.10184   0.93531   0.12127   0.00000  Uiso   1.00
C152   C     0.20315   0.65284   0.04445   0.00000  Uiso   1.00
C153   C     0.03011   0.62807   0.92647   0.00000  Uiso   1.00
C154   C     0.91080   0.57814   0.90420   0.00000  Uiso   1.00
C155   C     0.76022   0.56274   0.79044   0.00000  Uiso   1.00
C156   C     0.36839   0.64623   0.05094   0.00000  Uiso   1.00
C157   C     0.53352   0.61157   0.13334   0.00000  Uiso   1.00
C158   C     0.66773   0.61147   0.12438   0.00000  Uiso   1.00
C159   C     0.17308   0.72631   0.04465   0.00000  Uiso   1.00
C160   C     0.17406   0.75898   0.12177   0.00000  Uiso   1.00
C161   C     0.14389   0.82630   0.10753   0.00000  Uiso   1.00
H162   H     0.12450   0.74025   0.81334   0.00000  Uiso   1.00
H163   H     0.82647   0.67194   0.65624   0.00000  Uiso   1.00
H164   H     0.44909   0.70538   0.88536   0.00000  Uiso   1.00
H165   H     0.08968   0.85276   0.87379   0.00000  Uiso   1.00
H166   H     0.50932   0.58148   0.52098   0.00000  Uiso   1.00
H167   H     0.82218   0.65200   0.00410   0.00000  Uiso   1.00
H168   H     0.06430   0.96279   0.97971   0.00000  Uiso   1.00
H169   H     0.22653   0.62685   0.11314   0.00000  Uiso   1.00
H170   H     0.93408   0.55232   0.97249   0.00000  Uiso   1.00
H171   H     0.55671   0.58576   0.20160   0.00000  Uiso   1.00
H172   H     0.19730   0.73314   0.19003   0.00000  Uiso   1.00
H173   H     0.59666   0.48439   0.77765   0.00000  Uiso   1.00
H174   H     0.90954   0.55491   0.26078   0.00000  Uiso   1.00
H175   H     0.15165   0.86570   0.23638   0.00000  Uiso   1.00
O176   O     0.35881   0.48593   0.55138   0.00000  Uiso   1.00
O177   O     0.08124   0.57847   0.18523   0.00000  Uiso   1.00
O178   O     0.08691   0.98621   0.15322   0.00000  Uiso   1.00
N179   N     0.56999   0.56886   0.60069   0.00000  Uiso   1.00
N180   N     0.79742   0.63479   0.05237   0.00000  Uiso   1.00
N181   N     0.08892   0.92536   0.02958   0.00000  Uiso   1.00
N182   N     0.61699   0.51662   0.73880   0.00000  Uiso   1.00
N183   N     0.84442   0.58255   0.19049   0.00000  Uiso   1.00
N184   N     0.13592   0.87311   0.16769   0.00000  Uiso   1.00
