data_job_01277
_audit_creation_date              2018-12-19
_audit_creation_method            'Materials Studio'
_symmetry_space_group_name_H-M    'P1'
_symmetry_Int_Tables_number       1
_symmetry_cell_setting            triclinic
loop_
_symmetry_equiv_pos_as_xyz
  x,y,z
_cell_length_a                    42.8171
_cell_length_b                    12.5346
_cell_length_c                    13.0258
_cell_angle_alpha                 90.0000
_cell_angle_beta                  84.5635
_cell_angle_gamma                 90.0000
loop_
_atom_site_label
_atom_site_type_symbol
_atom_site_fract_x
_atom_site_fract_y
_atom_site_fract_z
_atom_site_U_iso_or_equiv
_atom_site_adp_type
_atom_site_occupancy
C1     C     0.33665   0.38703   0.68030   0.00000  Uiso   1.00
C2     C     0.31957   0.48975   0.65715   0.00000  Uiso   1.00
C3     C     0.30078   0.54969   0.72813   0.00000  Uiso   1.00
C4     C     0.28724   0.64114   0.69169   0.00000  Uiso   1.00
C5     C     0.25995   0.79606   0.67153   0.00000  Uiso   1.00
C6     C     0.37121   0.40655   0.64574   0.00000  Uiso   1.00
C7     C     0.39583   0.39651   0.70713   0.00000  Uiso   1.00
C8     C     0.42575   0.41790   0.66108   0.00000  Uiso   1.00
C9     C     0.47863   0.44357   0.62319   0.00000  Uiso   1.00
C10    C     0.32560   0.30304   0.60716   0.00000  Uiso   1.00
C11    C     0.31188   0.20596   0.63610   0.00000  Uiso   1.00
C12    C     0.30341   0.14020   0.55756   0.00000  Uiso   1.00
C13    C     0.28548   0.00516   0.45977   0.00000  Uiso   1.00
C14    C     0.34602   0.44285   0.48935   0.00000  Uiso   1.00
C15    C     0.32466   0.52007   0.55343   0.00000  Uiso   1.00
C16    C     0.31114   0.61145   0.51687   0.00000  Uiso   1.00
C17    C     0.29233   0.67151   0.58779   0.00000  Uiso   1.00
C18    C     0.37630   0.43686   0.54203   0.00000  Uiso   1.00
C19    C     0.40619   0.45827   0.49587   0.00000  Uiso   1.00
C20    C     0.43085   0.44827   0.55718   0.00000  Uiso   1.00
C21    C     0.33069   0.33336   0.50344   0.00000  Uiso   1.00
C22    C     0.32224   0.26773   0.42484   0.00000  Uiso   1.00
C23    C     0.30851   0.17057   0.45366   0.00000  Uiso   1.00
H24    H     0.33269   0.36342   0.76104   0.00000  Uiso   1.00
H25    H     0.29685   0.52620   0.80839   0.00000  Uiso   1.00
H26    H     0.39188   0.37303   0.78738   0.00000  Uiso   1.00
H27    H     0.30794   0.18253   0.71637   0.00000  Uiso   1.00
H28    H     0.25936   0.72007   0.81515   0.00000  Uiso   1.00
H29    H     0.45974   0.39707   0.77085   0.00000  Uiso   1.00
H30    H     0.28275   0.99534   0.62110   0.00000  Uiso   1.00
H31    H     0.34998   0.46645   0.40860   0.00000  Uiso   1.00
H32    H     0.31509   0.63489   0.43661   0.00000  Uiso   1.00
H33    H     0.41012   0.48172   0.41561   0.00000  Uiso   1.00
H34    H     0.32618   0.29122   0.34459   0.00000  Uiso   1.00
H35    H     0.27417   0.80829   0.51340   0.00000  Uiso   1.00
H36    H     0.47455   0.48528   0.46911   0.00000  Uiso   1.00
H37    H     0.29755   0.08356   0.31935   0.00000  Uiso   1.00
O38    O     0.24350   0.87314   0.68906   0.00000  Uiso   1.00
O39    O     0.50640   0.44936   0.63095   0.00000  Uiso   1.00
O40    O     0.27418   0.92231   0.43447   0.00000  Uiso   1.00
N41    N     0.26763   0.71770   0.74028   0.00000  Uiso   1.00
N42    N     0.45497   0.41574   0.69888   0.00000  Uiso   1.00
N43    N     0.28951   0.04014   0.55887   0.00000  Uiso   1.00
N44    N     0.27560   0.76517   0.57791   0.00000  Uiso   1.00
N45    N     0.46294   0.46321   0.53651   0.00000  Uiso   1.00
N46    N     0.29747   0.08761   0.39650   0.00000  Uiso   1.00
C47    C     0.83665   0.88703   0.68030   0.00000  Uiso   1.00
C48    C     0.81957   0.98975   0.65715   0.00000  Uiso   1.00
C49    C     0.80078   0.04969   0.72813   0.00000  Uiso   1.00
C50    C     0.78724   0.14114   0.69169   0.00000  Uiso   1.00
C51    C     0.75995   0.29606   0.67153   0.00000  Uiso   1.00
C52    C     0.87121   0.90655   0.64574   0.00000  Uiso   1.00
C53    C     0.89583   0.89651   0.70713   0.00000  Uiso   1.00
C54    C     0.92575   0.91790   0.66108   0.00000  Uiso   1.00
C55    C     0.97863   0.94357   0.62319   0.00000  Uiso   1.00
C56    C     0.82560   0.80304   0.60716   0.00000  Uiso   1.00
C57    C     0.81188   0.70596   0.63610   0.00000  Uiso   1.00
C58    C     0.80341   0.64020   0.55756   0.00000  Uiso   1.00
C59    C     0.78548   0.50516   0.45977   0.00000  Uiso   1.00
C60    C     0.84602   0.94285   0.48935   0.00000  Uiso   1.00
C61    C     0.82466   0.02007   0.55343   0.00000  Uiso   1.00
C62    C     0.81114   0.11145   0.51687   0.00000  Uiso   1.00
C63    C     0.79233   0.17151   0.58779   0.00000  Uiso   1.00
C64    C     0.87630   0.93686   0.54203   0.00000  Uiso   1.00
C65    C     0.90619   0.95827   0.49587   0.00000  Uiso   1.00
C66    C     0.93085   0.94827   0.55718   0.00000  Uiso   1.00
C67    C     0.83069   0.83336   0.50344   0.00000  Uiso   1.00
C68    C     0.82224   0.76773   0.42484   0.00000  Uiso   1.00
C69    C     0.80851   0.67057   0.45366   0.00000  Uiso   1.00
H70    H     0.83269   0.86342   0.76104   0.00000  Uiso   1.00
H71    H     0.79685   0.02620   0.80839   0.00000  Uiso   1.00
H72    H     0.89188   0.87303   0.78738   0.00000  Uiso   1.00
H73    H     0.80794   0.68253   0.71637   0.00000  Uiso   1.00
H74    H     0.75936   0.22007   0.81515   0.00000  Uiso   1.00
H75    H     0.95974   0.89707   0.77085   0.00000  Uiso   1.00
H76    H     0.78275   0.49534   0.62110   0.00000  Uiso   1.00
H77    H     0.84998   0.96645   0.40860   0.00000  Uiso   1.00
H78    H     0.81509   0.13489   0.43661   0.00000  Uiso   1.00
H79    H     0.91012   0.98172   0.41561   0.00000  Uiso   1.00
H80    H     0.82618   0.79122   0.34459   0.00000  Uiso   1.00
H81    H     0.77417   0.30829   0.51340   0.00000  Uiso   1.00
H82    H     0.97455   0.98528   0.46911   0.00000  Uiso   1.00
H83    H     0.79755   0.58356   0.31935   0.00000  Uiso   1.00
O84    O     0.74350   0.37314   0.68906   0.00000  Uiso   1.00
O85    O     0.00640   0.94936   0.63095   0.00000  Uiso   1.00
O86    O     0.77418   0.42231   0.43447   0.00000  Uiso   1.00
N87    N     0.76763   0.21770   0.74028   0.00000  Uiso   1.00
N88    N     0.95497   0.91574   0.69888   0.00000  Uiso   1.00
N89    N     0.78951   0.54014   0.55887   0.00000  Uiso   1.00
N90    N     0.77560   0.26517   0.57791   0.00000  Uiso   1.00
N91    N     0.96294   0.96321   0.53651   0.00000  Uiso   1.00
N92    N     0.79747   0.58761   0.39650   0.00000  Uiso   1.00
C93    C     0.66335   0.38703   0.81970   0.00000  Uiso   1.00
C94    C     0.68043   0.48975   0.84285   0.00000  Uiso   1.00
C95    C     0.69922   0.54969   0.77187   0.00000  Uiso   1.00
C96    C     0.71276   0.64114   0.80831   0.00000  Uiso   1.00
C97    C     0.74005   0.79606   0.82847   0.00000  Uiso   1.00
C98    C     0.62879   0.40655   0.85426   0.00000  Uiso   1.00
C99    C     0.60417   0.39651   0.79287   0.00000  Uiso   1.00
C100   C     0.57425   0.41790   0.83892   0.00000  Uiso   1.00
C101   C     0.52137   0.44357   0.87681   0.00000  Uiso   1.00
C102   C     0.67440   0.30304   0.89284   0.00000  Uiso   1.00
C103   C     0.68812   0.20596   0.86390   0.00000  Uiso   1.00
C104   C     0.69659   0.14020   0.94244   0.00000  Uiso   1.00
C105   C     0.71452   0.00516   0.04023   0.00000  Uiso   1.00
C106   C     0.65398   0.44285   0.01065   0.00000  Uiso   1.00
C107   C     0.67534   0.52007   0.94657   0.00000  Uiso   1.00
C108   C     0.68886   0.61145   0.98313   0.00000  Uiso   1.00
C109   C     0.70767   0.67151   0.91221   0.00000  Uiso   1.00
C110   C     0.62370   0.43686   0.95797   0.00000  Uiso   1.00
C111   C     0.59381   0.45827   0.00413   0.00000  Uiso   1.00
C112   C     0.56915   0.44827   0.94282   0.00000  Uiso   1.00
C113   C     0.66931   0.33336   0.99656   0.00000  Uiso   1.00
C114   C     0.67776   0.26773   0.07516   0.00000  Uiso   1.00
C115   C     0.69149   0.17057   0.04634   0.00000  Uiso   1.00
H116   H     0.66731   0.36342   0.73896   0.00000  Uiso   1.00
H117   H     0.70315   0.52620   0.69161   0.00000  Uiso   1.00
H118   H     0.60812   0.37303   0.71262   0.00000  Uiso   1.00
H119   H     0.69206   0.18253   0.78363   0.00000  Uiso   1.00
H120   H     0.74064   0.72007   0.68485   0.00000  Uiso   1.00
H121   H     0.54026   0.39707   0.72915   0.00000  Uiso   1.00
H122   H     0.71725   0.99534   0.87890   0.00000  Uiso   1.00
H123   H     0.65002   0.46645   0.09140   0.00000  Uiso   1.00
H124   H     0.68491   0.63489   0.06339   0.00000  Uiso   1.00
H125   H     0.58988   0.48172   0.08439   0.00000  Uiso   1.00
H126   H     0.67382   0.29122   0.15541   0.00000  Uiso   1.00
H127   H     0.72583   0.80829   0.98660   0.00000  Uiso   1.00
H128   H     0.52545   0.48528   0.03089   0.00000  Uiso   1.00
H129   H     0.70245   0.08356   0.18065   0.00000  Uiso   1.00
O130   O     0.75650   0.87314   0.81094   0.00000  Uiso   1.00
O131   O     0.49360   0.44936   0.86905   0.00000  Uiso   1.00
O132   O     0.72582   0.92231   0.06553   0.00000  Uiso   1.00
N133   N     0.73237   0.71770   0.75972   0.00000  Uiso   1.00
N134   N     0.54503   0.41574   0.80112   0.00000  Uiso   1.00
N135   N     0.71049   0.04014   0.94113   0.00000  Uiso   1.00
N136   N     0.72440   0.76517   0.92209   0.00000  Uiso   1.00
N137   N     0.53706   0.46321   0.96349   0.00000  Uiso   1.00
N138   N     0.70253   0.08761   0.10350   0.00000  Uiso   1.00
C139   C     0.16335   0.88703   0.81970   0.00000  Uiso   1.00
C140   C     0.18043   0.98975   0.84285   0.00000  Uiso   1.00
C141   C     0.19922   0.04969   0.77187   0.00000  Uiso   1.00
C142   C     0.21276   0.14114   0.80831   0.00000  Uiso   1.00
C143   C     0.24005   0.29606   0.82847   0.00000  Uiso   1.00
C144   C     0.12879   0.90655   0.85426   0.00000  Uiso   1.00
C145   C     0.10417   0.89651   0.79287   0.00000  Uiso   1.00
C146   C     0.07425   0.91790   0.83892   0.00000  Uiso   1.00
C147   C     0.02137   0.94357   0.87681   0.00000  Uiso   1.00
C148   C     0.17440   0.80304   0.89284   0.00000  Uiso   1.00
C149   C     0.18812   0.70596   0.86390   0.00000  Uiso   1.00
C150   C     0.19659   0.64020   0.94244   0.00000  Uiso   1.00
C151   C     0.21452   0.50516   0.04023   0.00000  Uiso   1.00
C152   C     0.15398   0.94285   0.01065   0.00000  Uiso   1.00
C153   C     0.17534   0.02007   0.94657   0.00000  Uiso   1.00
C154   C     0.18886   0.11145   0.98313   0.00000  Uiso   1.00
C155   C     0.20767   0.17151   0.91221   0.00000  Uiso   1.00
C156   C     0.12370   0.93686   0.95797   0.00000  Uiso   1.00
C157   C     0.09381   0.95827   0.00413   0.00000  Uiso   1.00
C158   C     0.06915   0.94827   0.94282   0.00000  Uiso   1.00
C159   C     0.16931   0.83336   0.99656   0.00000  Uiso   1.00
C160   C     0.17776   0.76773   0.07516   0.00000  Uiso   1.00
C161   C     0.19149   0.67057   0.04634   0.00000  Uiso   1.00
H162   H     0.16731   0.86342   0.73896   0.00000  Uiso   1.00
H163   H     0.20315   0.02620   0.69161   0.00000  Uiso   1.00
H164   H     0.10812   0.87303   0.71262   0.00000  Uiso   1.00
H165   H     0.19206   0.68253   0.78363   0.00000  Uiso   1.00
H166   H     0.24064   0.22007   0.68485   0.00000  Uiso   1.00
H167   H     0.04026   0.89707   0.72915   0.00000  Uiso   1.00
H168   H     0.21725   0.49534   0.87890   0.00000  Uiso   1.00
H169   H     0.15002   0.96645   0.09140   0.00000  Uiso   1.00
H170   H     0.18491   0.13489   0.06339   0.00000  Uiso   1.00
H171   H     0.08988   0.98172   0.08439   0.00000  Uiso   1.00
H172   H     0.17382   0.79122   0.15541   0.00000  Uiso   1.00
H173   H     0.22583   0.30829   0.98660   0.00000  Uiso   1.00
H174   H     0.02545   0.98528   0.03089   0.00000  Uiso   1.00
H175   H     0.20245   0.58356   0.18065   0.00000  Uiso   1.00
O176   O     0.25650   0.37314   0.81094   0.00000  Uiso   1.00
O177   O     0.99360   0.94936   0.86905   0.00000  Uiso   1.00
O178   O     0.22582   0.42231   0.06553   0.00000  Uiso   1.00
N179   N     0.23237   0.21770   0.75972   0.00000  Uiso   1.00
N180   N     0.04503   0.91574   0.80112   0.00000  Uiso   1.00
N181   N     0.21049   0.54014   0.94113   0.00000  Uiso   1.00
N182   N     0.22440   0.26517   0.92209   0.00000  Uiso   1.00
N183   N     0.03706   0.96321   0.96349   0.00000  Uiso   1.00
N184   N     0.20253   0.58761   0.10350   0.00000  Uiso   1.00
C185   C     0.66335   0.61297   0.31970   0.00000  Uiso   1.00
C186   C     0.68043   0.51025   0.34285   0.00000  Uiso   1.00
C187   C     0.69922   0.45031   0.27187   0.00000  Uiso   1.00
C188   C     0.71276   0.35886   0.30831   0.00000  Uiso   1.00
C189   C     0.74005   0.20394   0.32847   0.00000  Uiso   1.00
C190   C     0.62879   0.59345   0.35426   0.00000  Uiso   1.00
C191   C     0.60417   0.60349   0.29287   0.00000  Uiso   1.00
C192   C     0.57425   0.58210   0.33892   0.00000  Uiso   1.00
C193   C     0.52137   0.55643   0.37681   0.00000  Uiso   1.00
C194   C     0.67440   0.69696   0.39284   0.00000  Uiso   1.00
C195   C     0.68812   0.79404   0.36390   0.00000  Uiso   1.00
C196   C     0.69659   0.85980   0.44244   0.00000  Uiso   1.00
C197   C     0.71452   0.99484   0.54023   0.00000  Uiso   1.00
C198   C     0.65398   0.55715   0.51065   0.00000  Uiso   1.00
C199   C     0.67534   0.47993   0.44657   0.00000  Uiso   1.00
C200   C     0.68886   0.38855   0.48313   0.00000  Uiso   1.00
C201   C     0.70767   0.32849   0.41221   0.00000  Uiso   1.00
C202   C     0.62370   0.56314   0.45797   0.00000  Uiso   1.00
C203   C     0.59381   0.54173   0.50413   0.00000  Uiso   1.00
C204   C     0.56915   0.55173   0.44282   0.00000  Uiso   1.00
C205   C     0.66931   0.66664   0.49656   0.00000  Uiso   1.00
C206   C     0.67776   0.73227   0.57516   0.00000  Uiso   1.00
C207   C     0.69149   0.82943   0.54634   0.00000  Uiso   1.00
H208   H     0.66731   0.63658   0.23896   0.00000  Uiso   1.00
H209   H     0.70315   0.47380   0.19161   0.00000  Uiso   1.00
H210   H     0.60812   0.62697   0.21262   0.00000  Uiso   1.00
H211   H     0.69206   0.81747   0.28363   0.00000  Uiso   1.00
H212   H     0.74064   0.27993   0.18485   0.00000  Uiso   1.00
H213   H     0.54026   0.60293   0.22915   0.00000  Uiso   1.00
H214   H     0.71725   0.00466   0.37890   0.00000  Uiso   1.00
H215   H     0.65002   0.53355   0.59140   0.00000  Uiso   1.00
H216   H     0.68491   0.36511   0.56339   0.00000  Uiso   1.00
H217   H     0.58988   0.51828   0.58439   0.00000  Uiso   1.00
H218   H     0.67382   0.70878   0.65541   0.00000  Uiso   1.00
H219   H     0.72583   0.19171   0.48660   0.00000  Uiso   1.00
H220   H     0.52545   0.51472   0.53089   0.00000  Uiso   1.00
H221   H     0.70245   0.91644   0.68065   0.00000  Uiso   1.00
O222   O     0.75650   0.12686   0.31094   0.00000  Uiso   1.00
O223   O     0.49360   0.55064   0.36905   0.00000  Uiso   1.00
O224   O     0.72582   0.07769   0.56553   0.00000  Uiso   1.00
N225   N     0.73237   0.28230   0.25972   0.00000  Uiso   1.00
N226   N     0.54503   0.58426   0.30112   0.00000  Uiso   1.00
N227   N     0.71049   0.95986   0.44113   0.00000  Uiso   1.00
N228   N     0.72440   0.23483   0.42209   0.00000  Uiso   1.00
N229   N     0.53706   0.53679   0.46349   0.00000  Uiso   1.00
N230   N     0.70253   0.91239   0.60350   0.00000  Uiso   1.00
C231   C     0.16335   0.11297   0.31970   0.00000  Uiso   1.00
C232   C     0.18043   0.01025   0.34285   0.00000  Uiso   1.00
C233   C     0.19922   0.95031   0.27187   0.00000  Uiso   1.00
C234   C     0.21276   0.85886   0.30831   0.00000  Uiso   1.00
C235   C     0.24005   0.70394   0.32847   0.00000  Uiso   1.00
C236   C     0.12879   0.09345   0.35426   0.00000  Uiso   1.00
C237   C     0.10417   0.10349   0.29287   0.00000  Uiso   1.00
C238   C     0.07425   0.08210   0.33892   0.00000  Uiso   1.00
C239   C     0.02137   0.05643   0.37681   0.00000  Uiso   1.00
C240   C     0.17440   0.19696   0.39284   0.00000  Uiso   1.00
C241   C     0.18812   0.29404   0.36390   0.00000  Uiso   1.00
C242   C     0.19659   0.35980   0.44244   0.00000  Uiso   1.00
C243   C     0.21452   0.49484   0.54023   0.00000  Uiso   1.00
C244   C     0.15398   0.05715   0.51065   0.00000  Uiso   1.00
C245   C     0.17534   0.97993   0.44657   0.00000  Uiso   1.00
C246   C     0.18886   0.88855   0.48313   0.00000  Uiso   1.00
C247   C     0.20767   0.82849   0.41221   0.00000  Uiso   1.00
C248   C     0.12370   0.06314   0.45797   0.00000  Uiso   1.00
C249   C     0.09381   0.04173   0.50413   0.00000  Uiso   1.00
C250   C     0.06915   0.05173   0.44282   0.00000  Uiso   1.00
C251   C     0.16931   0.16664   0.49656   0.00000  Uiso   1.00
C252   C     0.17776   0.23227   0.57516   0.00000  Uiso   1.00
C253   C     0.19149   0.32943   0.54634   0.00000  Uiso   1.00
H254   H     0.16731   0.13658   0.23896   0.00000  Uiso   1.00
H255   H     0.20315   0.97380   0.19161   0.00000  Uiso   1.00
H256   H     0.10812   0.12697   0.21262   0.00000  Uiso   1.00
H257   H     0.19206   0.31747   0.28363   0.00000  Uiso   1.00
H258   H     0.24064   0.77993   0.18485   0.00000  Uiso   1.00
H259   H     0.04026   0.10293   0.22915   0.00000  Uiso   1.00
H260   H     0.21725   0.50466   0.37890   0.00000  Uiso   1.00
H261   H     0.15002   0.03355   0.59140   0.00000  Uiso   1.00
H262   H     0.18491   0.86511   0.56339   0.00000  Uiso   1.00
H263   H     0.08988   0.01828   0.58439   0.00000  Uiso   1.00
H264   H     0.17382   0.20878   0.65541   0.00000  Uiso   1.00
H265   H     0.22583   0.69171   0.48660   0.00000  Uiso   1.00
H266   H     0.02545   0.01472   0.53089   0.00000  Uiso   1.00
H267   H     0.20245   0.41644   0.68065   0.00000  Uiso   1.00
O268   O     0.25650   0.62686   0.31094   0.00000  Uiso   1.00
O269   O     0.99360   0.05064   0.36905   0.00000  Uiso   1.00
O270   O     0.22582   0.57769   0.56553   0.00000  Uiso   1.00
N271   N     0.23237   0.78230   0.25972   0.00000  Uiso   1.00
N272   N     0.04503   0.08426   0.30112   0.00000  Uiso   1.00
N273   N     0.21049   0.45986   0.44113   0.00000  Uiso   1.00
N274   N     0.22440   0.73483   0.42209   0.00000  Uiso   1.00
N275   N     0.03706   0.03679   0.46349   0.00000  Uiso   1.00
N276   N     0.20253   0.41239   0.60350   0.00000  Uiso   1.00
C277   C     0.33665   0.61297   0.18030   0.00000  Uiso   1.00
C278   C     0.31957   0.51025   0.15715   0.00000  Uiso   1.00
C279   C     0.30078   0.45031   0.22813   0.00000  Uiso   1.00
C280   C     0.28724   0.35886   0.19169   0.00000  Uiso   1.00
C281   C     0.25995   0.20394   0.17153   0.00000  Uiso   1.00
C282   C     0.37121   0.59345   0.14574   0.00000  Uiso   1.00
C283   C     0.39583   0.60349   0.20713   0.00000  Uiso   1.00
C284   C     0.42575   0.58210   0.16108   0.00000  Uiso   1.00
C285   C     0.47863   0.55643   0.12319   0.00000  Uiso   1.00
C286   C     0.32560   0.69696   0.10716   0.00000  Uiso   1.00
C287   C     0.31188   0.79404   0.13610   0.00000  Uiso   1.00
C288   C     0.30341   0.85980   0.05756   0.00000  Uiso   1.00
C289   C     0.28548   0.99484   0.95977   0.00000  Uiso   1.00
C290   C     0.34602   0.55715   0.98935   0.00000  Uiso   1.00
C291   C     0.32466   0.47993   0.05343   0.00000  Uiso   1.00
C292   C     0.31114   0.38855   0.01687   0.00000  Uiso   1.00
C293   C     0.29233   0.32849   0.08779   0.00000  Uiso   1.00
C294   C     0.37630   0.56314   0.04203   0.00000  Uiso   1.00
C295   C     0.40619   0.54173   0.99587   0.00000  Uiso   1.00
C296   C     0.43085   0.55173   0.05718   0.00000  Uiso   1.00
C297   C     0.33069   0.66664   0.00344   0.00000  Uiso   1.00
C298   C     0.32224   0.73227   0.92484   0.00000  Uiso   1.00
C299   C     0.30851   0.82943   0.95366   0.00000  Uiso   1.00
H300   H     0.33269   0.63658   0.26104   0.00000  Uiso   1.00
H301   H     0.29685   0.47380   0.30839   0.00000  Uiso   1.00
H302   H     0.39188   0.62697   0.28738   0.00000  Uiso   1.00
H303   H     0.30794   0.81747   0.21637   0.00000  Uiso   1.00
H304   H     0.25936   0.27993   0.31515   0.00000  Uiso   1.00
H305   H     0.45974   0.60293   0.27085   0.00000  Uiso   1.00
H306   H     0.28275   0.00466   0.12110   0.00000  Uiso   1.00
H307   H     0.34998   0.53355   0.90860   0.00000  Uiso   1.00
H308   H     0.31509   0.36511   0.93661   0.00000  Uiso   1.00
H309   H     0.41012   0.51828   0.91561   0.00000  Uiso   1.00
H310   H     0.32618   0.70878   0.84459   0.00000  Uiso   1.00
H311   H     0.27417   0.19171   0.01340   0.00000  Uiso   1.00
H312   H     0.47455   0.51472   0.96911   0.00000  Uiso   1.00
H313   H     0.29755   0.91644   0.81935   0.00000  Uiso   1.00
O314   O     0.24350   0.12686   0.18906   0.00000  Uiso   1.00
O315   O     0.50640   0.55064   0.13095   0.00000  Uiso   1.00
O316   O     0.27418   0.07769   0.93447   0.00000  Uiso   1.00
N317   N     0.26763   0.28230   0.24028   0.00000  Uiso   1.00
N318   N     0.45497   0.58426   0.19888   0.00000  Uiso   1.00
N319   N     0.28951   0.95986   0.05887   0.00000  Uiso   1.00
N320   N     0.27560   0.23483   0.07791   0.00000  Uiso   1.00
N321   N     0.46294   0.53679   0.03651   0.00000  Uiso   1.00
N322   N     0.29747   0.91239   0.89650   0.00000  Uiso   1.00
C323   C     0.83665   0.11297   0.18030   0.00000  Uiso   1.00
C324   C     0.81957   0.01025   0.15715   0.00000  Uiso   1.00
C325   C     0.80078   0.95031   0.22813   0.00000  Uiso   1.00
C326   C     0.78724   0.85886   0.19169   0.00000  Uiso   1.00
C327   C     0.75995   0.70394   0.17153   0.00000  Uiso   1.00
C328   C     0.87121   0.09345   0.14574   0.00000  Uiso   1.00
C329   C     0.89583   0.10349   0.20713   0.00000  Uiso   1.00
C330   C     0.92575   0.08210   0.16108   0.00000  Uiso   1.00
C331   C     0.97863   0.05643   0.12319   0.00000  Uiso   1.00
C332   C     0.82560   0.19696   0.10716   0.00000  Uiso   1.00
C333   C     0.81188   0.29404   0.13610   0.00000  Uiso   1.00
C334   C     0.80341   0.35980   0.05756   0.00000  Uiso   1.00
C335   C     0.78548   0.49484   0.95977   0.00000  Uiso   1.00
C336   C     0.84602   0.05715   0.98935   0.00000  Uiso   1.00
C337   C     0.82466   0.97993   0.05343   0.00000  Uiso   1.00
C338   C     0.81114   0.88855   0.01687   0.00000  Uiso   1.00
C339   C     0.79233   0.82849   0.08779   0.00000  Uiso   1.00
C340   C     0.87630   0.06314   0.04203   0.00000  Uiso   1.00
C341   C     0.90619   0.04173   0.99587   0.00000  Uiso   1.00
C342   C     0.93085   0.05173   0.05718   0.00000  Uiso   1.00
C343   C     0.83069   0.16664   0.00344   0.00000  Uiso   1.00
C344   C     0.82224   0.23227   0.92484   0.00000  Uiso   1.00
C345   C     0.80851   0.32943   0.95366   0.00000  Uiso   1.00
H346   H     0.83269   0.13658   0.26104   0.00000  Uiso   1.00
H347   H     0.79685   0.97380   0.30839   0.00000  Uiso   1.00
H348   H     0.89188   0.12697   0.28738   0.00000  Uiso   1.00
H349   H     0.80794   0.31747   0.21637   0.00000  Uiso   1.00
H350   H     0.75936   0.77993   0.31515   0.00000  Uiso   1.00
H351   H     0.95974   0.10293   0.27085   0.00000  Uiso   1.00
H352   H     0.78275   0.50466   0.12110   0.00000  Uiso   1.00
H353   H     0.84998   0.03355   0.90860   0.00000  Uiso   1.00
H354   H     0.81509   0.86511   0.93661   0.00000  Uiso   1.00
H355   H     0.91012   0.01828   0.91561   0.00000  Uiso   1.00
H356   H     0.82618   0.20878   0.84459   0.00000  Uiso   1.00
H357   H     0.77417   0.69171   0.01340   0.00000  Uiso   1.00
H358   H     0.97455   0.01472   0.96911   0.00000  Uiso   1.00
H359   H     0.79755   0.41644   0.81935   0.00000  Uiso   1.00
O360   O     0.74350   0.62686   0.18906   0.00000  Uiso   1.00
O361   O     0.00640   0.05064   0.13095   0.00000  Uiso   1.00
O362   O     0.77418   0.57769   0.93447   0.00000  Uiso   1.00
N363   N     0.76763   0.78230   0.24028   0.00000  Uiso   1.00
N364   N     0.95497   0.08426   0.19888   0.00000  Uiso   1.00
N365   N     0.78951   0.45986   0.05887   0.00000  Uiso   1.00
N366   N     0.77560   0.73483   0.07791   0.00000  Uiso   1.00
N367   N     0.96294   0.03679   0.03651   0.00000  Uiso   1.00
N368   N     0.79747   0.41239   0.89650   0.00000  Uiso   1.00
