data_job_02706
_audit_creation_date              2018-12-19
_audit_creation_method            'Materials Studio'
_symmetry_space_group_name_H-M    'P1'
_symmetry_Int_Tables_number       1
_symmetry_cell_setting            triclinic
loop_
_symmetry_equiv_pos_as_xyz
  x,y,z
_cell_length_a                    26.5398
_cell_length_b                    26.5398
_cell_length_c                    6.9632
_cell_angle_alpha                 90.0000
_cell_angle_beta                  90.0000
_cell_angle_gamma                 120.0000
loop_
_atom_site_label
_atom_site_type_symbol
_atom_site_fract_x
_atom_site_fract_y
_atom_site_fract_z
_atom_site_U_iso_or_equiv
_atom_site_adp_type
_atom_site_occupancy
C1     C     0.77313   0.13864   0.66165   0.00000  Uiso   1.00
C2     C     0.78372   0.09104   0.58355   0.00000  Uiso   1.00
C3     C     0.80749   0.06296   0.68538   0.00000  Uiso   1.00
C4     C     0.81363   0.02066   0.58822   0.00000  Uiso   1.00
C5     C     0.83269   0.94886   0.49613   0.00000  Uiso   1.00
C6     C     0.80560   0.19060   0.52775   0.00000  Uiso   1.00
C7     C     0.84776   0.24623   0.58269   0.00000  Uiso   1.00
C8     C     0.87231   0.28774   0.43855   0.00000  Uiso   1.00
C9     C     0.92531   0.37052   0.25986   0.00000  Uiso   1.00
C10    C     0.70859   0.11701   0.63129   0.00000  Uiso   1.00
C11    C     0.66917   0.11078   0.77328   0.00000  Uiso   1.00
C12    C     0.61205   0.09034   0.71630   0.00000  Uiso   1.00
C13    C     0.51442   0.05885   0.69838   0.00000  Uiso   1.00
C14    C     0.74177   0.11344   0.30800   0.00000  Uiso   1.00
C15    C     0.76669   0.07736   0.39145   0.00000  Uiso   1.00
C16    C     0.77279   0.03509   0.29411   0.00000  Uiso   1.00
C17    C     0.79656   0.00695   0.39578   0.00000  Uiso   1.00
C18    C     0.78857   0.17692   0.33566   0.00000  Uiso   1.00
C19    C     0.81306   0.21836   0.19141   0.00000  Uiso   1.00
C20    C     0.85525   0.27403   0.24611   0.00000  Uiso   1.00
C21    C     0.69155   0.10332   0.43920   0.00000  Uiso   1.00
C22    C     0.63448   0.08290   0.38199   0.00000  Uiso   1.00
C23    C     0.59498   0.07663   0.52386   0.00000  Uiso   1.00
H24    H     0.78640   0.14930   0.81120   0.00000  Uiso   1.00
H25    H     0.82067   0.07357   0.83403   0.00000  Uiso   1.00
H26    H     0.86093   0.25681   0.73135   0.00000  Uiso   1.00
H27    H     0.68237   0.12137   0.92191   0.00000  Uiso   1.00
H28    H     0.85117   0.98360   0.77462   0.00000  Uiso   1.00
H29    H     0.93605   0.36998   0.55812   0.00000  Uiso   1.00
H30    H     0.55953   0.08438   0.95995   0.00000  Uiso   1.00
H31    H     0.72851   0.10279   0.15844   0.00000  Uiso   1.00
H32    H     0.75961   0.02450   0.14545   0.00000  Uiso   1.00
H33    H     0.79987   0.20775   0.04278   0.00000  Uiso   1.00
H34    H     0.62131   0.07231   0.23333   0.00000  Uiso   1.00
H35    H     0.80162   0.94377   0.21574   0.00000  Uiso   1.00
H36    H     0.88649   0.33016   0.99924   0.00000  Uiso   1.00
H37    H     0.50997   0.04455   0.40107   0.00000  Uiso   1.00
O38    O     0.84791   0.91304   0.49840   0.00000  Uiso   1.00
O39    O     0.95926   0.41996   0.21437   0.00000  Uiso   1.00
O40    O     0.46527   0.04526   0.74156   0.00000  Uiso   1.00
N41    N     0.83523   0.98496   0.64488   0.00000  Uiso   1.00
N42    N     0.91460   0.34620   0.44246   0.00000  Uiso   1.00
N43    N     0.56258   0.07920   0.81813   0.00000  Uiso   1.00
N44    N     0.80856   0.96353   0.34415   0.00000  Uiso   1.00
N45    N     0.88793   0.32477   0.14174   0.00000  Uiso   1.00
N46    N     0.53591   0.05777   0.51740   0.00000  Uiso   1.00
C47    C     0.86136   0.63449   0.66165   0.00000  Uiso   1.00
C48    C     0.90896   0.69268   0.58355   0.00000  Uiso   1.00
C49    C     0.93704   0.74452   0.68538   0.00000  Uiso   1.00
C50    C     0.97934   0.79296   0.58822   0.00000  Uiso   1.00
C51    C     0.05114   0.88382   0.49613   0.00000  Uiso   1.00
C52    C     0.80940   0.61500   0.52775   0.00000  Uiso   1.00
C53    C     0.75377   0.60153   0.58269   0.00000  Uiso   1.00
C54    C     0.71226   0.58457   0.43855   0.00000  Uiso   1.00
C55    C     0.62948   0.55479   0.25986   0.00000  Uiso   1.00
C56    C     0.88299   0.59158   0.63129   0.00000  Uiso   1.00
C57    C     0.88922   0.55839   0.77328   0.00000  Uiso   1.00
C58    C     0.90966   0.52171   0.71630   0.00000  Uiso   1.00
C59    C     0.94115   0.45556   0.69838   0.00000  Uiso   1.00
C60    C     0.88656   0.62833   0.30800   0.00000  Uiso   1.00
C61    C     0.92264   0.68933   0.39145   0.00000  Uiso   1.00
C62    C     0.96491   0.73770   0.29411   0.00000  Uiso   1.00
C63    C     0.99305   0.78961   0.39578   0.00000  Uiso   1.00
C64    C     0.82308   0.61165   0.33566   0.00000  Uiso   1.00
C65    C     0.78164   0.59471   0.19141   0.00000  Uiso   1.00
C66    C     0.72597   0.58122   0.24611   0.00000  Uiso   1.00
C67    C     0.89668   0.58823   0.43920   0.00000  Uiso   1.00
C68    C     0.91710   0.55158   0.38199   0.00000  Uiso   1.00
C69    C     0.92337   0.51835   0.52386   0.00000  Uiso   1.00
H70    H     0.85070   0.63710   0.81120   0.00000  Uiso   1.00
H71    H     0.92643   0.74709   0.83403   0.00000  Uiso   1.00
H72    H     0.74319   0.60411   0.73135   0.00000  Uiso   1.00
H73    H     0.87863   0.56100   0.92191   0.00000  Uiso   1.00
H74    H     0.01640   0.86758   0.77462   0.00000  Uiso   1.00
H75    H     0.63002   0.56608   0.55812   0.00000  Uiso   1.00
H76    H     0.91562   0.47515   0.95995   0.00000  Uiso   1.00
H77    H     0.89721   0.62572   0.15844   0.00000  Uiso   1.00
H78    H     0.97550   0.73510   0.14545   0.00000  Uiso   1.00
H79    H     0.79225   0.59212   0.04278   0.00000  Uiso   1.00
H80    H     0.92769   0.54900   0.23333   0.00000  Uiso   1.00
H81    H     0.05623   0.85784   0.21574   0.00000  Uiso   1.00
H82    H     0.66984   0.55634   0.99924   0.00000  Uiso   1.00
H83    H     0.95545   0.46541   0.40107   0.00000  Uiso   1.00
O84    O     0.08696   0.93487   0.49840   0.00000  Uiso   1.00
O85    O     0.58004   0.53930   0.21437   0.00000  Uiso   1.00
O86    O     0.95474   0.42001   0.74156   0.00000  Uiso   1.00
N87    N     0.01504   0.85027   0.64488   0.00000  Uiso   1.00
N88    N     0.65380   0.56840   0.44246   0.00000  Uiso   1.00
N89    N     0.92080   0.48338   0.81813   0.00000  Uiso   1.00
N90    N     0.03647   0.84503   0.34415   0.00000  Uiso   1.00
N91    N     0.67523   0.56316   0.14174   0.00000  Uiso   1.00
N92    N     0.94223   0.47814   0.51740   0.00000  Uiso   1.00
C93    C     0.36551   0.22687   0.66165   0.00000  Uiso   1.00
C94    C     0.30732   0.21628   0.58355   0.00000  Uiso   1.00
C95    C     0.25548   0.19251   0.68538   0.00000  Uiso   1.00
C96    C     0.20704   0.18637   0.58822   0.00000  Uiso   1.00
C97    C     0.11618   0.16731   0.49613   0.00000  Uiso   1.00
C98    C     0.38500   0.19440   0.52775   0.00000  Uiso   1.00
C99    C     0.39847   0.15224   0.58269   0.00000  Uiso   1.00
C100   C     0.41543   0.12769   0.43855   0.00000  Uiso   1.00
C101   C     0.44521   0.07469   0.25986   0.00000  Uiso   1.00
C102   C     0.40842   0.29141   0.63129   0.00000  Uiso   1.00
C103   C     0.44161   0.33083   0.77328   0.00000  Uiso   1.00
C104   C     0.47829   0.38795   0.71630   0.00000  Uiso   1.00
C105   C     0.54444   0.48558   0.69838   0.00000  Uiso   1.00
C106   C     0.37167   0.25823   0.30800   0.00000  Uiso   1.00
C107   C     0.31067   0.23331   0.39145   0.00000  Uiso   1.00
C108   C     0.26230   0.22721   0.29411   0.00000  Uiso   1.00
C109   C     0.21039   0.20344   0.39578   0.00000  Uiso   1.00
C110   C     0.38835   0.21143   0.33566   0.00000  Uiso   1.00
C111   C     0.40529   0.18694   0.19141   0.00000  Uiso   1.00
C112   C     0.41878   0.14475   0.24611   0.00000  Uiso   1.00
C113   C     0.41177   0.30845   0.43920   0.00000  Uiso   1.00
C114   C     0.44842   0.36552   0.38199   0.00000  Uiso   1.00
C115   C     0.48165   0.40502   0.52386   0.00000  Uiso   1.00
H116   H     0.36290   0.21360   0.81120   0.00000  Uiso   1.00
H117   H     0.25291   0.17933   0.83403   0.00000  Uiso   1.00
H118   H     0.39589   0.13907   0.73135   0.00000  Uiso   1.00
H119   H     0.43900   0.31763   0.92191   0.00000  Uiso   1.00
H120   H     0.13242   0.14883   0.77462   0.00000  Uiso   1.00
H121   H     0.43392   0.06395   0.55812   0.00000  Uiso   1.00
H122   H     0.52485   0.44047   0.95995   0.00000  Uiso   1.00
H123   H     0.37428   0.27149   0.15844   0.00000  Uiso   1.00
H124   H     0.26490   0.24039   0.14545   0.00000  Uiso   1.00
H125   H     0.40788   0.20013   0.04278   0.00000  Uiso   1.00
H126   H     0.45100   0.37869   0.23333   0.00000  Uiso   1.00
H127   H     0.14216   0.19838   0.21574   0.00000  Uiso   1.00
H128   H     0.44366   0.11351   0.99924   0.00000  Uiso   1.00
H129   H     0.53459   0.49003   0.40107   0.00000  Uiso   1.00
O130   O     0.06513   0.15209   0.49840   0.00000  Uiso   1.00
O131   O     0.46070   0.04074   0.21437   0.00000  Uiso   1.00
O132   O     0.57999   0.53473   0.74156   0.00000  Uiso   1.00
N133   N     0.14973   0.16477   0.64488   0.00000  Uiso   1.00
N134   N     0.43160   0.08540   0.44246   0.00000  Uiso   1.00
N135   N     0.51662   0.43742   0.81813   0.00000  Uiso   1.00
N136   N     0.15497   0.19144   0.34415   0.00000  Uiso   1.00
N137   N     0.43684   0.11207   0.14174   0.00000  Uiso   1.00
N138   N     0.52186   0.46409   0.51740   0.00000  Uiso   1.00
C139   C     0.22687   0.86136   0.16165   0.00000  Uiso   1.00
C140   C     0.21628   0.90896   0.08355   0.00000  Uiso   1.00
C141   C     0.19251   0.93704   0.18538   0.00000  Uiso   1.00
C142   C     0.18637   0.97934   0.08822   0.00000  Uiso   1.00
C143   C     0.16731   0.05114   0.99613   0.00000  Uiso   1.00
C144   C     0.19440   0.80940   0.02775   0.00000  Uiso   1.00
C145   C     0.15224   0.75377   0.08269   0.00000  Uiso   1.00
C146   C     0.12769   0.71226   0.93855   0.00000  Uiso   1.00
C147   C     0.07469   0.62948   0.75986   0.00000  Uiso   1.00
C148   C     0.29141   0.88299   0.13129   0.00000  Uiso   1.00
C149   C     0.33083   0.88922   0.27328   0.00000  Uiso   1.00
C150   C     0.38795   0.90966   0.21630   0.00000  Uiso   1.00
C151   C     0.48558   0.94115   0.19838   0.00000  Uiso   1.00
C152   C     0.25823   0.88656   0.80800   0.00000  Uiso   1.00
C153   C     0.23331   0.92264   0.89145   0.00000  Uiso   1.00
C154   C     0.22721   0.96491   0.79411   0.00000  Uiso   1.00
C155   C     0.20344   0.99305   0.89578   0.00000  Uiso   1.00
C156   C     0.21143   0.82308   0.83566   0.00000  Uiso   1.00
C157   C     0.18694   0.78164   0.69141   0.00000  Uiso   1.00
C158   C     0.14475   0.72597   0.74611   0.00000  Uiso   1.00
C159   C     0.30845   0.89668   0.93920   0.00000  Uiso   1.00
C160   C     0.36552   0.91710   0.88199   0.00000  Uiso   1.00
C161   C     0.40502   0.92337   0.02386   0.00000  Uiso   1.00
H162   H     0.21360   0.85070   0.31120   0.00000  Uiso   1.00
H163   H     0.17933   0.92643   0.33403   0.00000  Uiso   1.00
H164   H     0.13907   0.74319   0.23135   0.00000  Uiso   1.00
H165   H     0.31763   0.87863   0.42191   0.00000  Uiso   1.00
H166   H     0.14883   0.01640   0.27462   0.00000  Uiso   1.00
H167   H     0.06395   0.63002   0.05812   0.00000  Uiso   1.00
H168   H     0.44047   0.91562   0.45995   0.00000  Uiso   1.00
H169   H     0.27149   0.89721   0.65844   0.00000  Uiso   1.00
H170   H     0.24039   0.97550   0.64545   0.00000  Uiso   1.00
H171   H     0.20013   0.79225   0.54278   0.00000  Uiso   1.00
H172   H     0.37869   0.92769   0.73333   0.00000  Uiso   1.00
H173   H     0.19838   0.05623   0.71574   0.00000  Uiso   1.00
H174   H     0.11351   0.66984   0.49924   0.00000  Uiso   1.00
H175   H     0.49003   0.95545   0.90107   0.00000  Uiso   1.00
O176   O     0.15209   0.08696   0.99840   0.00000  Uiso   1.00
O177   O     0.04074   0.58004   0.71437   0.00000  Uiso   1.00
O178   O     0.53473   0.95474   0.24156   0.00000  Uiso   1.00
N179   N     0.16477   0.01504   0.14488   0.00000  Uiso   1.00
N180   N     0.08540   0.65380   0.94246   0.00000  Uiso   1.00
N181   N     0.43742   0.92080   0.31813   0.00000  Uiso   1.00
N182   N     0.19144   0.03647   0.84415   0.00000  Uiso   1.00
N183   N     0.11207   0.67523   0.64174   0.00000  Uiso   1.00
N184   N     0.46409   0.94223   0.01740   0.00000  Uiso   1.00
C185   C     0.13864   0.36551   0.16165   0.00000  Uiso   1.00
C186   C     0.09104   0.30732   0.08355   0.00000  Uiso   1.00
C187   C     0.06296   0.25548   0.18538   0.00000  Uiso   1.00
C188   C     0.02066   0.20704   0.08822   0.00000  Uiso   1.00
C189   C     0.94886   0.11618   0.99613   0.00000  Uiso   1.00
C190   C     0.19060   0.38500   0.02775   0.00000  Uiso   1.00
C191   C     0.24623   0.39847   0.08269   0.00000  Uiso   1.00
C192   C     0.28774   0.41543   0.93855   0.00000  Uiso   1.00
C193   C     0.37052   0.44521   0.75986   0.00000  Uiso   1.00
C194   C     0.11701   0.40842   0.13129   0.00000  Uiso   1.00
C195   C     0.11078   0.44161   0.27328   0.00000  Uiso   1.00
C196   C     0.09034   0.47829   0.21630   0.00000  Uiso   1.00
C197   C     0.05885   0.54444   0.19838   0.00000  Uiso   1.00
C198   C     0.11344   0.37167   0.80800   0.00000  Uiso   1.00
C199   C     0.07736   0.31067   0.89145   0.00000  Uiso   1.00
C200   C     0.03509   0.26230   0.79411   0.00000  Uiso   1.00
C201   C     0.00695   0.21039   0.89578   0.00000  Uiso   1.00
C202   C     0.17692   0.38835   0.83566   0.00000  Uiso   1.00
C203   C     0.21836   0.40529   0.69141   0.00000  Uiso   1.00
C204   C     0.27403   0.41878   0.74611   0.00000  Uiso   1.00
C205   C     0.10332   0.41177   0.93920   0.00000  Uiso   1.00
C206   C     0.08290   0.44842   0.88199   0.00000  Uiso   1.00
C207   C     0.07663   0.48165   0.02386   0.00000  Uiso   1.00
H208   H     0.14930   0.36290   0.31120   0.00000  Uiso   1.00
H209   H     0.07357   0.25291   0.33403   0.00000  Uiso   1.00
H210   H     0.25681   0.39589   0.23135   0.00000  Uiso   1.00
H211   H     0.12137   0.43900   0.42191   0.00000  Uiso   1.00
H212   H     0.98360   0.13242   0.27462   0.00000  Uiso   1.00
H213   H     0.36998   0.43392   0.05812   0.00000  Uiso   1.00
H214   H     0.08438   0.52485   0.45995   0.00000  Uiso   1.00
H215   H     0.10279   0.37428   0.65844   0.00000  Uiso   1.00
H216   H     0.02450   0.26490   0.64545   0.00000  Uiso   1.00
H217   H     0.20775   0.40788   0.54278   0.00000  Uiso   1.00
H218   H     0.07231   0.45100   0.73333   0.00000  Uiso   1.00
H219   H     0.94377   0.14216   0.71574   0.00000  Uiso   1.00
H220   H     0.33016   0.44366   0.49924   0.00000  Uiso   1.00
H221   H     0.04455   0.53459   0.90107   0.00000  Uiso   1.00
O222   O     0.91304   0.06513   0.99840   0.00000  Uiso   1.00
O223   O     0.41996   0.46070   0.71437   0.00000  Uiso   1.00
O224   O     0.04526   0.57999   0.24156   0.00000  Uiso   1.00
N225   N     0.98496   0.14973   0.14488   0.00000  Uiso   1.00
N226   N     0.34620   0.43160   0.94246   0.00000  Uiso   1.00
N227   N     0.07920   0.51662   0.31813   0.00000  Uiso   1.00
N228   N     0.96353   0.15497   0.84415   0.00000  Uiso   1.00
N229   N     0.32477   0.43684   0.64174   0.00000  Uiso   1.00
N230   N     0.05777   0.52186   0.01740   0.00000  Uiso   1.00
C231   C     0.63449   0.77313   0.16165   0.00000  Uiso   1.00
C232   C     0.69268   0.78372   0.08355   0.00000  Uiso   1.00
C233   C     0.74452   0.80749   0.18538   0.00000  Uiso   1.00
C234   C     0.79296   0.81363   0.08822   0.00000  Uiso   1.00
C235   C     0.88382   0.83269   0.99613   0.00000  Uiso   1.00
C236   C     0.61500   0.80560   0.02775   0.00000  Uiso   1.00
C237   C     0.60153   0.84776   0.08269   0.00000  Uiso   1.00
C238   C     0.58457   0.87231   0.93855   0.00000  Uiso   1.00
C239   C     0.55479   0.92531   0.75986   0.00000  Uiso   1.00
C240   C     0.59158   0.70859   0.13129   0.00000  Uiso   1.00
C241   C     0.55839   0.66917   0.27328   0.00000  Uiso   1.00
C242   C     0.52171   0.61205   0.21630   0.00000  Uiso   1.00
C243   C     0.45556   0.51442   0.19838   0.00000  Uiso   1.00
C244   C     0.62833   0.74177   0.80800   0.00000  Uiso   1.00
C245   C     0.68933   0.76669   0.89145   0.00000  Uiso   1.00
C246   C     0.73770   0.77279   0.79411   0.00000  Uiso   1.00
C247   C     0.78961   0.79656   0.89578   0.00000  Uiso   1.00
C248   C     0.61165   0.78857   0.83566   0.00000  Uiso   1.00
C249   C     0.59471   0.81306   0.69141   0.00000  Uiso   1.00
C250   C     0.58122   0.85525   0.74611   0.00000  Uiso   1.00
C251   C     0.58823   0.69155   0.93920   0.00000  Uiso   1.00
C252   C     0.55158   0.63448   0.88199   0.00000  Uiso   1.00
C253   C     0.51835   0.59498   0.02386   0.00000  Uiso   1.00
H254   H     0.63710   0.78640   0.31120   0.00000  Uiso   1.00
H255   H     0.74709   0.82067   0.33403   0.00000  Uiso   1.00
H256   H     0.60411   0.86093   0.23135   0.00000  Uiso   1.00
H257   H     0.56100   0.68237   0.42191   0.00000  Uiso   1.00
H258   H     0.86758   0.85117   0.27462   0.00000  Uiso   1.00
H259   H     0.56608   0.93605   0.05812   0.00000  Uiso   1.00
H260   H     0.47515   0.55953   0.45995   0.00000  Uiso   1.00
H261   H     0.62572   0.72851   0.65844   0.00000  Uiso   1.00
H262   H     0.73510   0.75961   0.64545   0.00000  Uiso   1.00
H263   H     0.59212   0.79987   0.54278   0.00000  Uiso   1.00
H264   H     0.54900   0.62131   0.73333   0.00000  Uiso   1.00
H265   H     0.85784   0.80162   0.71574   0.00000  Uiso   1.00
H266   H     0.55634   0.88649   0.49924   0.00000  Uiso   1.00
H267   H     0.46541   0.50997   0.90107   0.00000  Uiso   1.00
O268   O     0.93487   0.84791   0.99840   0.00000  Uiso   1.00
O269   O     0.53930   0.95926   0.71437   0.00000  Uiso   1.00
O270   O     0.42001   0.46527   0.24156   0.00000  Uiso   1.00
N271   N     0.85027   0.83523   0.14488   0.00000  Uiso   1.00
N272   N     0.56840   0.91460   0.94246   0.00000  Uiso   1.00
N273   N     0.48338   0.56258   0.31813   0.00000  Uiso   1.00
N274   N     0.84503   0.80856   0.84415   0.00000  Uiso   1.00
N275   N     0.56316   0.88793   0.64174   0.00000  Uiso   1.00
N276   N     0.47814   0.53591   0.01740   0.00000  Uiso   1.00
