data_job_02812
_audit_creation_date              2018-12-19
_audit_creation_method            'Materials Studio'
_symmetry_space_group_name_H-M    'P1'
_symmetry_Int_Tables_number       1
_symmetry_cell_setting            triclinic
loop_
_symmetry_equiv_pos_as_xyz
  x,y,z
_cell_length_a                    14.3028
_cell_length_b                    20.4881
_cell_length_c                    23.4445
_cell_angle_alpha                 90.0000
_cell_angle_beta                  150.9613
_cell_angle_gamma                 90.0000
loop_
_atom_site_label
_atom_site_type_symbol
_atom_site_fract_x
_atom_site_fract_y
_atom_site_fract_z
_atom_site_U_iso_or_equiv
_atom_site_adp_type
_atom_site_occupancy
C1     C     0.14123   0.41582   0.69326   0.00000  Uiso   1.00
C2     C     0.05339   0.38148   0.69792   0.00000  Uiso   1.00
C3     C     0.15541   0.35260   0.79655   0.00000  Uiso   1.00
C4     C     0.04849   0.32369   0.78271   0.00000  Uiso   1.00
C5     C     0.94278   0.27034   0.80646   0.00000  Uiso   1.00
C6     C     0.05944   0.38149   0.59725   0.00000  Uiso   1.00
C7     C     0.16655   0.35264   0.61123   0.00000  Uiso   1.00
C8     C     0.06471   0.32374   0.51263   0.00000  Uiso   1.00
C9     C     0.96839   0.27046   0.38006   0.00000  Uiso   1.00
C10    C     0.05640   0.48447   0.64758   0.00000  Uiso   1.00
C11    C     0.16097   0.54220   0.70387   0.00000  Uiso   1.00
C12    C     0.05657   0.60000   0.64764   0.00000  Uiso   1.00
C13    C     0.95554   0.70660   0.59322   0.00000  Uiso   1.00
C14    C     0.76991   0.41581   0.49331   0.00000  Uiso   1.00
C15    C     0.85170   0.38148   0.58931   0.00000  Uiso   1.00
C16    C     0.74459   0.35260   0.57532   0.00000  Uiso   1.00
C17    C     0.84644   0.32369   0.67391   0.00000  Uiso   1.00
C18    C     0.85776   0.38149   0.48864   0.00000  Uiso   1.00
C19    C     0.75573   0.35263   0.39000   0.00000  Uiso   1.00
C20    C     0.86266   0.32374   0.40383   0.00000  Uiso   1.00
C21    C     0.85472   0.48447   0.53898   0.00000  Uiso   1.00
C22    C     0.75014   0.54219   0.48265   0.00000  Uiso   1.00
C23    C     0.85452   0.59999   0.53884   0.00000  Uiso   1.00
H24    H     0.29825   0.41582   0.77781   0.00000  Uiso   1.00
H25    H     0.31150   0.35261   0.88058   0.00000  Uiso   1.00
H26    H     0.32263   0.35265   0.69528   0.00000  Uiso   1.00
H27    H     0.31704   0.54218   0.78791   0.00000  Uiso   1.00
H28    H     0.23724   0.28251   0.94661   0.00000  Uiso   1.00
H29    H     0.26072   0.28262   0.55589   0.00000  Uiso   1.00
H30    H     0.24893   0.68228   0.75122   0.00000  Uiso   1.00
H31    H     0.61288   0.41581   0.40875   0.00000  Uiso   1.00
H32    H     0.58852   0.35260   0.49127   0.00000  Uiso   1.00
H33    H     0.59966   0.35264   0.30597   0.00000  Uiso   1.00
H34    H     0.59407   0.54217   0.39860   0.00000  Uiso   1.00
H35    H     0.65045   0.28250   0.63063   0.00000  Uiso   1.00
H36    H     0.67393   0.28261   0.23991   0.00000  Uiso   1.00
H37    H     0.66214   0.68227   0.43524   0.00000  Uiso   1.00
O38    O     0.94018   0.24091   0.84956   0.00000  Uiso   1.00
O39    O     0.97099   0.24106   0.33694   0.00000  Uiso   1.00
O40    O     0.95553   0.76540   0.59322   0.00000  Uiso   1.00
N41    N     0.10248   0.29120   0.86093   0.00000  Uiso   1.00
N42    N     0.12443   0.29129   0.49563   0.00000  Uiso   1.00
N43    N     0.11342   0.66493   0.67824   0.00000  Uiso   1.00
N44    N     0.78673   0.29119   0.69090   0.00000  Uiso   1.00
N45    N     0.80868   0.29128   0.32560   0.00000  Uiso   1.00
N46    N     0.79767   0.66493   0.50821   0.00000  Uiso   1.00
C47    C     0.64123   0.91582   0.69326   0.00000  Uiso   1.00
C48    C     0.55339   0.88148   0.69792   0.00000  Uiso   1.00
C49    C     0.65541   0.85260   0.79655   0.00000  Uiso   1.00
C50    C     0.54849   0.82369   0.78271   0.00000  Uiso   1.00
C51    C     0.44278   0.77034   0.80646   0.00000  Uiso   1.00
C52    C     0.55944   0.88149   0.59725   0.00000  Uiso   1.00
C53    C     0.66655   0.85264   0.61123   0.00000  Uiso   1.00
C54    C     0.56471   0.82374   0.51263   0.00000  Uiso   1.00
C55    C     0.46839   0.77046   0.38006   0.00000  Uiso   1.00
C56    C     0.55640   0.98447   0.64758   0.00000  Uiso   1.00
C57    C     0.66097   0.04220   0.70387   0.00000  Uiso   1.00
C58    C     0.55657   0.10000   0.64764   0.00000  Uiso   1.00
C59    C     0.45554   0.20660   0.59322   0.00000  Uiso   1.00
C60    C     0.26991   0.91581   0.49331   0.00000  Uiso   1.00
C61    C     0.35170   0.88148   0.58931   0.00000  Uiso   1.00
C62    C     0.24459   0.85260   0.57532   0.00000  Uiso   1.00
C63    C     0.34644   0.82369   0.67391   0.00000  Uiso   1.00
C64    C     0.35776   0.88149   0.48864   0.00000  Uiso   1.00
C65    C     0.25573   0.85263   0.39000   0.00000  Uiso   1.00
C66    C     0.36266   0.82374   0.40383   0.00000  Uiso   1.00
C67    C     0.35472   0.98447   0.53898   0.00000  Uiso   1.00
C68    C     0.25014   0.04219   0.48265   0.00000  Uiso   1.00
C69    C     0.35452   0.09999   0.53884   0.00000  Uiso   1.00
H70    H     0.79825   0.91582   0.77781   0.00000  Uiso   1.00
H71    H     0.81150   0.85261   0.88058   0.00000  Uiso   1.00
H72    H     0.82263   0.85265   0.69528   0.00000  Uiso   1.00
H73    H     0.81704   0.04218   0.78791   0.00000  Uiso   1.00
H74    H     0.73724   0.78251   0.94661   0.00000  Uiso   1.00
H75    H     0.76072   0.78262   0.55589   0.00000  Uiso   1.00
H76    H     0.74893   0.18228   0.75122   0.00000  Uiso   1.00
H77    H     0.11288   0.91581   0.40875   0.00000  Uiso   1.00
H78    H     0.08852   0.85260   0.49127   0.00000  Uiso   1.00
H79    H     0.09966   0.85264   0.30597   0.00000  Uiso   1.00
H80    H     0.09407   0.04217   0.39860   0.00000  Uiso   1.00
H81    H     0.15045   0.78250   0.63063   0.00000  Uiso   1.00
H82    H     0.17393   0.78261   0.23991   0.00000  Uiso   1.00
H83    H     0.16214   0.18227   0.43524   0.00000  Uiso   1.00
O84    O     0.44018   0.74091   0.84956   0.00000  Uiso   1.00
O85    O     0.47099   0.74106   0.33694   0.00000  Uiso   1.00
O86    O     0.45553   0.26540   0.59322   0.00000  Uiso   1.00
N87    N     0.60248   0.79120   0.86093   0.00000  Uiso   1.00
N88    N     0.62443   0.79129   0.49563   0.00000  Uiso   1.00
N89    N     0.61342   0.16493   0.67824   0.00000  Uiso   1.00
N90    N     0.28673   0.79119   0.69090   0.00000  Uiso   1.00
N91    N     0.30868   0.79128   0.32560   0.00000  Uiso   1.00
N92    N     0.29767   0.16493   0.50821   0.00000  Uiso   1.00
C93    C     0.14123   0.58418   0.19326   0.00000  Uiso   1.00
C94    C     0.05339   0.61852   0.19792   0.00000  Uiso   1.00
C95    C     0.15541   0.64740   0.29655   0.00000  Uiso   1.00
C96    C     0.04849   0.67631   0.28271   0.00000  Uiso   1.00
C97    C     0.94278   0.72966   0.30646   0.00000  Uiso   1.00
C98    C     0.05944   0.61851   0.09725   0.00000  Uiso   1.00
C99    C     0.16655   0.64736   0.11123   0.00000  Uiso   1.00
C100   C     0.06471   0.67626   0.01263   0.00000  Uiso   1.00
C101   C     0.96839   0.72954   0.88006   0.00000  Uiso   1.00
C102   C     0.05640   0.51553   0.14758   0.00000  Uiso   1.00
C103   C     0.16097   0.45780   0.20387   0.00000  Uiso   1.00
C104   C     0.05657   0.40000   0.14764   0.00000  Uiso   1.00
C105   C     0.95554   0.29340   0.09322   0.00000  Uiso   1.00
C106   C     0.76991   0.58419   0.99331   0.00000  Uiso   1.00
C107   C     0.85170   0.61852   0.08931   0.00000  Uiso   1.00
C108   C     0.74459   0.64740   0.07532   0.00000  Uiso   1.00
C109   C     0.84644   0.67631   0.17391   0.00000  Uiso   1.00
C110   C     0.85776   0.61851   0.98864   0.00000  Uiso   1.00
C111   C     0.75573   0.64737   0.89000   0.00000  Uiso   1.00
C112   C     0.86266   0.67626   0.90383   0.00000  Uiso   1.00
C113   C     0.85472   0.51553   0.03898   0.00000  Uiso   1.00
C114   C     0.75014   0.45781   0.98265   0.00000  Uiso   1.00
C115   C     0.85452   0.40001   0.03884   0.00000  Uiso   1.00
H116   H     0.29825   0.58418   0.27781   0.00000  Uiso   1.00
H117   H     0.31150   0.64739   0.38058   0.00000  Uiso   1.00
H118   H     0.32263   0.64735   0.19528   0.00000  Uiso   1.00
H119   H     0.31704   0.45782   0.28791   0.00000  Uiso   1.00
H120   H     0.23724   0.71749   0.44661   0.00000  Uiso   1.00
H121   H     0.26072   0.71738   0.05589   0.00000  Uiso   1.00
H122   H     0.24893   0.31772   0.25122   0.00000  Uiso   1.00
H123   H     0.61288   0.58419   0.90875   0.00000  Uiso   1.00
H124   H     0.58852   0.64740   0.99127   0.00000  Uiso   1.00
H125   H     0.59966   0.64736   0.80597   0.00000  Uiso   1.00
H126   H     0.59407   0.45783   0.89860   0.00000  Uiso   1.00
H127   H     0.65045   0.71750   0.13063   0.00000  Uiso   1.00
H128   H     0.67393   0.71739   0.73991   0.00000  Uiso   1.00
H129   H     0.66214   0.31773   0.93524   0.00000  Uiso   1.00
O130   O     0.94018   0.75909   0.34956   0.00000  Uiso   1.00
O131   O     0.97099   0.75894   0.83694   0.00000  Uiso   1.00
O132   O     0.95553   0.23460   0.09322   0.00000  Uiso   1.00
N133   N     0.10248   0.70880   0.36093   0.00000  Uiso   1.00
N134   N     0.12443   0.70871   0.99563   0.00000  Uiso   1.00
N135   N     0.11342   0.33507   0.17824   0.00000  Uiso   1.00
N136   N     0.78673   0.70881   0.19090   0.00000  Uiso   1.00
N137   N     0.80868   0.70872   0.82560   0.00000  Uiso   1.00
N138   N     0.79767   0.33507   0.00821   0.00000  Uiso   1.00
C139   C     0.64123   0.08418   0.19326   0.00000  Uiso   1.00
C140   C     0.55339   0.11852   0.19792   0.00000  Uiso   1.00
C141   C     0.65541   0.14740   0.29655   0.00000  Uiso   1.00
C142   C     0.54849   0.17631   0.28271   0.00000  Uiso   1.00
C143   C     0.44278   0.22966   0.30646   0.00000  Uiso   1.00
C144   C     0.55944   0.11851   0.09725   0.00000  Uiso   1.00
C145   C     0.66655   0.14736   0.11123   0.00000  Uiso   1.00
C146   C     0.56471   0.17626   0.01263   0.00000  Uiso   1.00
C147   C     0.46839   0.22954   0.88006   0.00000  Uiso   1.00
C148   C     0.55640   0.01553   0.14758   0.00000  Uiso   1.00
C149   C     0.66097   0.95780   0.20387   0.00000  Uiso   1.00
C150   C     0.55657   0.90000   0.14764   0.00000  Uiso   1.00
C151   C     0.45554   0.79340   0.09322   0.00000  Uiso   1.00
C152   C     0.26991   0.08419   0.99331   0.00000  Uiso   1.00
C153   C     0.35170   0.11852   0.08931   0.00000  Uiso   1.00
C154   C     0.24459   0.14740   0.07532   0.00000  Uiso   1.00
C155   C     0.34644   0.17631   0.17391   0.00000  Uiso   1.00
C156   C     0.35776   0.11851   0.98864   0.00000  Uiso   1.00
C157   C     0.25573   0.14737   0.89000   0.00000  Uiso   1.00
C158   C     0.36266   0.17626   0.90383   0.00000  Uiso   1.00
C159   C     0.35472   0.01553   0.03898   0.00000  Uiso   1.00
C160   C     0.25014   0.95781   0.98265   0.00000  Uiso   1.00
C161   C     0.35452   0.90001   0.03884   0.00000  Uiso   1.00
H162   H     0.79825   0.08418   0.27781   0.00000  Uiso   1.00
H163   H     0.81150   0.14739   0.38058   0.00000  Uiso   1.00
H164   H     0.82263   0.14735   0.19528   0.00000  Uiso   1.00
H165   H     0.81704   0.95782   0.28791   0.00000  Uiso   1.00
H166   H     0.73724   0.21749   0.44661   0.00000  Uiso   1.00
H167   H     0.76072   0.21738   0.05589   0.00000  Uiso   1.00
H168   H     0.74893   0.81772   0.25122   0.00000  Uiso   1.00
H169   H     0.11288   0.08419   0.90875   0.00000  Uiso   1.00
H170   H     0.08852   0.14740   0.99127   0.00000  Uiso   1.00
H171   H     0.09966   0.14736   0.80597   0.00000  Uiso   1.00
H172   H     0.09407   0.95783   0.89860   0.00000  Uiso   1.00
H173   H     0.15045   0.21750   0.13063   0.00000  Uiso   1.00
H174   H     0.17393   0.21739   0.73991   0.00000  Uiso   1.00
H175   H     0.16214   0.81773   0.93524   0.00000  Uiso   1.00
O176   O     0.44018   0.25909   0.34956   0.00000  Uiso   1.00
O177   O     0.47099   0.25894   0.83694   0.00000  Uiso   1.00
O178   O     0.45553   0.73460   0.09322   0.00000  Uiso   1.00
N179   N     0.60248   0.20880   0.36093   0.00000  Uiso   1.00
N180   N     0.62443   0.20871   0.99563   0.00000  Uiso   1.00
N181   N     0.61342   0.83507   0.17824   0.00000  Uiso   1.00
N182   N     0.28673   0.20881   0.19090   0.00000  Uiso   1.00
N183   N     0.30868   0.20872   0.82560   0.00000  Uiso   1.00
N184   N     0.29767   0.83507   0.00821   0.00000  Uiso   1.00
