data_job_06219
_audit_creation_date              2018-12-19
_audit_creation_method            'Materials Studio'
_symmetry_space_group_name_H-M    'P1'
_symmetry_Int_Tables_number       1
_symmetry_cell_setting            triclinic
loop_
_symmetry_equiv_pos_as_xyz
  x,y,z
_cell_length_a                    7.7895
_cell_length_b                    23.1384
_cell_length_c                    23.4010
_cell_angle_alpha                 118.8080
_cell_angle_beta                  82.3278
_cell_angle_gamma                 86.2764
loop_
_atom_site_label
_atom_site_type_symbol
_atom_site_fract_x
_atom_site_fract_y
_atom_site_fract_z
_atom_site_U_iso_or_equiv
_atom_site_adp_type
_atom_site_occupancy
C1     C     0.52633   0.41703   0.10068   0.00000  Uiso   1.00
C2     C     0.56321   0.36465   0.12102   0.00000  Uiso   1.00
C3     C     0.44386   0.34967   0.15976   0.00000  Uiso   1.00
C4     C     0.50310   0.30013   0.17284   0.00000  Uiso   1.00
C5     C     0.53416   0.22389   0.20823   0.00000  Uiso   1.00
C6     C     0.66160   0.46400   0.12470   0.00000  Uiso   1.00
C7     C     0.62497   0.53256   0.16652   0.00000  Uiso   1.00
C8     C     0.76704   0.56665   0.18268   0.00000  Uiso   1.00
C9     C     0.95086   0.64467   0.22374   0.00000  Uiso   1.00
C10    C     0.57173   0.38040   0.02503   0.00000  Uiso   1.00
C11    C     0.45956   0.37869   0.98305   0.00000  Uiso   1.00
C12    C     0.52598   0.34241   0.91530   0.00000  Uiso   1.00
C13    C     0.57026   0.29062   0.80160   0.00000  Uiso   1.00
C14    C     0.84377   0.35568   0.05501   0.00000  Uiso   1.00
C15    C     0.73563   0.33133   0.09621   0.00000  Uiso   1.00
C16    C     0.79507   0.28180   0.10923   0.00000  Uiso   1.00
C17    C     0.67582   0.26675   0.14799   0.00000  Uiso   1.00
C18    C     0.83401   0.43068   0.09989   0.00000  Uiso   1.00
C19    C     0.97617   0.46468   0.11599   0.00000  Uiso   1.00
C20    C     0.93978   0.53328   0.15783   0.00000  Uiso   1.00
C21    C     0.74415   0.34708   0.00022   0.00000  Uiso   1.00
C22    C     0.81076   0.31081   0.93252   0.00000  Uiso   1.00
C23    C     0.69871   0.30903   0.89045   0.00000  Uiso   1.00
H24    H     0.39210   0.44297   0.11999   0.00000  Uiso   1.00
H25    H     0.31044   0.37547   0.17896   0.00000  Uiso   1.00
H26    H     0.49153   0.55833   0.18570   0.00000  Uiso   1.00
H27    H     0.32614   0.40448   0.00227   0.00000  Uiso   1.00
H28    H     0.29596   0.28596   0.23341   0.00000  Uiso   1.00
H29    H     0.67780   0.67153   0.24762   0.00000  Uiso   1.00
H30    H     0.32904   0.34710   0.86080   0.00000  Uiso   1.00
H31    H     0.97801   0.32974   0.03569   0.00000  Uiso   1.00
H32    H     0.92850   0.25602   0.09003   0.00000  Uiso   1.00
H33    H     0.10958   0.43888   0.09678   0.00000  Uiso   1.00
H34    H     0.94420   0.28503   0.91334   0.00000  Uiso   1.00
H35    H     0.79761   0.18901   0.16124   0.00000  Uiso   1.00
H36    H     0.17944   0.57458   0.17545   0.00000  Uiso   1.00
H37    H     0.83068   0.25015   0.78863   0.00000  Uiso   1.00
O38    O     0.50366   0.19105   0.23461   0.00000  Uiso   1.00
O39    O     0.00460   0.69690   0.25324   0.00000  Uiso   1.00
O40    O     0.54704   0.27126   0.74574   0.00000  Uiso   1.00
N41    N     0.42081   0.27325   0.20896   0.00000  Uiso   1.00
N42    N     0.77780   0.63373   0.22225   0.00000  Uiso   1.00
N43    N     0.45175   0.33043   0.86061   0.00000  Uiso   1.00
N44    N     0.69074   0.22108   0.17012   0.00000  Uiso   1.00
N45    N     0.04773   0.58156   0.18341   0.00000  Uiso   1.00
N46    N     0.72168   0.27826   0.82177   0.00000  Uiso   1.00
C47    C     0.62357   0.89748   0.31753   0.00000  Uiso   1.00
C48    C     0.68517   0.87766   0.24500   0.00000  Uiso   1.00
C49    C     0.60564   0.83789   0.19254   0.00000  Uiso   1.00
C50    C     0.68214   0.82552   0.12987   0.00000  Uiso   1.00
C51    C     0.75493   0.79069   0.01873   0.00000  Uiso   1.00
C52    C     0.77888   0.87468   0.33891   0.00000  Uiso   1.00
C53    C     0.77812   0.83241   0.36543   0.00000  Uiso   1.00
C54    C     0.93351   0.81755   0.38183   0.00000  Uiso   1.00
C55    C     0.15175   0.77813   0.41654   0.00000  Uiso   1.00
C56    C     0.59668   0.97351   0.35634   0.00000  Uiso   1.00
C57    C     0.44275   0.01435   0.39753   0.00000  Uiso   1.00
C58    C     0.44475   0.08269   0.42862   0.00000  Uiso   1.00
C59    C     0.38011   0.19673   0.49039   0.00000  Uiso   1.00
C60    C     0.90086   0.94624   0.29952   0.00000  Uiso   1.00
C61    C     0.83579   0.90414   0.23522   0.00000  Uiso   1.00
C62    C     0.91242   0.89184   0.17261   0.00000  Uiso   1.00
C63    C     0.83302   0.85206   0.12007   0.00000  Uiso   1.00
C64    C     0.92949   0.90117   0.32913   0.00000  Uiso   1.00
C65    C     0.08491   0.88636   0.34550   0.00000  Uiso   1.00
C66    C     0.08439   0.84408   0.37203   0.00000  Uiso   1.00
C67    C     0.74729   0.00000   0.34656   0.00000  Uiso   1.00
C68    C     0.74954   0.06830   0.37760   0.00000  Uiso   1.00
C69    C     0.59564   0.10923   0.41882   0.00000  Uiso   1.00
H70    H     0.50632   0.87686   0.32515   0.00000  Uiso   1.00
H71    H     0.48909   0.81739   0.20013   0.00000  Uiso   1.00
H72    H     0.66155   0.81193   0.37300   0.00000  Uiso   1.00
H73    H     0.32623   0.99383   0.40509   0.00000  Uiso   1.00
H74    H     0.53645   0.76313   0.05720   0.00000  Uiso   1.00
H75    H     0.90007   0.75162   0.42173   0.00000  Uiso   1.00
H76    H     0.19297   0.13520   0.48940   0.00000  Uiso   1.00
H77    H     0.01812   0.96687   0.29191   0.00000  Uiso   1.00
H78    H     0.02898   0.91234   0.16506   0.00000  Uiso   1.00
H79    H     0.20143   0.90687   0.33793   0.00000  Uiso   1.00
H80    H     0.86611   0.08878   0.37002   0.00000  Uiso   1.00
H81    H     0.97465   0.84019   0.02874   0.00000  Uiso   1.00
H82    H     0.33826   0.82868   0.39326   0.00000  Uiso   1.00
H83    H     0.63117   0.21226   0.46093   0.00000  Uiso   1.00
O84    O     0.75349   0.76415   0.96012   0.00000  Uiso   1.00
O85    O     0.23052   0.74906   0.43837   0.00000  Uiso   1.00
O86    O     0.30284   0.25231   0.52715   0.00000  Uiso   1.00
N87    N     0.63807   0.78876   0.06791   0.00000  Uiso   1.00
N88    N     0.97803   0.77799   0.40871   0.00000  Uiso   1.00
N89    N     0.31698   0.13661   0.47199   0.00000  Uiso   1.00
N90    N     0.87386   0.83022   0.05260   0.00000  Uiso   1.00
N91    N     0.21382   0.81945   0.39339   0.00000  Uiso   1.00
N92    N     0.55277   0.17807   0.45667   0.00000  Uiso   1.00
C93    C     0.94210   0.68090   0.58169   0.00000  Uiso   1.00
C94    C     0.93311   0.75393   0.63390   0.00000  Uiso   1.00
C95    C     0.80461   0.80563   0.64755   0.00000  Uiso   1.00
C96    C     0.81974   0.86894   0.69717   0.00000  Uiso   1.00
C97    C     0.78474   0.98066   0.77294   0.00000  Uiso   1.00
C98    C     0.12074   0.66109   0.53638   0.00000  Uiso   1.00
C99    C     0.14999   0.63473   0.46804   0.00000  Uiso   1.00
C100   C     0.32307   0.61988   0.43557   0.00000  Uiso   1.00
C101   C     0.57937   0.58741   0.35994   0.00000  Uiso   1.00
C102   C     0.94745   0.64171   0.61853   0.00000  Uiso   1.00
C103   C     0.83103   0.59904   0.61925   0.00000  Uiso   1.00
C104   C     0.85824   0.56785   0.65593   0.00000  Uiso   1.00
C105   C     0.84548   0.50530   0.70785   0.00000  Uiso   1.00
C106   C     0.19747   0.70140   0.64554   0.00000  Uiso   1.00
C107   C     0.07183   0.76507   0.66858   0.00000  Uiso   1.00
C108   C     0.08715   0.82831   0.71819   0.00000  Uiso   1.00
C109   C     0.95869   0.88010   0.73191   0.00000  Uiso   1.00
C110   C     0.25945   0.67223   0.57106   0.00000  Uiso   1.00
C111   C     0.43253   0.65741   0.53868   0.00000  Uiso   1.00
C112   C     0.46203   0.63103   0.47031   0.00000  Uiso   1.00
C113   C     0.08616   0.65285   0.65322   0.00000  Uiso   1.00
C114   C     0.11357   0.62172   0.68990   0.00000  Uiso   1.00
C115   C     0.99720   0.57901   0.69067   0.00000  Uiso   1.00
H116   H     0.83411   0.67223   0.55469   0.00000  Uiso   1.00
H117   H     0.69729   0.79700   0.62069   0.00000  Uiso   1.00
H118   H     0.04262   0.62611   0.44122   0.00000  Uiso   1.00
H119   H     0.72370   0.59043   0.59241   0.00000  Uiso   1.00
H120   H     0.60681   0.94024   0.70915   0.00000  Uiso   1.00
H121   H     0.33495   0.57990   0.33071   0.00000  Uiso   1.00
H122   H     0.66246   0.50466   0.64952   0.00000  Uiso   1.00
H123   H     0.30547   0.71006   0.67254   0.00000  Uiso   1.00
H124   H     0.19451   0.83691   0.74502   0.00000  Uiso   1.00
H125   H     0.53984   0.66602   0.56554   0.00000  Uiso   1.00
H126   H     0.22092   0.63035   0.71673   0.00000  Uiso   1.00
H127   H     0.01037   0.97264   0.81006   0.00000  Uiso   1.00
H128   H     0.73852   0.61229   0.43161   0.00000  Uiso   1.00
H129   H     0.06602   0.53705   0.75043   0.00000  Uiso   1.00
O130   O     0.72713   0.03921   0.80515   0.00000  Uiso   1.00
O131   O     0.68242   0.56644   0.30864   0.00000  Uiso   1.00
O132   O     0.80011   0.46773   0.72691   0.00000  Uiso   1.00
N133   N     0.71700   0.93046   0.72297   0.00000  Uiso   1.00
N134   N     0.39776   0.59357   0.36915   0.00000  Uiso   1.00
N135   N     0.76906   0.52321   0.66719   0.00000  Uiso   1.00
N136   N     0.93415   0.94789   0.77726   0.00000  Uiso   1.00
N137   N     0.61492   0.61100   0.42344   0.00000  Uiso   1.00
N138   N     0.98622   0.54064   0.72149   0.00000  Uiso   1.00
C139   C     0.47367   0.58297   0.89932   0.00000  Uiso   1.00
C140   C     0.43680   0.63535   0.87898   0.00000  Uiso   1.00
C141   C     0.55614   0.65033   0.84024   0.00000  Uiso   1.00
C142   C     0.49690   0.69987   0.82716   0.00000  Uiso   1.00
C143   C     0.46585   0.77611   0.79177   0.00000  Uiso   1.00
C144   C     0.33840   0.53600   0.87531   0.00000  Uiso   1.00
C145   C     0.37503   0.46744   0.83348   0.00000  Uiso   1.00
C146   C     0.23296   0.43335   0.81732   0.00000  Uiso   1.00
C147   C     0.04915   0.35533   0.77626   0.00000  Uiso   1.00
C148   C     0.42827   0.61960   0.97497   0.00000  Uiso   1.00
C149   C     0.54044   0.62131   0.01695   0.00000  Uiso   1.00
C150   C     0.47402   0.65759   0.08470   0.00000  Uiso   1.00
C151   C     0.42974   0.70938   0.19840   0.00000  Uiso   1.00
C152   C     0.15623   0.64432   0.94499   0.00000  Uiso   1.00
C153   C     0.26437   0.66867   0.90379   0.00000  Uiso   1.00
C154   C     0.20493   0.71820   0.89077   0.00000  Uiso   1.00
C155   C     0.32418   0.73325   0.85201   0.00000  Uiso   1.00
C156   C     0.16599   0.56932   0.90011   0.00000  Uiso   1.00
C157   C     0.02383   0.53532   0.88401   0.00000  Uiso   1.00
C158   C     0.06023   0.46673   0.84217   0.00000  Uiso   1.00
C159   C     0.25585   0.65292   0.99978   0.00000  Uiso   1.00
C160   C     0.18924   0.68919   0.06748   0.00000  Uiso   1.00
C161   C     0.30129   0.69097   0.10955   0.00000  Uiso   1.00
H162   H     0.60790   0.55703   0.88001   0.00000  Uiso   1.00
H163   H     0.68956   0.62453   0.82104   0.00000  Uiso   1.00
H164   H     0.50847   0.44167   0.81430   0.00000  Uiso   1.00
H165   H     0.67386   0.59552   0.99773   0.00000  Uiso   1.00
H166   H     0.70404   0.71404   0.76659   0.00000  Uiso   1.00
H167   H     0.32221   0.32847   0.75238   0.00000  Uiso   1.00
H168   H     0.67096   0.65290   0.13920   0.00000  Uiso   1.00
H169   H     0.02199   0.67026   0.96431   0.00000  Uiso   1.00
H170   H     0.07150   0.74398   0.90997   0.00000  Uiso   1.00
H171   H     0.89042   0.56112   0.90322   0.00000  Uiso   1.00
H172   H     0.05580   0.71497   0.08666   0.00000  Uiso   1.00
H173   H     0.20240   0.81099   0.83876   0.00000  Uiso   1.00
H174   H     0.82056   0.42542   0.82455   0.00000  Uiso   1.00
H175   H     0.16932   0.74985   0.21137   0.00000  Uiso   1.00
O176   O     0.49634   0.80895   0.76539   0.00000  Uiso   1.00
O177   O     0.99540   0.30310   0.74676   0.00000  Uiso   1.00
O178   O     0.45296   0.72874   0.25426   0.00000  Uiso   1.00
N179   N     0.57919   0.72675   0.79104   0.00000  Uiso   1.00
N180   N     0.22220   0.36627   0.77775   0.00000  Uiso   1.00
N181   N     0.54825   0.66957   0.13939   0.00000  Uiso   1.00
N182   N     0.30926   0.77892   0.82988   0.00000  Uiso   1.00
N183   N     0.95227   0.41844   0.81659   0.00000  Uiso   1.00
N184   N     0.27832   0.72174   0.17823   0.00000  Uiso   1.00
C185   C     0.37643   0.10252   0.68247   0.00000  Uiso   1.00
C186   C     0.31483   0.12234   0.75500   0.00000  Uiso   1.00
C187   C     0.39436   0.16211   0.80746   0.00000  Uiso   1.00
C188   C     0.31786   0.17448   0.87013   0.00000  Uiso   1.00
C189   C     0.24507   0.20931   0.98128   0.00000  Uiso   1.00
C190   C     0.22112   0.12532   0.66109   0.00000  Uiso   1.00
C191   C     0.22188   0.16759   0.63457   0.00000  Uiso   1.00
C192   C     0.06649   0.18245   0.61817   0.00000  Uiso   1.00
C193   C     0.84825   0.22187   0.58346   0.00000  Uiso   1.00
C194   C     0.40332   0.02649   0.64366   0.00000  Uiso   1.00
C195   C     0.55725   0.98565   0.60247   0.00000  Uiso   1.00
C196   C     0.55525   0.91731   0.57138   0.00000  Uiso   1.00
C197   C     0.61990   0.80327   0.50961   0.00000  Uiso   1.00
C198   C     0.09915   0.05376   0.70048   0.00000  Uiso   1.00
C199   C     0.16421   0.09586   0.76478   0.00000  Uiso   1.00
C200   C     0.08758   0.10816   0.82739   0.00000  Uiso   1.00
C201   C     0.16698   0.14794   0.87993   0.00000  Uiso   1.00
C202   C     0.07051   0.09883   0.67087   0.00000  Uiso   1.00
C203   C     0.91509   0.11364   0.65450   0.00000  Uiso   1.00
C204   C     0.91561   0.15592   0.62797   0.00000  Uiso   1.00
C205   C     0.25271  -0.00000   0.65344   0.00000  Uiso   1.00
C206   C     0.25046   0.93170   0.62240   0.00000  Uiso   1.00
C207   C     0.40436   0.89077   0.58118   0.00000  Uiso   1.00
H208   H     0.49368   0.12314   0.67485   0.00000  Uiso   1.00
H209   H     0.51091   0.18261   0.79987   0.00000  Uiso   1.00
H210   H     0.33845   0.18807   0.62700   0.00000  Uiso   1.00
H211   H     0.67377   0.00617   0.59491   0.00000  Uiso   1.00
H212   H     0.46355   0.23687   0.94280   0.00000  Uiso   1.00
H213   H     0.09993   0.24838   0.57828   0.00000  Uiso   1.00
H214   H     0.80703   0.86480   0.51060   0.00000  Uiso   1.00
H215   H     0.98188   0.03313   0.70809   0.00000  Uiso   1.00
H216   H     0.97102   0.08766   0.83494   0.00000  Uiso   1.00
H217   H     0.79857   0.09313   0.66207   0.00000  Uiso   1.00
H218   H     0.13389   0.91122   0.62998   0.00000  Uiso   1.00
H219   H     0.02535   0.15981   0.97126   0.00000  Uiso   1.00
H220   H     0.66174   0.17132   0.60674   0.00000  Uiso   1.00
H221   H     0.36883   0.78774   0.53907   0.00000  Uiso   1.00
O222   O     0.24651   0.23585   0.03988   0.00000  Uiso   1.00
O223   O     0.76948   0.25094   0.56163   0.00000  Uiso   1.00
O224   O     0.69716   0.74769   0.47285   0.00000  Uiso   1.00
N225   N     0.36193   0.21124   0.93209   0.00000  Uiso   1.00
N226   N     0.02197   0.22201   0.59129   0.00000  Uiso   1.00
N227   N     0.68302   0.86339   0.52801   0.00000  Uiso   1.00
N228   N     0.12614   0.16978   0.94740   0.00000  Uiso   1.00
N229   N     0.78618   0.18055   0.60661   0.00000  Uiso   1.00
N230   N     0.44723   0.82193   0.54333   0.00000  Uiso   1.00
C231   C     0.05790   0.31910   0.41831   0.00000  Uiso   1.00
C232   C     0.06689   0.24607   0.36610   0.00000  Uiso   1.00
C233   C     0.19539   0.19437   0.35245   0.00000  Uiso   1.00
C234   C     0.18026   0.13106   0.30283   0.00000  Uiso   1.00
C235   C     0.21526   0.01934   0.22706   0.00000  Uiso   1.00
C236   C     0.87926   0.33891   0.46362   0.00000  Uiso   1.00
C237   C     0.85001   0.36527   0.53196   0.00000  Uiso   1.00
C238   C     0.67693   0.38012   0.56443   0.00000  Uiso   1.00
C239   C     0.42063   0.41259   0.64006   0.00000  Uiso   1.00
C240   C     0.05255   0.35829   0.38147   0.00000  Uiso   1.00
C241   C     0.16897   0.40096   0.38075   0.00000  Uiso   1.00
C242   C     0.14176   0.43215   0.34407   0.00000  Uiso   1.00
C243   C     0.15452   0.49470   0.29215   0.00000  Uiso   1.00
C244   C     0.80253   0.29860   0.35446   0.00000  Uiso   1.00
C245   C     0.92817   0.23493   0.33142   0.00000  Uiso   1.00
C246   C     0.91285   0.17169   0.28181   0.00000  Uiso   1.00
C247   C     0.04131   0.11990   0.26809   0.00000  Uiso   1.00
C248   C     0.74055   0.32777   0.42894   0.00000  Uiso   1.00
C249   C     0.56747   0.34259   0.46132   0.00000  Uiso   1.00
C250   C     0.53797   0.36897   0.52969   0.00000  Uiso   1.00
C251   C     0.91384   0.34715   0.34678   0.00000  Uiso   1.00
C252   C     0.88643   0.37828   0.31010   0.00000  Uiso   1.00
C253   C     0.00280   0.42099   0.30933   0.00000  Uiso   1.00
H254   H     0.16589   0.32777   0.44531   0.00000  Uiso   1.00
H255   H     0.30271   0.20300   0.37931   0.00000  Uiso   1.00
H256   H     0.95738   0.37389   0.55878   0.00000  Uiso   1.00
H257   H     0.27630   0.40957   0.40759   0.00000  Uiso   1.00
H258   H     0.39319   0.05976   0.29085   0.00000  Uiso   1.00
H259   H     0.66505   0.42010   0.66929   0.00000  Uiso   1.00
H260   H     0.33754   0.49534   0.35048   0.00000  Uiso   1.00
H261   H     0.69453   0.28994   0.32746   0.00000  Uiso   1.00
H262   H     0.80549   0.16309   0.25498   0.00000  Uiso   1.00
H263   H     0.46016   0.33398   0.43446   0.00000  Uiso   1.00
H264   H     0.77908   0.36965   0.28327   0.00000  Uiso   1.00
H265   H     0.98963   0.02736   0.18994   0.00000  Uiso   1.00
H266   H     0.26148   0.38771   0.56839   0.00000  Uiso   1.00
H267   H     0.93398   0.46295   0.24957   0.00000  Uiso   1.00
O268   O     0.27287   0.96079   0.19485   0.00000  Uiso   1.00
O269   O     0.31759   0.43356   0.69136   0.00000  Uiso   1.00
O270   O     0.19989   0.53227   0.27309   0.00000  Uiso   1.00
N271   N     0.28300   0.06954   0.27703   0.00000  Uiso   1.00
N272   N     0.60224   0.40643   0.63085   0.00000  Uiso   1.00
N273   N     0.23094   0.47679   0.33281   0.00000  Uiso   1.00
N274   N     0.06585   0.05211   0.22274   0.00000  Uiso   1.00
N275   N     0.38508   0.38900   0.57656   0.00000  Uiso   1.00
N276   N     0.01378   0.45936   0.27851   0.00000  Uiso   1.00
