data_job_03061
_audit_creation_date              2018-12-19
_audit_creation_method            'Materials Studio'
_symmetry_space_group_name_H-M    'P1'
_symmetry_Int_Tables_number       1
_symmetry_cell_setting            triclinic
loop_
_symmetry_equiv_pos_as_xyz
  x,y,z
_cell_length_a                    33.4024
_cell_length_b                    12.0680
_cell_length_c                    13.0874
_cell_angle_alpha                 90.0000
_cell_angle_beta                  101.9574
_cell_angle_gamma                 90.0000
loop_
_atom_site_label
_atom_site_type_symbol
_atom_site_fract_x
_atom_site_fract_y
_atom_site_fract_z
_atom_site_U_iso_or_equiv
_atom_site_adp_type
_atom_site_occupancy
C1     C     0.11865   0.33592   0.53975   0.00000  Uiso   1.00
C2     C     0.11773   0.24663   0.62168   0.00000  Uiso   1.00
C3     C     0.10083   0.14173   0.60248   0.00000  Uiso   1.00
C4     C     0.10307   0.07215   0.68797   0.00000  Uiso   1.00
C5     C     0.09882   0.92832   0.79982   0.00000  Uiso   1.00
C6     C     0.09800   0.43738   0.57537   0.00000  Uiso   1.00
C7     C     0.06451   0.49287   0.51722   0.00000  Uiso   1.00
C8     C     0.05015   0.58388   0.56373   0.00000  Uiso   1.00
C9     C     0.01528   0.73624   0.60365   0.00000  Uiso   1.00
C10    C     0.16355   0.36692   0.54965   0.00000  Uiso   1.00
C11    C     0.18517   0.36320   0.46987   0.00000  Uiso   1.00
C12    C     0.22599   0.39491   0.49472   0.00000  Uiso   1.00
C13    C     0.29289   0.43787   0.49471   0.00000  Uiso   1.00
C14    C     0.15270   0.39891   0.72572   0.00000  Uiso   1.00
C15    C     0.13623   0.28084   0.72269   0.00000  Uiso   1.00
C16    C     0.13850   0.21141   0.80823   0.00000  Uiso   1.00
C17    C     0.12160   0.10642   0.78916   0.00000  Uiso   1.00
C18    C     0.11650   0.47159   0.67638   0.00000  Uiso   1.00
C19    C     0.10218   0.56255   0.72297   0.00000  Uiso   1.00
C20    C     0.06868   0.61815   0.66492   0.00000  Uiso   1.00
C21    C     0.18204   0.40113   0.65066   0.00000  Uiso   1.00
C22    C     0.22284   0.43287   0.67563   0.00000  Uiso   1.00
C23    C     0.24452   0.42919   0.59591   0.00000  Uiso   1.00
H24    H     0.10425   0.30930   0.46111   0.00000  Uiso   1.00
H25    H     0.08652   0.11529   0.52430   0.00000  Uiso   1.00
H26    H     0.05021   0.46638   0.43906   0.00000  Uiso   1.00
H27    H     0.17085   0.33672   0.39172   0.00000  Uiso   1.00
H28    H     0.07499   0.91529   0.63891   0.00000  Uiso   1.00
H29    H     0.99845   0.65561   0.45915   0.00000  Uiso   1.00
H30    H     0.25284   0.38220   0.35932   0.00000  Uiso   1.00
H31    H     0.16710   0.42554   0.80436   0.00000  Uiso   1.00
H32    H     0.15281   0.23791   0.88639   0.00000  Uiso   1.00
H33    H     0.11651   0.58900   0.80114   0.00000  Uiso   1.00
H34    H     0.23714   0.45934   0.75380   0.00000  Uiso   1.00
H35    H     0.12880   0.01482   0.93279   0.00000  Uiso   1.00
H36    H     0.05226   0.75514   0.75302   0.00000  Uiso   1.00
H37    H     0.30664   0.48173   0.65320   0.00000  Uiso   1.00
O38    O     0.09135   0.83954   0.83362   0.00000  Uiso   1.00
O39    O     0.99093   0.81082   0.59777   0.00000  Uiso   1.00
O40    O     0.32468   0.45211   0.46681   0.00000  Uiso   1.00
N41    N     0.08963   0.96446   0.69681   0.00000  Uiso   1.00
N42    N     0.01806   0.65660   0.52875   0.00000  Uiso   1.00
N43    N     0.25588   0.40102   0.43542   0.00000  Uiso   1.00
N44    N     0.11858   0.01801   0.85495   0.00000  Uiso   1.00
N45    N     0.04701   0.71016   0.68689   0.00000  Uiso   1.00
N46    N     0.28484   0.45457   0.59355   0.00000  Uiso   1.00
C47    C     0.61865   0.83592   0.53975   0.00000  Uiso   1.00
C48    C     0.61773   0.74663   0.62168   0.00000  Uiso   1.00
C49    C     0.60083   0.64173   0.60248   0.00000  Uiso   1.00
C50    C     0.60307   0.57215   0.68797   0.00000  Uiso   1.00
C51    C     0.59882   0.42832   0.79982   0.00000  Uiso   1.00
C52    C     0.59800   0.93738   0.57537   0.00000  Uiso   1.00
C53    C     0.56451   0.99287   0.51722   0.00000  Uiso   1.00
C54    C     0.55015   0.08388   0.56373   0.00000  Uiso   1.00
C55    C     0.51528   0.23624   0.60365   0.00000  Uiso   1.00
C56    C     0.66355   0.86692   0.54965   0.00000  Uiso   1.00
C57    C     0.68517   0.86320   0.46987   0.00000  Uiso   1.00
C58    C     0.72599   0.89491   0.49472   0.00000  Uiso   1.00
C59    C     0.79289   0.93787   0.49471   0.00000  Uiso   1.00
C60    C     0.65270   0.89891   0.72572   0.00000  Uiso   1.00
C61    C     0.63623   0.78084   0.72269   0.00000  Uiso   1.00
C62    C     0.63850   0.71141   0.80823   0.00000  Uiso   1.00
C63    C     0.62160   0.60642   0.78916   0.00000  Uiso   1.00
C64    C     0.61650   0.97159   0.67638   0.00000  Uiso   1.00
C65    C     0.60218   0.06255   0.72297   0.00000  Uiso   1.00
C66    C     0.56868   0.11815   0.66492   0.00000  Uiso   1.00
C67    C     0.68204   0.90113   0.65066   0.00000  Uiso   1.00
C68    C     0.72284   0.93287   0.67563   0.00000  Uiso   1.00
C69    C     0.74452   0.92919   0.59591   0.00000  Uiso   1.00
H70    H     0.60425   0.80930   0.46111   0.00000  Uiso   1.00
H71    H     0.58652   0.61529   0.52430   0.00000  Uiso   1.00
H72    H     0.55021   0.96638   0.43906   0.00000  Uiso   1.00
H73    H     0.67085   0.83672   0.39172   0.00000  Uiso   1.00
H74    H     0.57499   0.41529   0.63891   0.00000  Uiso   1.00
H75    H     0.49845   0.15561   0.45915   0.00000  Uiso   1.00
H76    H     0.75284   0.88220   0.35932   0.00000  Uiso   1.00
H77    H     0.66710   0.92554   0.80436   0.00000  Uiso   1.00
H78    H     0.65281   0.73791   0.88639   0.00000  Uiso   1.00
H79    H     0.61651   0.08900   0.80114   0.00000  Uiso   1.00
H80    H     0.73714   0.95934   0.75380   0.00000  Uiso   1.00
H81    H     0.62880   0.51482   0.93279   0.00000  Uiso   1.00
H82    H     0.55226   0.25514   0.75302   0.00000  Uiso   1.00
H83    H     0.80664   0.98173   0.65320   0.00000  Uiso   1.00
O84    O     0.59135   0.33954   0.83362   0.00000  Uiso   1.00
O85    O     0.49093   0.31082   0.59777   0.00000  Uiso   1.00
O86    O     0.82468   0.95211   0.46681   0.00000  Uiso   1.00
N87    N     0.58963   0.46446   0.69681   0.00000  Uiso   1.00
N88    N     0.51806   0.15660   0.52875   0.00000  Uiso   1.00
N89    N     0.75588   0.90102   0.43542   0.00000  Uiso   1.00
N90    N     0.61858   0.51801   0.85495   0.00000  Uiso   1.00
N91    N     0.54701   0.21016   0.68689   0.00000  Uiso   1.00
N92    N     0.78484   0.95457   0.59355   0.00000  Uiso   1.00
C93    C     0.88135   0.33592   0.96025   0.00000  Uiso   1.00
C94    C     0.88227   0.24663   0.87832   0.00000  Uiso   1.00
C95    C     0.89917   0.14173   0.89752   0.00000  Uiso   1.00
C96    C     0.89693   0.07215   0.81203   0.00000  Uiso   1.00
C97    C     0.90118   0.92832   0.70018   0.00000  Uiso   1.00
C98    C     0.90200   0.43738   0.92463   0.00000  Uiso   1.00
C99    C     0.93549   0.49287   0.98278   0.00000  Uiso   1.00
C100   C     0.94985   0.58388   0.93627   0.00000  Uiso   1.00
C101   C     0.98472   0.73624   0.89635   0.00000  Uiso   1.00
C102   C     0.83645   0.36692   0.95035   0.00000  Uiso   1.00
C103   C     0.81483   0.36320   0.03013   0.00000  Uiso   1.00
C104   C     0.77401   0.39491   0.00528   0.00000  Uiso   1.00
C105   C     0.70711   0.43787   0.00529   0.00000  Uiso   1.00
C106   C     0.84730   0.39891   0.77428   0.00000  Uiso   1.00
C107   C     0.86377   0.28084   0.77731   0.00000  Uiso   1.00
C108   C     0.86150   0.21141   0.69177   0.00000  Uiso   1.00
C109   C     0.87840   0.10642   0.71084   0.00000  Uiso   1.00
C110   C     0.88350   0.47159   0.82362   0.00000  Uiso   1.00
C111   C     0.89782   0.56255   0.77703   0.00000  Uiso   1.00
C112   C     0.93132   0.61815   0.83508   0.00000  Uiso   1.00
C113   C     0.81796   0.40113   0.84934   0.00000  Uiso   1.00
C114   C     0.77716   0.43287   0.82437   0.00000  Uiso   1.00
C115   C     0.75548   0.42919   0.90409   0.00000  Uiso   1.00
H116   H     0.89575   0.30930   0.03889   0.00000  Uiso   1.00
H117   H     0.91348   0.11529   0.97570   0.00000  Uiso   1.00
H118   H     0.94979   0.46638   0.06094   0.00000  Uiso   1.00
H119   H     0.82915   0.33672   0.10828   0.00000  Uiso   1.00
H120   H     0.92501   0.91529   0.86109   0.00000  Uiso   1.00
H121   H     0.00155   0.65561   0.04085   0.00000  Uiso   1.00
H122   H     0.74716   0.38220   0.14068   0.00000  Uiso   1.00
H123   H     0.83290   0.42554   0.69564   0.00000  Uiso   1.00
H124   H     0.84719   0.23791   0.61361   0.00000  Uiso   1.00
H125   H     0.88349   0.58900   0.69886   0.00000  Uiso   1.00
H126   H     0.76286   0.45934   0.74620   0.00000  Uiso   1.00
H127   H     0.87120   0.01482   0.56721   0.00000  Uiso   1.00
H128   H     0.94774   0.75514   0.74698   0.00000  Uiso   1.00
H129   H     0.69336   0.48173   0.84680   0.00000  Uiso   1.00
O130   O     0.90865   0.83954   0.66638   0.00000  Uiso   1.00
O131   O     0.00907   0.81082   0.90223   0.00000  Uiso   1.00
O132   O     0.67532   0.45211   0.03319   0.00000  Uiso   1.00
N133   N     0.91037   0.96446   0.80319   0.00000  Uiso   1.00
N134   N     0.98194   0.65660   0.97125   0.00000  Uiso   1.00
N135   N     0.74412   0.40102   0.06458   0.00000  Uiso   1.00
N136   N     0.88142   0.01801   0.64505   0.00000  Uiso   1.00
N137   N     0.95299   0.71016   0.81311   0.00000  Uiso   1.00
N138   N     0.71516   0.45457   0.90645   0.00000  Uiso   1.00
C139   C     0.38135   0.83592   0.96025   0.00000  Uiso   1.00
C140   C     0.38227   0.74663   0.87832   0.00000  Uiso   1.00
C141   C     0.39917   0.64173   0.89752   0.00000  Uiso   1.00
C142   C     0.39693   0.57215   0.81203   0.00000  Uiso   1.00
C143   C     0.40118   0.42832   0.70018   0.00000  Uiso   1.00
C144   C     0.40200   0.93738   0.92463   0.00000  Uiso   1.00
C145   C     0.43549   0.99287   0.98278   0.00000  Uiso   1.00
C146   C     0.44985   0.08388   0.93627   0.00000  Uiso   1.00
C147   C     0.48472   0.23624   0.89635   0.00000  Uiso   1.00
C148   C     0.33645   0.86692   0.95035   0.00000  Uiso   1.00
C149   C     0.31483   0.86320   0.03013   0.00000  Uiso   1.00
C150   C     0.27401   0.89491   0.00528   0.00000  Uiso   1.00
C151   C     0.20711   0.93787   0.00529   0.00000  Uiso   1.00
C152   C     0.34730   0.89891   0.77428   0.00000  Uiso   1.00
C153   C     0.36377   0.78084   0.77731   0.00000  Uiso   1.00
C154   C     0.36150   0.71141   0.69177   0.00000  Uiso   1.00
C155   C     0.37840   0.60642   0.71084   0.00000  Uiso   1.00
C156   C     0.38350   0.97159   0.82362   0.00000  Uiso   1.00
C157   C     0.39782   0.06255   0.77703   0.00000  Uiso   1.00
C158   C     0.43132   0.11815   0.83508   0.00000  Uiso   1.00
C159   C     0.31796   0.90113   0.84934   0.00000  Uiso   1.00
C160   C     0.27716   0.93287   0.82437   0.00000  Uiso   1.00
C161   C     0.25548   0.92919   0.90409   0.00000  Uiso   1.00
H162   H     0.39575   0.80930   0.03889   0.00000  Uiso   1.00
H163   H     0.41348   0.61529   0.97570   0.00000  Uiso   1.00
H164   H     0.44979   0.96638   0.06094   0.00000  Uiso   1.00
H165   H     0.32915   0.83672   0.10828   0.00000  Uiso   1.00
H166   H     0.42501   0.41529   0.86109   0.00000  Uiso   1.00
H167   H     0.50155   0.15561   0.04085   0.00000  Uiso   1.00
H168   H     0.24716   0.88220   0.14068   0.00000  Uiso   1.00
H169   H     0.33290   0.92554   0.69564   0.00000  Uiso   1.00
H170   H     0.34719   0.73791   0.61361   0.00000  Uiso   1.00
H171   H     0.38349   0.08900   0.69886   0.00000  Uiso   1.00
H172   H     0.26286   0.95934   0.74620   0.00000  Uiso   1.00
H173   H     0.37120   0.51482   0.56721   0.00000  Uiso   1.00
H174   H     0.44774   0.25514   0.74698   0.00000  Uiso   1.00
H175   H     0.19336   0.98173   0.84680   0.00000  Uiso   1.00
O176   O     0.40865   0.33954   0.66638   0.00000  Uiso   1.00
O177   O     0.50907   0.31082   0.90223   0.00000  Uiso   1.00
O178   O     0.17532   0.95211   0.03319   0.00000  Uiso   1.00
N179   N     0.41037   0.46446   0.80319   0.00000  Uiso   1.00
N180   N     0.48194   0.15660   0.97125   0.00000  Uiso   1.00
N181   N     0.24412   0.90102   0.06458   0.00000  Uiso   1.00
N182   N     0.38142   0.51801   0.64505   0.00000  Uiso   1.00
N183   N     0.45299   0.21016   0.81311   0.00000  Uiso   1.00
N184   N     0.21516   0.95457   0.90645   0.00000  Uiso   1.00
C185   C     0.88135   0.66408   0.46025   0.00000  Uiso   1.00
C186   C     0.88227   0.75337   0.37832   0.00000  Uiso   1.00
C187   C     0.89917   0.85827   0.39752   0.00000  Uiso   1.00
C188   C     0.89693   0.92785   0.31203   0.00000  Uiso   1.00
C189   C     0.90118   0.07168   0.20018   0.00000  Uiso   1.00
C190   C     0.90200   0.56262   0.42463   0.00000  Uiso   1.00
C191   C     0.93549   0.50713   0.48278   0.00000  Uiso   1.00
C192   C     0.94985   0.41612   0.43627   0.00000  Uiso   1.00
C193   C     0.98472   0.26376   0.39635   0.00000  Uiso   1.00
C194   C     0.83645   0.63308   0.45035   0.00000  Uiso   1.00
C195   C     0.81483   0.63680   0.53013   0.00000  Uiso   1.00
C196   C     0.77401   0.60509   0.50528   0.00000  Uiso   1.00
C197   C     0.70711   0.56213   0.50529   0.00000  Uiso   1.00
C198   C     0.84730   0.60109   0.27428   0.00000  Uiso   1.00
C199   C     0.86377   0.71916   0.27731   0.00000  Uiso   1.00
C200   C     0.86150   0.78859   0.19177   0.00000  Uiso   1.00
C201   C     0.87840   0.89358   0.21084   0.00000  Uiso   1.00
C202   C     0.88350   0.52841   0.32362   0.00000  Uiso   1.00
C203   C     0.89782   0.43745   0.27703   0.00000  Uiso   1.00
C204   C     0.93132   0.38185   0.33508   0.00000  Uiso   1.00
C205   C     0.81796   0.59887   0.34934   0.00000  Uiso   1.00
C206   C     0.77716   0.56713   0.32437   0.00000  Uiso   1.00
C207   C     0.75548   0.57081   0.40409   0.00000  Uiso   1.00
H208   H     0.89575   0.69070   0.53889   0.00000  Uiso   1.00
H209   H     0.91348   0.88471   0.47570   0.00000  Uiso   1.00
H210   H     0.94979   0.53362   0.56094   0.00000  Uiso   1.00
H211   H     0.82915   0.66328   0.60828   0.00000  Uiso   1.00
H212   H     0.92501   0.08471   0.36109   0.00000  Uiso   1.00
H213   H     0.00155   0.34439   0.54085   0.00000  Uiso   1.00
H214   H     0.74716   0.61780   0.64068   0.00000  Uiso   1.00
H215   H     0.83290   0.57446   0.19564   0.00000  Uiso   1.00
H216   H     0.84719   0.76209   0.11361   0.00000  Uiso   1.00
H217   H     0.88349   0.41100   0.19886   0.00000  Uiso   1.00
H218   H     0.76286   0.54066   0.24620   0.00000  Uiso   1.00
H219   H     0.87120   0.98518   0.06721   0.00000  Uiso   1.00
H220   H     0.94774   0.24486   0.24698   0.00000  Uiso   1.00
H221   H     0.69336   0.51827   0.34680   0.00000  Uiso   1.00
O222   O     0.90865   0.16046   0.16638   0.00000  Uiso   1.00
O223   O     0.00907   0.18918   0.40223   0.00000  Uiso   1.00
O224   O     0.67532   0.54789   0.53319   0.00000  Uiso   1.00
N225   N     0.91037   0.03554   0.30319   0.00000  Uiso   1.00
N226   N     0.98194   0.34340   0.47125   0.00000  Uiso   1.00
N227   N     0.74412   0.59898   0.56458   0.00000  Uiso   1.00
N228   N     0.88142   0.98199   0.14505   0.00000  Uiso   1.00
N229   N     0.95299   0.28984   0.31311   0.00000  Uiso   1.00
N230   N     0.71516   0.54543   0.40645   0.00000  Uiso   1.00
C231   C     0.38135   0.16408   0.46025   0.00000  Uiso   1.00
C232   C     0.38227   0.25337   0.37832   0.00000  Uiso   1.00
C233   C     0.39917   0.35827   0.39752   0.00000  Uiso   1.00
C234   C     0.39693   0.42785   0.31203   0.00000  Uiso   1.00
C235   C     0.40118   0.57168   0.20018   0.00000  Uiso   1.00
C236   C     0.40200   0.06262   0.42463   0.00000  Uiso   1.00
C237   C     0.43549   0.00713   0.48278   0.00000  Uiso   1.00
C238   C     0.44985   0.91612   0.43627   0.00000  Uiso   1.00
C239   C     0.48472   0.76376   0.39635   0.00000  Uiso   1.00
C240   C     0.33645   0.13308   0.45035   0.00000  Uiso   1.00
C241   C     0.31483   0.13680   0.53013   0.00000  Uiso   1.00
C242   C     0.27401   0.10509   0.50528   0.00000  Uiso   1.00
C243   C     0.20711   0.06213   0.50529   0.00000  Uiso   1.00
C244   C     0.34730   0.10109   0.27428   0.00000  Uiso   1.00
C245   C     0.36377   0.21916   0.27731   0.00000  Uiso   1.00
C246   C     0.36150   0.28859   0.19177   0.00000  Uiso   1.00
C247   C     0.37840   0.39358   0.21084   0.00000  Uiso   1.00
C248   C     0.38350   0.02841   0.32362   0.00000  Uiso   1.00
C249   C     0.39782   0.93745   0.27703   0.00000  Uiso   1.00
C250   C     0.43132   0.88185   0.33508   0.00000  Uiso   1.00
C251   C     0.31796   0.09887   0.34934   0.00000  Uiso   1.00
C252   C     0.27716   0.06713   0.32437   0.00000  Uiso   1.00
C253   C     0.25548   0.07081   0.40409   0.00000  Uiso   1.00
H254   H     0.39575   0.19070   0.53889   0.00000  Uiso   1.00
H255   H     0.41348   0.38471   0.47570   0.00000  Uiso   1.00
H256   H     0.44979   0.03362   0.56094   0.00000  Uiso   1.00
H257   H     0.32915   0.16328   0.60828   0.00000  Uiso   1.00
H258   H     0.42501   0.58471   0.36109   0.00000  Uiso   1.00
H259   H     0.50155   0.84439   0.54085   0.00000  Uiso   1.00
H260   H     0.24716   0.11780   0.64068   0.00000  Uiso   1.00
H261   H     0.33290   0.07446   0.19564   0.00000  Uiso   1.00
H262   H     0.34719   0.26209   0.11361   0.00000  Uiso   1.00
H263   H     0.38349   0.91100   0.19886   0.00000  Uiso   1.00
H264   H     0.26286   0.04066   0.24620   0.00000  Uiso   1.00
H265   H     0.37120   0.48518   0.06721   0.00000  Uiso   1.00
H266   H     0.44774   0.74486   0.24698   0.00000  Uiso   1.00
H267   H     0.19336   0.01827   0.34680   0.00000  Uiso   1.00
O268   O     0.40865   0.66046   0.16638   0.00000  Uiso   1.00
O269   O     0.50907   0.68918   0.40223   0.00000  Uiso   1.00
O270   O     0.17532   0.04789   0.53319   0.00000  Uiso   1.00
N271   N     0.41037   0.53554   0.30319   0.00000  Uiso   1.00
N272   N     0.48194   0.84340   0.47125   0.00000  Uiso   1.00
N273   N     0.24412   0.09898   0.56458   0.00000  Uiso   1.00
N274   N     0.38142   0.48199   0.14505   0.00000  Uiso   1.00
N275   N     0.45299   0.78984   0.31311   0.00000  Uiso   1.00
N276   N     0.21516   0.04543   0.40645   0.00000  Uiso   1.00
C277   C     0.11865   0.66408   0.03975   0.00000  Uiso   1.00
C278   C     0.11773   0.75337   0.12168   0.00000  Uiso   1.00
C279   C     0.10083   0.85827   0.10248   0.00000  Uiso   1.00
C280   C     0.10307   0.92785   0.18797   0.00000  Uiso   1.00
C281   C     0.09882   0.07168   0.29982   0.00000  Uiso   1.00
C282   C     0.09800   0.56262   0.07537   0.00000  Uiso   1.00
C283   C     0.06451   0.50713   0.01722   0.00000  Uiso   1.00
C284   C     0.05015   0.41612   0.06373   0.00000  Uiso   1.00
C285   C     0.01528   0.26376   0.10365   0.00000  Uiso   1.00
C286   C     0.16355   0.63308   0.04965   0.00000  Uiso   1.00
C287   C     0.18517   0.63680   0.96987   0.00000  Uiso   1.00
C288   C     0.22599   0.60509   0.99472   0.00000  Uiso   1.00
C289   C     0.29289   0.56213   0.99471   0.00000  Uiso   1.00
C290   C     0.15270   0.60109   0.22572   0.00000  Uiso   1.00
C291   C     0.13623   0.71916   0.22269   0.00000  Uiso   1.00
C292   C     0.13850   0.78859   0.30823   0.00000  Uiso   1.00
C293   C     0.12160   0.89358   0.28916   0.00000  Uiso   1.00
C294   C     0.11650   0.52841   0.17638   0.00000  Uiso   1.00
C295   C     0.10218   0.43745   0.22297   0.00000  Uiso   1.00
C296   C     0.06868   0.38185   0.16492   0.00000  Uiso   1.00
C297   C     0.18204   0.59887   0.15066   0.00000  Uiso   1.00
C298   C     0.22284   0.56713   0.17563   0.00000  Uiso   1.00
C299   C     0.24452   0.57081   0.09591   0.00000  Uiso   1.00
H300   H     0.10425   0.69070   0.96111   0.00000  Uiso   1.00
H301   H     0.08652   0.88471   0.02430   0.00000  Uiso   1.00
H302   H     0.05021   0.53362   0.93906   0.00000  Uiso   1.00
H303   H     0.17085   0.66328   0.89172   0.00000  Uiso   1.00
H304   H     0.07499   0.08471   0.13891   0.00000  Uiso   1.00
H305   H     0.99845   0.34439   0.95915   0.00000  Uiso   1.00
H306   H     0.25284   0.61780   0.85932   0.00000  Uiso   1.00
H307   H     0.16710   0.57446   0.30436   0.00000  Uiso   1.00
H308   H     0.15281   0.76209   0.38639   0.00000  Uiso   1.00
H309   H     0.11651   0.41100   0.30114   0.00000  Uiso   1.00
H310   H     0.23714   0.54066   0.25380   0.00000  Uiso   1.00
H311   H     0.12880   0.98518   0.43279   0.00000  Uiso   1.00
H312   H     0.05226   0.24486   0.25302   0.00000  Uiso   1.00
H313   H     0.30664   0.51827   0.15320   0.00000  Uiso   1.00
O314   O     0.09135   0.16046   0.33362   0.00000  Uiso   1.00
O315   O     0.99093   0.18918   0.09777   0.00000  Uiso   1.00
O316   O     0.32468   0.54789   0.96681   0.00000  Uiso   1.00
N317   N     0.08963   0.03554   0.19681   0.00000  Uiso   1.00
N318   N     0.01806   0.34340   0.02875   0.00000  Uiso   1.00
N319   N     0.25588   0.59898   0.93542   0.00000  Uiso   1.00
N320   N     0.11858   0.98199   0.35495   0.00000  Uiso   1.00
N321   N     0.04701   0.28984   0.18689   0.00000  Uiso   1.00
N322   N     0.28484   0.54543   0.09355   0.00000  Uiso   1.00
C323   C     0.61865   0.16408   0.03975   0.00000  Uiso   1.00
C324   C     0.61773   0.25337   0.12168   0.00000  Uiso   1.00
C325   C     0.60083   0.35827   0.10248   0.00000  Uiso   1.00
C326   C     0.60307   0.42785   0.18797   0.00000  Uiso   1.00
C327   C     0.59882   0.57168   0.29982   0.00000  Uiso   1.00
C328   C     0.59800   0.06262   0.07537   0.00000  Uiso   1.00
C329   C     0.56451   0.00713   0.01722   0.00000  Uiso   1.00
C330   C     0.55015   0.91612   0.06373   0.00000  Uiso   1.00
C331   C     0.51528   0.76376   0.10365   0.00000  Uiso   1.00
C332   C     0.66355   0.13308   0.04965   0.00000  Uiso   1.00
C333   C     0.68517   0.13680   0.96987   0.00000  Uiso   1.00
C334   C     0.72599   0.10509   0.99472   0.00000  Uiso   1.00
C335   C     0.79289   0.06213   0.99471   0.00000  Uiso   1.00
C336   C     0.65270   0.10109   0.22572   0.00000  Uiso   1.00
C337   C     0.63623   0.21916   0.22269   0.00000  Uiso   1.00
C338   C     0.63850   0.28859   0.30823   0.00000  Uiso   1.00
C339   C     0.62160   0.39358   0.28916   0.00000  Uiso   1.00
C340   C     0.61650   0.02841   0.17638   0.00000  Uiso   1.00
C341   C     0.60218   0.93745   0.22297   0.00000  Uiso   1.00
C342   C     0.56868   0.88185   0.16492   0.00000  Uiso   1.00
C343   C     0.68204   0.09887   0.15066   0.00000  Uiso   1.00
C344   C     0.72284   0.06713   0.17563   0.00000  Uiso   1.00
C345   C     0.74452   0.07081   0.09591   0.00000  Uiso   1.00
H346   H     0.60425   0.19070   0.96111   0.00000  Uiso   1.00
H347   H     0.58652   0.38471   0.02430   0.00000  Uiso   1.00
H348   H     0.55021   0.03362   0.93906   0.00000  Uiso   1.00
H349   H     0.67085   0.16328   0.89172   0.00000  Uiso   1.00
H350   H     0.57499   0.58471   0.13891   0.00000  Uiso   1.00
H351   H     0.49845   0.84439   0.95915   0.00000  Uiso   1.00
H352   H     0.75284   0.11780   0.85932   0.00000  Uiso   1.00
H353   H     0.66710   0.07446   0.30436   0.00000  Uiso   1.00
H354   H     0.65281   0.26209   0.38639   0.00000  Uiso   1.00
H355   H     0.61651   0.91100   0.30114   0.00000  Uiso   1.00
H356   H     0.73714   0.04066   0.25380   0.00000  Uiso   1.00
H357   H     0.62880   0.48518   0.43279   0.00000  Uiso   1.00
H358   H     0.55226   0.74486   0.25302   0.00000  Uiso   1.00
H359   H     0.80664   0.01827   0.15320   0.00000  Uiso   1.00
O360   O     0.59135   0.66046   0.33362   0.00000  Uiso   1.00
O361   O     0.49093   0.68918   0.09777   0.00000  Uiso   1.00
O362   O     0.82468   0.04789   0.96681   0.00000  Uiso   1.00
N363   N     0.58963   0.53554   0.19681   0.00000  Uiso   1.00
N364   N     0.51806   0.84340   0.02875   0.00000  Uiso   1.00
N365   N     0.75588   0.09898   0.93542   0.00000  Uiso   1.00
N366   N     0.61858   0.48199   0.35495   0.00000  Uiso   1.00
N367   N     0.54701   0.78984   0.18689   0.00000  Uiso   1.00
N368   N     0.78484   0.04543   0.09355   0.00000  Uiso   1.00
