data_job_00985
_audit_creation_date              2018-12-19
_audit_creation_method            'Materials Studio'
_symmetry_space_group_name_H-M    'P1'
_symmetry_Int_Tables_number       1
_symmetry_cell_setting            triclinic
loop_
_symmetry_equiv_pos_as_xyz
  x,y,z
_cell_length_a                    17.2339
_cell_length_b                    15.8639
_cell_length_c                    17.2602
_cell_angle_alpha                 90.0000
_cell_angle_beta                  96.5226
_cell_angle_gamma                 90.0000
loop_
_atom_site_label
_atom_site_type_symbol
_atom_site_fract_x
_atom_site_fract_y
_atom_site_fract_z
_atom_site_U_iso_or_equiv
_atom_site_adp_type
_atom_site_occupancy
C1     C     0.55884   0.99345   0.78368   0.00000  Uiso   1.00
C2     C     0.49850   0.03840   0.72668   0.00000  Uiso   1.00
C3     C     0.48743   0.12495   0.72135   0.00000  Uiso   1.00
C4     C     0.42918   0.15365   0.66539   0.00000  Uiso   1.00
C5     C     0.34238   0.23195   0.58433   0.00000  Uiso   1.00
C6     C     0.51318   0.93164   0.82876   0.00000  Uiso   1.00
C7     C     0.51445   0.92841   0.90924   0.00000  Uiso   1.00
C8     C     0.46856   0.86723   0.93921   0.00000  Uiso   1.00
C9     C     0.40459   0.77974   0.01663   0.00000  Uiso   1.00
C10    C     0.60746   0.93978   0.73401   0.00000  Uiso   1.00
C11    C     0.68801   0.94338   0.73484   0.00000  Uiso   1.00
C12    C     0.72151   0.88904   0.68505   0.00000  Uiso   1.00
C13    C     0.80392   0.81419   0.61536   0.00000  Uiso   1.00
C14    C     0.47510   0.89053   0.69379   0.00000  Uiso   1.00
C15    C     0.45302   0.98249   0.67786   0.00000  Uiso   1.00
C16    C     0.39477   0.01107   0.62189   0.00000  Uiso   1.00
C17    C     0.38362   0.09765   0.61647   0.00000  Uiso   1.00
C18    C     0.46769   0.87573   0.77993   0.00000  Uiso   1.00
C19    C     0.42180   0.81454   0.80978   0.00000  Uiso   1.00
C20    C     0.42300   0.81122   0.89029   0.00000  Uiso   1.00
C21    C     0.56198   0.88388   0.68518   0.00000  Uiso   1.00
C22    C     0.59536   0.82951   0.63538   0.00000  Uiso   1.00
C23    C     0.67594   0.83303   0.63613   0.00000  Uiso   1.00
H24    H     0.59426   0.03697   0.82170   0.00000  Uiso   1.00
H25    H     0.52263   0.16819   0.75915   0.00000  Uiso   1.00
H26    H     0.54966   0.97168   0.94702   0.00000  Uiso   1.00
H27    H     0.72319   0.98665   0.77263   0.00000  Uiso   1.00
H28    H     0.42315   0.28901   0.66829   0.00000  Uiso   1.00
H29    H     0.48016   0.87464   0.06441   0.00000  Uiso   1.00
H30    H     0.84608   0.90621   0.69670   0.00000  Uiso   1.00
H31    H     0.43969   0.84700   0.65577   0.00000  Uiso   1.00
H32    H     0.35958   0.96780   0.58411   0.00000  Uiso   1.00
H33    H     0.38661   0.77129   0.77198   0.00000  Uiso   1.00
H34    H     0.56014   0.78626   0.59760   0.00000  Uiso   1.00
H35    H     0.29081   0.12637   0.52622   0.00000  Uiso   1.00
H36    H     0.34782   0.71199   0.92235   0.00000  Uiso   1.00
H37    H     0.71374   0.74356   0.55464   0.00000  Uiso   1.00
O38    O     0.30706   0.29058   0.55312   0.00000  Uiso   1.00
O39    O     0.38186   0.74693   0.07283   0.00000  Uiso   1.00
O40    O     0.86194   0.78835   0.59040   0.00000  Uiso   1.00
N41    N     0.40301   0.23416   0.64467   0.00000  Uiso   1.00
N42    N     0.45630   0.84675   0.01503   0.00000  Uiso   1.00
N43    N     0.79841   0.87625   0.67127   0.00000  Uiso   1.00
N44    N     0.33180   0.14664   0.56823   0.00000  Uiso   1.00
N45    N     0.38509   0.75923   0.93859   0.00000  Uiso   1.00
N46    N     0.72720   0.78873   0.59482   0.00000  Uiso   1.00
C47    C     0.02773   0.97743   0.72810   0.00000  Uiso   1.00
C48    C     0.98827   0.91628   0.77944   0.00000  Uiso   1.00
C49    C     0.96773   0.83359   0.76062   0.00000  Uiso   1.00
C50    C     0.93213   0.78798   0.81545   0.00000  Uiso   1.00
C51    C     0.87304   0.68759   0.88434   0.00000  Uiso   1.00
C52    C     0.97453   0.05437   0.71764   0.00000  Uiso   1.00
C53    C     0.94244   0.08779   0.64685   0.00000  Uiso   1.00
C54    C     0.89528   0.15843   0.64967   0.00000  Uiso   1.00
C55    C     0.81490   0.27246   0.62261   0.00000  Uiso   1.00
C56    C     0.10209   0.00691   0.77690   0.00000  Uiso   1.00
C57    C     0.17726   0.00043   0.75593   0.00000  Uiso   1.00
C58    C     0.23750   0.03113   0.80863   0.00000  Uiso   1.00
C59    C     0.35517   0.07146   0.87357   0.00000  Uiso   1.00
C60    C     0.00105   0.04349   0.85897   0.00000  Uiso   1.00
C61    C     0.97378   0.95217   0.85052   0.00000  Uiso   1.00
C62    C     0.93821   0.90667   0.90541   0.00000  Uiso   1.00
C63    C     0.91762   0.82392   0.88667   0.00000  Uiso   1.00
C64    C     0.96004   0.09025   0.78872   0.00000  Uiso   1.00
C65    C     0.91293   0.16087   0.79164   0.00000  Uiso   1.00
C66    C     0.88077   0.19438   0.72088   0.00000  Uiso   1.00
C67    C     0.08761   0.04279   0.84798   0.00000  Uiso   1.00
C68    C     0.14774   0.07351   0.90072   0.00000  Uiso   1.00
C69    C     0.22298   0.06707   0.87984   0.00000  Uiso   1.00
H70    H     0.03901   0.94950   0.67276   0.00000  Uiso   1.00
H71    H     0.97894   0.80585   0.70560   0.00000  Uiso   1.00
H72    H     0.95367   0.06001   0.59186   0.00000  Uiso   1.00
H73    H     0.18844   0.97266   0.70092   0.00000  Uiso   1.00
H74    H     0.90594   0.66241   0.77334   0.00000  Uiso   1.00
H75    H     0.85266   0.19835   0.53351   0.00000  Uiso   1.00
H76    H     0.34774   0.01415   0.76348   0.00000  Uiso   1.00
H77    H     0.98977   0.07143   0.91431   0.00000  Uiso   1.00
H78    H     0.92701   0.93446   0.96041   0.00000  Uiso   1.00
H79    H     0.90173   0.18862   0.84666   0.00000  Uiso   1.00
H80    H     0.13651   0.10127   0.95572   0.00000  Uiso   1.00
H81    H     0.86378   0.76680   0.98015   0.00000  Uiso   1.00
H82    H     0.81051   0.30274   0.74032   0.00000  Uiso   1.00
H83    H     0.30558   0.11854   0.97029   0.00000  Uiso   1.00
O84    O     0.84443   0.62231   0.90270   0.00000  Uiso   1.00
O85    O     0.77456   0.32544   0.58805   0.00000  Uiso   1.00
O86    O     0.42408   0.08378   0.88977   0.00000  Uiso   1.00
N87    N     0.90464   0.70577   0.81569   0.00000  Uiso   1.00
N88    N     0.85483   0.20683   0.59146   0.00000  Uiso   1.00
N89    N     0.31768   0.03465   0.80646   0.00000  Uiso   1.00
N90    N     0.88196   0.76194   0.92698   0.00000  Uiso   1.00
N91    N     0.83214   0.26300   0.70275   0.00000  Uiso   1.00
N92    N     0.29499   0.09081   0.91774   0.00000  Uiso   1.00
C93    C     0.44116   0.49345   0.71632   0.00000  Uiso   1.00
C94    C     0.50150   0.53840   0.77332   0.00000  Uiso   1.00
C95    C     0.51257   0.62495   0.77865   0.00000  Uiso   1.00
C96    C     0.57082   0.65365   0.83461   0.00000  Uiso   1.00
C97    C     0.65762   0.73195   0.91567   0.00000  Uiso   1.00
C98    C     0.48682   0.43164   0.67124   0.00000  Uiso   1.00
C99    C     0.48555   0.42841   0.59076   0.00000  Uiso   1.00
C100   C     0.53144   0.36723   0.56079   0.00000  Uiso   1.00
C101   C     0.59541   0.27974   0.48337   0.00000  Uiso   1.00
C102   C     0.39254   0.43978   0.76599   0.00000  Uiso   1.00
C103   C     0.31199   0.44338   0.76516   0.00000  Uiso   1.00
C104   C     0.27849   0.38904   0.81495   0.00000  Uiso   1.00
C105   C     0.19608   0.31419   0.88464   0.00000  Uiso   1.00
C106   C     0.52490   0.39053   0.80621   0.00000  Uiso   1.00
C107   C     0.54698   0.48249   0.82214   0.00000  Uiso   1.00
C108   C     0.60523   0.51107   0.87811   0.00000  Uiso   1.00
C109   C     0.61638   0.59765   0.88353   0.00000  Uiso   1.00
C110   C     0.53231   0.37573   0.72007   0.00000  Uiso   1.00
C111   C     0.57820   0.31454   0.69022   0.00000  Uiso   1.00
C112   C     0.57700   0.31122   0.60971   0.00000  Uiso   1.00
C113   C     0.43802   0.38388   0.81482   0.00000  Uiso   1.00
C114   C     0.40464   0.32951   0.86462   0.00000  Uiso   1.00
C115   C     0.32406   0.33303   0.86387   0.00000  Uiso   1.00
H116   H     0.40574   0.53697   0.67830   0.00000  Uiso   1.00
H117   H     0.47737   0.66819   0.74085   0.00000  Uiso   1.00
H118   H     0.45034   0.47168   0.55298   0.00000  Uiso   1.00
H119   H     0.27681   0.48665   0.72737   0.00000  Uiso   1.00
H120   H     0.57685   0.78901   0.83171   0.00000  Uiso   1.00
H121   H     0.51984   0.37464   0.43559   0.00000  Uiso   1.00
H122   H     0.15392   0.40621   0.80330   0.00000  Uiso   1.00
H123   H     0.56031   0.34700   0.84423   0.00000  Uiso   1.00
H124   H     0.64042   0.46780   0.91589   0.00000  Uiso   1.00
H125   H     0.61339   0.27129   0.72802   0.00000  Uiso   1.00
H126   H     0.43986   0.28626   0.90240   0.00000  Uiso   1.00
H127   H     0.70919   0.62637   0.97378   0.00000  Uiso   1.00
H128   H     0.65218   0.21199   0.57765   0.00000  Uiso   1.00
H129   H     0.28626   0.24356   0.94536   0.00000  Uiso   1.00
O130   O     0.69294   0.79058   0.94688   0.00000  Uiso   1.00
O131   O     0.61814   0.24693   0.42717   0.00000  Uiso   1.00
O132   O     0.13806   0.28835   0.90960   0.00000  Uiso   1.00
N133   N     0.59699   0.73416   0.85533   0.00000  Uiso   1.00
N134   N     0.54370   0.34675   0.48497   0.00000  Uiso   1.00
N135   N     0.20159   0.37625   0.82873   0.00000  Uiso   1.00
N136   N     0.66820   0.64664   0.93177   0.00000  Uiso   1.00
N137   N     0.61491   0.25923   0.56141   0.00000  Uiso   1.00
N138   N     0.27280   0.28873   0.90518   0.00000  Uiso   1.00
C139   C     0.97227   0.47743   0.77190   0.00000  Uiso   1.00
C140   C     0.01173   0.41628   0.72056   0.00000  Uiso   1.00
C141   C     0.03227   0.33359   0.73938   0.00000  Uiso   1.00
C142   C     0.06787   0.28798   0.68455   0.00000  Uiso   1.00
C143   C     0.12696   0.18759   0.61566   0.00000  Uiso   1.00
C144   C     0.02547   0.55437   0.78236   0.00000  Uiso   1.00
C145   C     0.05756   0.58779   0.85315   0.00000  Uiso   1.00
C146   C     0.10472   0.65843   0.85033   0.00000  Uiso   1.00
C147   C     0.18510   0.77246   0.87739   0.00000  Uiso   1.00
C148   C     0.89791   0.50691   0.72310   0.00000  Uiso   1.00
C149   C     0.82274   0.50043   0.74407   0.00000  Uiso   1.00
C150   C     0.76250   0.53113   0.69137   0.00000  Uiso   1.00
C151   C     0.64483   0.57146   0.62643   0.00000  Uiso   1.00
C152   C     0.99895   0.54349   0.64103   0.00000  Uiso   1.00
C153   C     0.02622   0.45217   0.64948   0.00000  Uiso   1.00
C154   C     0.06179   0.40667   0.59459   0.00000  Uiso   1.00
C155   C     0.08238   0.32392   0.61333   0.00000  Uiso   1.00
C156   C     0.03996   0.59025   0.71128   0.00000  Uiso   1.00
C157   C     0.08707   0.66087   0.70836   0.00000  Uiso   1.00
C158   C     0.11923   0.69438   0.77912   0.00000  Uiso   1.00
C159   C     0.91239   0.54279   0.65202   0.00000  Uiso   1.00
C160   C     0.85226   0.57351   0.59928   0.00000  Uiso   1.00
C161   C     0.77702   0.56707   0.62016   0.00000  Uiso   1.00
H162   H     0.96099   0.44950   0.82724   0.00000  Uiso   1.00
H163   H     0.02106   0.30585   0.79440   0.00000  Uiso   1.00
H164   H     0.04633   0.56001   0.90814   0.00000  Uiso   1.00
H165   H     0.81156   0.47266   0.79908   0.00000  Uiso   1.00
H166   H     0.09406   0.16241   0.72666   0.00000  Uiso   1.00
H167   H     0.14734   0.69835   0.96649   0.00000  Uiso   1.00
H168   H     0.65226   0.51415   0.73652   0.00000  Uiso   1.00
H169   H     0.01023   0.57143   0.58569   0.00000  Uiso   1.00
H170   H     0.07299   0.43446   0.53959   0.00000  Uiso   1.00
H171   H     0.09827   0.68862   0.65334   0.00000  Uiso   1.00
H172   H     0.86349   0.60127   0.54428   0.00000  Uiso   1.00
H173   H     0.13622   0.26680   0.51985   0.00000  Uiso   1.00
H174   H     0.18949   0.80274   0.75968   0.00000  Uiso   1.00
H175   H     0.69442   0.61854   0.52971   0.00000  Uiso   1.00
O176   O     0.15557   0.12231   0.59730   0.00000  Uiso   1.00
O177   O     0.22544   0.82544   0.91195   0.00000  Uiso   1.00
O178   O     0.57592   0.58378   0.61023   0.00000  Uiso   1.00
N179   N     0.09536   0.20577   0.68431   0.00000  Uiso   1.00
N180   N     0.14517   0.70683   0.90854   0.00000  Uiso   1.00
N181   N     0.68232   0.53465   0.69354   0.00000  Uiso   1.00
N182   N     0.11804   0.26194   0.57302   0.00000  Uiso   1.00
N183   N     0.16786   0.76300   0.79725   0.00000  Uiso   1.00
N184   N     0.70501   0.59081   0.58226   0.00000  Uiso   1.00
C185   C     0.44116   0.00655   0.21632   0.00000  Uiso   1.00
C186   C     0.50150   0.96160   0.27332   0.00000  Uiso   1.00
C187   C     0.51257   0.87505   0.27865   0.00000  Uiso   1.00
C188   C     0.57082   0.84635   0.33461   0.00000  Uiso   1.00
C189   C     0.65762   0.76805   0.41567   0.00000  Uiso   1.00
C190   C     0.48682   0.06836   0.17124   0.00000  Uiso   1.00
C191   C     0.48555   0.07159   0.09076   0.00000  Uiso   1.00
C192   C     0.53144   0.13277   0.06079   0.00000  Uiso   1.00
C193   C     0.59541   0.22026   0.98337   0.00000  Uiso   1.00
C194   C     0.39254   0.06022   0.26599   0.00000  Uiso   1.00
C195   C     0.31199   0.05662   0.26516   0.00000  Uiso   1.00
C196   C     0.27849   0.11096   0.31495   0.00000  Uiso   1.00
C197   C     0.19608   0.18581   0.38464   0.00000  Uiso   1.00
C198   C     0.52490   0.10947   0.30621   0.00000  Uiso   1.00
C199   C     0.54698   0.01751   0.32214   0.00000  Uiso   1.00
C200   C     0.60523   0.98893   0.37811   0.00000  Uiso   1.00
C201   C     0.61638   0.90235   0.38353   0.00000  Uiso   1.00
C202   C     0.53231   0.12427   0.22007   0.00000  Uiso   1.00
C203   C     0.57820   0.18546   0.19022   0.00000  Uiso   1.00
C204   C     0.57700   0.18878   0.10971   0.00000  Uiso   1.00
C205   C     0.43802   0.11612   0.31482   0.00000  Uiso   1.00
C206   C     0.40464   0.17049   0.36462   0.00000  Uiso   1.00
C207   C     0.32406   0.16697   0.36387   0.00000  Uiso   1.00
H208   H     0.40574   0.96303   0.17830   0.00000  Uiso   1.00
H209   H     0.47737   0.83181   0.24085   0.00000  Uiso   1.00
H210   H     0.45034   0.02832   0.05298   0.00000  Uiso   1.00
H211   H     0.27681   0.01335   0.22737   0.00000  Uiso   1.00
H212   H     0.57685   0.71099   0.33171   0.00000  Uiso   1.00
H213   H     0.51984   0.12536   0.93559   0.00000  Uiso   1.00
H214   H     0.15392   0.09379   0.30330   0.00000  Uiso   1.00
H215   H     0.56031   0.15300   0.34423   0.00000  Uiso   1.00
H216   H     0.64042   0.03220   0.41589   0.00000  Uiso   1.00
H217   H     0.61339   0.22871   0.22802   0.00000  Uiso   1.00
H218   H     0.43986   0.21374   0.40240   0.00000  Uiso   1.00
H219   H     0.70919   0.87363   0.47378   0.00000  Uiso   1.00
H220   H     0.65218   0.28801   0.07765   0.00000  Uiso   1.00
H221   H     0.28626   0.25644   0.44536   0.00000  Uiso   1.00
O222   O     0.69294   0.70942   0.44688   0.00000  Uiso   1.00
O223   O     0.61814   0.25307   0.92717   0.00000  Uiso   1.00
O224   O     0.13806   0.21165   0.40960   0.00000  Uiso   1.00
N225   N     0.59699   0.76584   0.35533   0.00000  Uiso   1.00
N226   N     0.54370   0.15325   0.98497   0.00000  Uiso   1.00
N227   N     0.20159   0.12375   0.32873   0.00000  Uiso   1.00
N228   N     0.66820   0.85336   0.43177   0.00000  Uiso   1.00
N229   N     0.61491   0.24077   0.06141   0.00000  Uiso   1.00
N230   N     0.27280   0.21127   0.40518   0.00000  Uiso   1.00
C231   C     0.97227   0.02257   0.27190   0.00000  Uiso   1.00
C232   C     0.01173   0.08372   0.22056   0.00000  Uiso   1.00
C233   C     0.03227   0.16641   0.23938   0.00000  Uiso   1.00
C234   C     0.06787   0.21202   0.18455   0.00000  Uiso   1.00
C235   C     0.12696   0.31241   0.11566   0.00000  Uiso   1.00
C236   C     0.02547   0.94563   0.28236   0.00000  Uiso   1.00
C237   C     0.05756   0.91221   0.35315   0.00000  Uiso   1.00
C238   C     0.10472   0.84157   0.35033   0.00000  Uiso   1.00
C239   C     0.18510   0.72754   0.37739   0.00000  Uiso   1.00
C240   C     0.89791   0.99309   0.22310   0.00000  Uiso   1.00
C241   C     0.82274   0.99957   0.24407   0.00000  Uiso   1.00
C242   C     0.76250   0.96887   0.19137   0.00000  Uiso   1.00
C243   C     0.64483   0.92854   0.12643   0.00000  Uiso   1.00
C244   C     0.99895   0.95651   0.14103   0.00000  Uiso   1.00
C245   C     0.02622   0.04783   0.14948   0.00000  Uiso   1.00
C246   C     0.06179   0.09333   0.09459   0.00000  Uiso   1.00
C247   C     0.08238   0.17608   0.11333   0.00000  Uiso   1.00
C248   C     0.03996   0.90975   0.21128   0.00000  Uiso   1.00
C249   C     0.08707   0.83913   0.20836   0.00000  Uiso   1.00
C250   C     0.11923   0.80562   0.27912   0.00000  Uiso   1.00
C251   C     0.91239   0.95721   0.15202   0.00000  Uiso   1.00
C252   C     0.85226   0.92649   0.09928   0.00000  Uiso   1.00
C253   C     0.77702   0.93293   0.12016   0.00000  Uiso   1.00
H254   H     0.96099   0.05050   0.32724   0.00000  Uiso   1.00
H255   H     0.02106   0.19415   0.29440   0.00000  Uiso   1.00
H256   H     0.04633   0.93999   0.40814   0.00000  Uiso   1.00
H257   H     0.81156   0.02734   0.29908   0.00000  Uiso   1.00
H258   H     0.09406   0.33759   0.22666   0.00000  Uiso   1.00
H259   H     0.14734   0.80165   0.46649   0.00000  Uiso   1.00
H260   H     0.65226   0.98585   0.23652   0.00000  Uiso   1.00
H261   H     0.01023   0.92857   0.08569   0.00000  Uiso   1.00
H262   H     0.07299   0.06554   0.03959   0.00000  Uiso   1.00
H263   H     0.09827   0.81138   0.15334   0.00000  Uiso   1.00
H264   H     0.86349   0.89873   0.04428   0.00000  Uiso   1.00
H265   H     0.13622   0.23320   0.01985   0.00000  Uiso   1.00
H266   H     0.18949   0.69726   0.25968   0.00000  Uiso   1.00
H267   H     0.69442   0.88146   0.02971   0.00000  Uiso   1.00
O268   O     0.15557   0.37769   0.09730   0.00000  Uiso   1.00
O269   O     0.22544   0.67456   0.41195   0.00000  Uiso   1.00
O270   O     0.57592   0.91622   0.11023   0.00000  Uiso   1.00
N271   N     0.09536   0.29423   0.18431   0.00000  Uiso   1.00
N272   N     0.14517   0.79317   0.40854   0.00000  Uiso   1.00
N273   N     0.68232   0.96535   0.19354   0.00000  Uiso   1.00
N274   N     0.11804   0.23806   0.07302   0.00000  Uiso   1.00
N275   N     0.16786   0.73700   0.29725   0.00000  Uiso   1.00
N276   N     0.70501   0.90919   0.08226   0.00000  Uiso   1.00
C277   C     0.55884   0.50655   0.28368   0.00000  Uiso   1.00
C278   C     0.49850   0.46160   0.22668   0.00000  Uiso   1.00
C279   C     0.48743   0.37505   0.22135   0.00000  Uiso   1.00
C280   C     0.42918   0.34635   0.16539   0.00000  Uiso   1.00
C281   C     0.34238   0.26805   0.08433   0.00000  Uiso   1.00
C282   C     0.51318   0.56836   0.32876   0.00000  Uiso   1.00
C283   C     0.51445   0.57159   0.40924   0.00000  Uiso   1.00
C284   C     0.46856   0.63277   0.43921   0.00000  Uiso   1.00
C285   C     0.40459   0.72026   0.51663   0.00000  Uiso   1.00
C286   C     0.60746   0.56022   0.23401   0.00000  Uiso   1.00
C287   C     0.68801   0.55662   0.23484   0.00000  Uiso   1.00
C288   C     0.72151   0.61096   0.18505   0.00000  Uiso   1.00
C289   C     0.80392   0.68581   0.11536   0.00000  Uiso   1.00
C290   C     0.47510   0.60947   0.19379   0.00000  Uiso   1.00
C291   C     0.45302   0.51751   0.17786   0.00000  Uiso   1.00
C292   C     0.39477   0.48893   0.12189   0.00000  Uiso   1.00
C293   C     0.38362   0.40235   0.11647   0.00000  Uiso   1.00
C294   C     0.46769   0.62427   0.27993   0.00000  Uiso   1.00
C295   C     0.42180   0.68546   0.30978   0.00000  Uiso   1.00
C296   C     0.42300   0.68878   0.39029   0.00000  Uiso   1.00
C297   C     0.56198   0.61612   0.18518   0.00000  Uiso   1.00
C298   C     0.59536   0.67049   0.13538   0.00000  Uiso   1.00
C299   C     0.67594   0.66697   0.13613   0.00000  Uiso   1.00
H300   H     0.59426   0.46303   0.32170   0.00000  Uiso   1.00
H301   H     0.52263   0.33181   0.25915   0.00000  Uiso   1.00
H302   H     0.54966   0.52832   0.44702   0.00000  Uiso   1.00
H303   H     0.72319   0.51335   0.27263   0.00000  Uiso   1.00
H304   H     0.42315   0.21099   0.16829   0.00000  Uiso   1.00
H305   H     0.48016   0.62536   0.56441   0.00000  Uiso   1.00
H306   H     0.84608   0.59379   0.19670   0.00000  Uiso   1.00
H307   H     0.43969   0.65300   0.15577   0.00000  Uiso   1.00
H308   H     0.35958   0.53220   0.08411   0.00000  Uiso   1.00
H309   H     0.38661   0.72871   0.27198   0.00000  Uiso   1.00
H310   H     0.56014   0.71374   0.09760   0.00000  Uiso   1.00
H311   H     0.29081   0.37363   0.02622   0.00000  Uiso   1.00
H312   H     0.34782   0.78801   0.42235   0.00000  Uiso   1.00
H313   H     0.71374   0.75644   0.05464   0.00000  Uiso   1.00
O314   O     0.30706   0.20942   0.05312   0.00000  Uiso   1.00
O315   O     0.38186   0.75307   0.57283   0.00000  Uiso   1.00
O316   O     0.86194   0.71165   0.09040   0.00000  Uiso   1.00
N317   N     0.40301   0.26584   0.14467   0.00000  Uiso   1.00
N318   N     0.45630   0.65325   0.51503   0.00000  Uiso   1.00
N319   N     0.79841   0.62375   0.17127   0.00000  Uiso   1.00
N320   N     0.33180   0.35336   0.06823   0.00000  Uiso   1.00
N321   N     0.38509   0.74077   0.43859   0.00000  Uiso   1.00
N322   N     0.72720   0.71127   0.09482   0.00000  Uiso   1.00
C323   C     0.02773   0.52257   0.22810   0.00000  Uiso   1.00
C324   C     0.98827   0.58372   0.27944   0.00000  Uiso   1.00
C325   C     0.96773   0.66641   0.26062   0.00000  Uiso   1.00
C326   C     0.93213   0.71202   0.31545   0.00000  Uiso   1.00
C327   C     0.87304   0.81241   0.38434   0.00000  Uiso   1.00
C328   C     0.97453   0.44563   0.21764   0.00000  Uiso   1.00
C329   C     0.94244   0.41221   0.14685   0.00000  Uiso   1.00
C330   C     0.89528   0.34157   0.14967   0.00000  Uiso   1.00
C331   C     0.81490   0.22754   0.12261   0.00000  Uiso   1.00
C332   C     0.10209   0.49309   0.27690   0.00000  Uiso   1.00
C333   C     0.17726   0.49957   0.25593   0.00000  Uiso   1.00
C334   C     0.23750   0.46887   0.30863   0.00000  Uiso   1.00
C335   C     0.35517   0.42854   0.37357   0.00000  Uiso   1.00
C336   C     0.00105   0.45651   0.35897   0.00000  Uiso   1.00
C337   C     0.97378   0.54783   0.35052   0.00000  Uiso   1.00
C338   C     0.93821   0.59333   0.40541   0.00000  Uiso   1.00
C339   C     0.91762   0.67608   0.38667   0.00000  Uiso   1.00
C340   C     0.96004   0.40975   0.28872   0.00000  Uiso   1.00
C341   C     0.91293   0.33913   0.29164   0.00000  Uiso   1.00
C342   C     0.88077   0.30562   0.22088   0.00000  Uiso   1.00
C343   C     0.08761   0.45721   0.34798   0.00000  Uiso   1.00
C344   C     0.14774   0.42649   0.40072   0.00000  Uiso   1.00
C345   C     0.22298   0.43293   0.37984   0.00000  Uiso   1.00
H346   H     0.03901   0.55050   0.17276   0.00000  Uiso   1.00
H347   H     0.97894   0.69415   0.20560   0.00000  Uiso   1.00
H348   H     0.95367   0.43999   0.09186   0.00000  Uiso   1.00
H349   H     0.18844   0.52734   0.20092   0.00000  Uiso   1.00
H350   H     0.90594   0.83759   0.27334   0.00000  Uiso   1.00
H351   H     0.85266   0.30165   0.03351   0.00000  Uiso   1.00
H352   H     0.34774   0.48585   0.26348   0.00000  Uiso   1.00
H353   H     0.98977   0.42857   0.41431   0.00000  Uiso   1.00
H354   H     0.92701   0.56554   0.46041   0.00000  Uiso   1.00
H355   H     0.90173   0.31138   0.34666   0.00000  Uiso   1.00
H356   H     0.13651   0.39873   0.45572   0.00000  Uiso   1.00
H357   H     0.86378   0.73320   0.48015   0.00000  Uiso   1.00
H358   H     0.81051   0.19726   0.24032   0.00000  Uiso   1.00
H359   H     0.30558   0.38146   0.47029   0.00000  Uiso   1.00
O360   O     0.84443   0.87769   0.40270   0.00000  Uiso   1.00
O361   O     0.77456   0.17456   0.08805   0.00000  Uiso   1.00
O362   O     0.42408   0.41622   0.38977   0.00000  Uiso   1.00
N363   N     0.90464   0.79423   0.31569   0.00000  Uiso   1.00
N364   N     0.85483   0.29317   0.09146   0.00000  Uiso   1.00
N365   N     0.31768   0.46535   0.30646   0.00000  Uiso   1.00
N366   N     0.88196   0.73806   0.42698   0.00000  Uiso   1.00
N367   N     0.83214   0.23700   0.20275   0.00000  Uiso   1.00
N368   N     0.29499   0.40919   0.41774   0.00000  Uiso   1.00
