data_job_05083
_audit_creation_date              2018-12-19
_audit_creation_method            'Materials Studio'
_symmetry_space_group_name_H-M    'P1'
_symmetry_Int_Tables_number       1
_symmetry_cell_setting            triclinic
loop_
_symmetry_equiv_pos_as_xyz
  x,y,z
_cell_length_a                    15.6523
_cell_length_b                    12.5057
_cell_length_c                    13.2813
_cell_angle_alpha                 90.0000
_cell_angle_beta                  96.7756
_cell_angle_gamma                 90.0000
loop_
_atom_site_label
_atom_site_type_symbol
_atom_site_fract_x
_atom_site_fract_y
_atom_site_fract_z
_atom_site_U_iso_or_equiv
_atom_site_adp_type
_atom_site_occupancy
C1     C     0.75391   0.10007   0.40583   0.00000  Uiso   1.00
C2     C     0.71923   0.01617   0.32824   0.00000  Uiso   1.00
C3     C     0.68431   0.91808   0.35017   0.00000  Uiso   1.00
C4     C     0.65621   0.85259   0.26852   0.00000  Uiso   1.00
C5     C     0.60139   0.71749   0.16325   0.00000  Uiso   1.00
C6     C     0.84654   0.12131   0.38657   0.00000  Uiso   1.00
C7     C     0.91865   0.11164   0.45755   0.00000  Uiso   1.00
C8     C     0.99771   0.13468   0.42499   0.00000  Uiso   1.00
C9     C     0.14054   0.16289   0.41031   0.00000  Uiso   1.00
C10    C     0.70433   0.20257   0.37657   0.00000  Uiso   1.00
C11    C     0.65689   0.26125   0.43914   0.00000  Uiso   1.00
C12    C     0.61624   0.35272   0.39817   0.00000  Uiso   1.00
C13    C     0.53826   0.50710   0.36795   0.00000  Uiso   1.00
C14    C     0.76611   0.15821   0.22182   0.00000  Uiso   1.00
C15    C     0.72586   0.04775   0.22830   0.00000  Uiso   1.00
C16    C     0.69780   0.98240   0.14658   0.00000  Uiso   1.00
C17    C     0.66284   0.88423   0.16839   0.00000  Uiso   1.00
C18    C     0.85316   0.15289   0.28663   0.00000  Uiso   1.00
C19    C     0.93214   0.17596   0.25396   0.00000  Uiso   1.00
C20    C     0.00435   0.16631   0.32487   0.00000  Uiso   1.00
C21    C     0.71095   0.23415   0.27662   0.00000  Uiso   1.00
C22    C     0.67038   0.32556   0.23555   0.00000  Uiso   1.00
C23    C     0.62288   0.38436   0.29804   0.00000  Uiso   1.00
H24    H     0.74876   0.07549   0.48364   0.00000  Uiso   1.00
H25    H     0.67920   0.89367   0.42753   0.00000  Uiso   1.00
H26    H     0.91350   0.08721   0.53489   0.00000  Uiso   1.00
H27    H     0.65178   0.23679   0.51648   0.00000  Uiso   1.00
H28    H     0.60503   0.70599   0.32125   0.00000  Uiso   1.00
H29    H     0.09906   0.11412   0.54763   0.00000  Uiso   1.00
H30    H     0.54717   0.42954   0.50881   0.00000  Uiso   1.00
H31    H     0.77127   0.18279   0.14400   0.00000  Uiso   1.00
H32    H     0.70294   0.00685   0.06925   0.00000  Uiso   1.00
H33    H     0.93724   0.20040   0.17661   0.00000  Uiso   1.00
H34    H     0.67552   0.34997   0.15820   0.00000  Uiso   1.00
H35    H     0.62430   0.79785   0.03045   0.00000  Uiso   1.00
H36    H     0.11833   0.20599   0.25684   0.00000  Uiso   1.00
H37    H     0.56644   0.52140   0.21802   0.00000  Uiso   1.00
O38    O     0.56934   0.63423   0.13280   0.00000  Uiso   1.00
O39    O     0.21749   0.16971   0.42982   0.00000  Uiso   1.00
O40    O     0.49341   0.58352   0.37889   0.00000  Uiso   1.00
N41    N     0.61893   0.75176   0.26306   0.00000  Uiso   1.00
N42    N     0.08082   0.13333   0.47472   0.00000  Uiso   1.00
N43    N     0.56487   0.42823   0.43843   0.00000  Uiso   1.00
N44    N     0.62930   0.80120   0.10659   0.00000  Uiso   1.00
N45    N     0.09119   0.18276   0.31824   0.00000  Uiso   1.00
N46    N     0.57523   0.47766   0.28196   0.00000  Uiso   1.00
C47    C     0.24609   0.60007   0.09417   0.00000  Uiso   1.00
C48    C     0.28077   0.51617   0.17176   0.00000  Uiso   1.00
C49    C     0.31569   0.41808   0.14983   0.00000  Uiso   1.00
C50    C     0.34379   0.35259   0.23148   0.00000  Uiso   1.00
C51    C     0.39861   0.21749   0.33675   0.00000  Uiso   1.00
C52    C     0.15346   0.62131   0.11343   0.00000  Uiso   1.00
C53    C     0.08135   0.61164   0.04245   0.00000  Uiso   1.00
C54    C     0.00229   0.63468   0.07501   0.00000  Uiso   1.00
C55    C     0.85946   0.66289   0.08969   0.00000  Uiso   1.00
C56    C     0.29567   0.70257   0.12343   0.00000  Uiso   1.00
C57    C     0.34311   0.76125   0.06086   0.00000  Uiso   1.00
C58    C     0.38376   0.85272   0.10183   0.00000  Uiso   1.00
C59    C     0.46174   0.00710   0.13205   0.00000  Uiso   1.00
C60    C     0.23389   0.65821   0.27818   0.00000  Uiso   1.00
C61    C     0.27414   0.54775   0.27170   0.00000  Uiso   1.00
C62    C     0.30220   0.48240   0.35342   0.00000  Uiso   1.00
C63    C     0.33716   0.38423   0.33161   0.00000  Uiso   1.00
C64    C     0.14684   0.65289   0.21337   0.00000  Uiso   1.00
C65    C     0.06786   0.67596   0.24604   0.00000  Uiso   1.00
C66    C     0.99565   0.66631   0.17513   0.00000  Uiso   1.00
C67    C     0.28905   0.73415   0.22338   0.00000  Uiso   1.00
C68    C     0.32962   0.82556   0.26445   0.00000  Uiso   1.00
C69    C     0.37712   0.88436   0.20196   0.00000  Uiso   1.00
H70    H     0.25124   0.57549   0.01636   0.00000  Uiso   1.00
H71    H     0.32080   0.39367   0.07247   0.00000  Uiso   1.00
H72    H     0.08650   0.58721   0.96511   0.00000  Uiso   1.00
H73    H     0.34822   0.73679   0.98352   0.00000  Uiso   1.00
H74    H     0.39497   0.20599   0.17875   0.00000  Uiso   1.00
H75    H     0.90094   0.61412   0.95237   0.00000  Uiso   1.00
H76    H     0.45283   0.92954   0.99119   0.00000  Uiso   1.00
H77    H     0.22873   0.68279   0.35600   0.00000  Uiso   1.00
H78    H     0.29706   0.50685   0.43075   0.00000  Uiso   1.00
H79    H     0.06276   0.70040   0.32339   0.00000  Uiso   1.00
H80    H     0.32448   0.84997   0.34180   0.00000  Uiso   1.00
H81    H     0.37570   0.29785   0.46955   0.00000  Uiso   1.00
H82    H     0.88167   0.70599   0.24316   0.00000  Uiso   1.00
H83    H     0.43356   0.02140   0.28198   0.00000  Uiso   1.00
O84    O     0.43066   0.13423   0.36720   0.00000  Uiso   1.00
O85    O     0.78251   0.66971   0.07018   0.00000  Uiso   1.00
O86    O     0.50659   0.08352   0.12111   0.00000  Uiso   1.00
N87    N     0.38107   0.25176   0.23694   0.00000  Uiso   1.00
N88    N     0.91918   0.63333   0.02528   0.00000  Uiso   1.00
N89    N     0.43513   0.92823   0.06157   0.00000  Uiso   1.00
N90    N     0.37070   0.30120   0.39341   0.00000  Uiso   1.00
N91    N     0.90881   0.68276   0.18176   0.00000  Uiso   1.00
N92    N     0.42477   0.97766   0.21804   0.00000  Uiso   1.00
C93    C     0.24609   0.89993   0.59417   0.00000  Uiso   1.00
C94    C     0.28077   0.98383   0.67176   0.00000  Uiso   1.00
C95    C     0.31569   0.08192   0.64983   0.00000  Uiso   1.00
C96    C     0.34379   0.14741   0.73148   0.00000  Uiso   1.00
C97    C     0.39861   0.28251   0.83675   0.00000  Uiso   1.00
C98    C     0.15346   0.87869   0.61343   0.00000  Uiso   1.00
C99    C     0.08135   0.88836   0.54245   0.00000  Uiso   1.00
C100   C     0.00229   0.86532   0.57501   0.00000  Uiso   1.00
C101   C     0.85946   0.83711   0.58969   0.00000  Uiso   1.00
C102   C     0.29567   0.79743   0.62343   0.00000  Uiso   1.00
C103   C     0.34311   0.73875   0.56086   0.00000  Uiso   1.00
C104   C     0.38376   0.64728   0.60183   0.00000  Uiso   1.00
C105   C     0.46174   0.49290   0.63205   0.00000  Uiso   1.00
C106   C     0.23389   0.84179   0.77818   0.00000  Uiso   1.00
C107   C     0.27414   0.95225   0.77170   0.00000  Uiso   1.00
C108   C     0.30220   0.01760   0.85342   0.00000  Uiso   1.00
C109   C     0.33716   0.11577   0.83161   0.00000  Uiso   1.00
C110   C     0.14684   0.84711   0.71337   0.00000  Uiso   1.00
C111   C     0.06786   0.82404   0.74604   0.00000  Uiso   1.00
C112   C     0.99565   0.83369   0.67513   0.00000  Uiso   1.00
C113   C     0.28905   0.76585   0.72338   0.00000  Uiso   1.00
C114   C     0.32962   0.67444   0.76445   0.00000  Uiso   1.00
C115   C     0.37712   0.61564   0.70196   0.00000  Uiso   1.00
H116   H     0.25124   0.92451   0.51636   0.00000  Uiso   1.00
H117   H     0.32080   0.10633   0.57247   0.00000  Uiso   1.00
H118   H     0.08650   0.91279   0.46511   0.00000  Uiso   1.00
H119   H     0.34822   0.76321   0.48352   0.00000  Uiso   1.00
H120   H     0.39497   0.29401   0.67875   0.00000  Uiso   1.00
H121   H     0.90094   0.88588   0.45237   0.00000  Uiso   1.00
H122   H     0.45283   0.57046   0.49119   0.00000  Uiso   1.00
H123   H     0.22873   0.81721   0.85600   0.00000  Uiso   1.00
H124   H     0.29706   0.99315   0.93075   0.00000  Uiso   1.00
H125   H     0.06276   0.79960   0.82339   0.00000  Uiso   1.00
H126   H     0.32448   0.65003   0.84180   0.00000  Uiso   1.00
H127   H     0.37570   0.20215   0.96955   0.00000  Uiso   1.00
H128   H     0.88167   0.79401   0.74316   0.00000  Uiso   1.00
H129   H     0.43356   0.47860   0.78198   0.00000  Uiso   1.00
O130   O     0.43066   0.36577   0.86720   0.00000  Uiso   1.00
O131   O     0.78251   0.83029   0.57018   0.00000  Uiso   1.00
O132   O     0.50659   0.41648   0.62111   0.00000  Uiso   1.00
N133   N     0.38107   0.24824   0.73694   0.00000  Uiso   1.00
N134   N     0.91918   0.86667   0.52528   0.00000  Uiso   1.00
N135   N     0.43513   0.57177   0.56157   0.00000  Uiso   1.00
N136   N     0.37070   0.19880   0.89341   0.00000  Uiso   1.00
N137   N     0.90881   0.81724   0.68176   0.00000  Uiso   1.00
N138   N     0.42477   0.52234   0.71804   0.00000  Uiso   1.00
C139   C     0.75391   0.39993   0.90583   0.00000  Uiso   1.00
C140   C     0.71923   0.48383   0.82824   0.00000  Uiso   1.00
C141   C     0.68431   0.58192   0.85017   0.00000  Uiso   1.00
C142   C     0.65621   0.64741   0.76852   0.00000  Uiso   1.00
C143   C     0.60139   0.78251   0.66325   0.00000  Uiso   1.00
C144   C     0.84654   0.37869   0.88657   0.00000  Uiso   1.00
C145   C     0.91865   0.38836   0.95755   0.00000  Uiso   1.00
C146   C     0.99771   0.36532   0.92499   0.00000  Uiso   1.00
C147   C     0.14054   0.33711   0.91031   0.00000  Uiso   1.00
C148   C     0.70433   0.29743   0.87657   0.00000  Uiso   1.00
C149   C     0.65689   0.23875   0.93914   0.00000  Uiso   1.00
C150   C     0.61624   0.14728   0.89817   0.00000  Uiso   1.00
C151   C     0.53826   0.99290   0.86795   0.00000  Uiso   1.00
C152   C     0.76611   0.34179   0.72182   0.00000  Uiso   1.00
C153   C     0.72586   0.45225   0.72830   0.00000  Uiso   1.00
C154   C     0.69780   0.51760   0.64658   0.00000  Uiso   1.00
C155   C     0.66284   0.61577   0.66839   0.00000  Uiso   1.00
C156   C     0.85316   0.34711   0.78663   0.00000  Uiso   1.00
C157   C     0.93214   0.32404   0.75396   0.00000  Uiso   1.00
C158   C     0.00435   0.33369   0.82487   0.00000  Uiso   1.00
C159   C     0.71095   0.26585   0.77662   0.00000  Uiso   1.00
C160   C     0.67038   0.17444   0.73555   0.00000  Uiso   1.00
C161   C     0.62288   0.11564   0.79804   0.00000  Uiso   1.00
H162   H     0.74876   0.42451   0.98364   0.00000  Uiso   1.00
H163   H     0.67920   0.60633   0.92753   0.00000  Uiso   1.00
H164   H     0.91350   0.41279   0.03489   0.00000  Uiso   1.00
H165   H     0.65178   0.26321   0.01648   0.00000  Uiso   1.00
H166   H     0.60503   0.79401   0.82125   0.00000  Uiso   1.00
H167   H     0.09906   0.38588   0.04763   0.00000  Uiso   1.00
H168   H     0.54717   0.07046   0.00881   0.00000  Uiso   1.00
H169   H     0.77127   0.31721   0.64400   0.00000  Uiso   1.00
H170   H     0.70294   0.49315   0.56925   0.00000  Uiso   1.00
H171   H     0.93724   0.29960   0.67661   0.00000  Uiso   1.00
H172   H     0.67552   0.15003   0.65820   0.00000  Uiso   1.00
H173   H     0.62430   0.70215   0.53045   0.00000  Uiso   1.00
H174   H     0.11833   0.29401   0.75684   0.00000  Uiso   1.00
H175   H     0.56644   0.97860   0.71802   0.00000  Uiso   1.00
O176   O     0.56934   0.86577   0.63280   0.00000  Uiso   1.00
O177   O     0.21749   0.33029   0.92982   0.00000  Uiso   1.00
O178   O     0.49341   0.91648   0.87889   0.00000  Uiso   1.00
N179   N     0.61893   0.74824   0.76306   0.00000  Uiso   1.00
N180   N     0.08082   0.36667   0.97472   0.00000  Uiso   1.00
N181   N     0.56487   0.07177   0.93843   0.00000  Uiso   1.00
N182   N     0.62930   0.69880   0.60659   0.00000  Uiso   1.00
N183   N     0.09119   0.31724   0.81824   0.00000  Uiso   1.00
N184   N     0.57523   0.02234   0.78196   0.00000  Uiso   1.00
