data_job_05112
_audit_creation_date              2018-12-19
_audit_creation_method            'Materials Studio'
_symmetry_space_group_name_H-M    'P1'
_symmetry_Int_Tables_number       1
_symmetry_cell_setting            triclinic
loop_
_symmetry_equiv_pos_as_xyz
  x,y,z
_cell_length_a                    9.0675
_cell_length_b                    24.5551
_cell_length_c                    17.0594
_cell_angle_alpha                 90.0000
_cell_angle_beta                  141.3847
_cell_angle_gamma                 90.0000
loop_
_atom_site_label
_atom_site_type_symbol
_atom_site_fract_x
_atom_site_fract_y
_atom_site_fract_z
_atom_site_U_iso_or_equiv
_atom_site_adp_type
_atom_site_occupancy
C1     C     0.51681   0.07972   0.65185   0.00000  Uiso   1.00
C2     C     0.65631   0.12815   0.67834   0.00000  Uiso   1.00
C3     C     0.81096   0.12704   0.67946   0.00000  Uiso   1.00
C4     C     0.92144   0.17565   0.70575   0.00000  Uiso   1.00
C5     C     0.14466   0.24355   0.74325   0.00000  Uiso   1.00
C6     C     0.58238   0.07478   0.76550   0.00000  Uiso   1.00
C7     C     0.67483   0.02878   0.83987   0.00000  Uiso   1.00
C8     C     0.72304   0.03246   0.93952   0.00000  Uiso   1.00
C9     C     0.83131   0.01748   0.11227   0.00000  Uiso   1.00
C10    C     0.25775   0.09676   0.54238   0.00000  Uiso   1.00
C11    C     0.07722   0.06923   0.42916   0.00000  Uiso   1.00
C12    C     0.85210   0.09142   0.34096   0.00000  Uiso   1.00
C13    C     0.45633   0.11056   0.16728   0.00000  Uiso   1.00
C14    C     0.43801   0.16804   0.69657   0.00000  Uiso   1.00
C15    C     0.61351   0.17613   0.70263   0.00000  Uiso   1.00
C16    C     0.72377   0.22476   0.72892   0.00000  Uiso   1.00
C17    C     0.87856   0.22371   0.73007   0.00000  Uiso   1.00
C18    C     0.53958   0.12275   0.78978   0.00000  Uiso   1.00
C19    C     0.58765   0.12650   0.88934   0.00000  Uiso   1.00
C20    C     0.68016   0.08052   0.96385   0.00000  Uiso   1.00
C21    C     0.21494   0.14473   0.56666   0.00000  Uiso   1.00
C22    C     0.99005   0.16696   0.47863   0.00000  Uiso   1.00
C23    C     0.80922   0.13948   0.36529   0.00000  Uiso   1.00
H24    H     0.55014   0.04237   0.63295   0.00000  Uiso   1.00
H25    H     0.84406   0.08990   0.66067   0.00000  Uiso   1.00
H26    H     0.70792   0.99166   0.82105   0.00000  Uiso   1.00
H27    H     0.11041   0.03211   0.41040   0.00000  Uiso   1.00
H28    H     0.15111   0.16375   0.70215   0.00000  Uiso   1.00
H29    H     0.86398   0.95659   0.04029   0.00000  Uiso   1.00
H30    H     0.60402   0.04189   0.17436   0.00000  Uiso   1.00
H31    H     0.40468   0.20539   0.71548   0.00000  Uiso   1.00
H32    H     0.69062   0.26187   0.74772   0.00000  Uiso   1.00
H33    H     0.55449   0.16363   0.90810   0.00000  Uiso   1.00
H34    H     0.95699   0.20408   0.49745   0.00000  Uiso   1.00
H35    H     0.02658   0.30333   0.77281   0.00000  Uiso   1.00
H36    H     0.73945   0.09617   0.11095   0.00000  Uiso   1.00
H37    H     0.47950   0.18147   0.24502   0.00000  Uiso   1.00
O38    O     0.27963   0.26775   0.75724   0.00000  Uiso   1.00
O39    O     0.90289   0.99596   0.20085   0.00000  Uiso   1.00
O40    O     0.24986   0.10788   0.06477   0.00000  Uiso   1.00
N41    N     0.08252   0.18886   0.71433   0.00000  Uiso   1.00
N42    N     0.81411   0.99517   0.03049   0.00000  Uiso   1.00
N43    N     0.63615   0.07492   0.22092   0.00000  Uiso   1.00
N44    N     0.01551   0.26396   0.75235   0.00000  Uiso   1.00
N45    N     0.74711   0.07028   0.06850   0.00000  Uiso   1.00
N46    N     0.56914   0.15002   0.25894   0.00000  Uiso   1.00
C47    C     0.48319   0.57972   0.84815   0.00000  Uiso   1.00
C48    C     0.34369   0.62815   0.82166   0.00000  Uiso   1.00
C49    C     0.18904   0.62704   0.82054   0.00000  Uiso   1.00
C50    C     0.07856   0.67565   0.79425   0.00000  Uiso   1.00
C51    C     0.85534   0.74355   0.75675   0.00000  Uiso   1.00
C52    C     0.41762   0.57478   0.73450   0.00000  Uiso   1.00
C53    C     0.32517   0.52878   0.66013   0.00000  Uiso   1.00
C54    C     0.27696   0.53246   0.56048   0.00000  Uiso   1.00
C55    C     0.16869   0.51748   0.38773   0.00000  Uiso   1.00
C56    C     0.74225   0.59676   0.95762   0.00000  Uiso   1.00
C57    C     0.92278   0.56923   0.07084   0.00000  Uiso   1.00
C58    C     0.14790   0.59142   0.15904   0.00000  Uiso   1.00
C59    C     0.54367   0.61056   0.33272   0.00000  Uiso   1.00
C60    C     0.56199   0.66804   0.80343   0.00000  Uiso   1.00
C61    C     0.38649   0.67613   0.79737   0.00000  Uiso   1.00
C62    C     0.27623   0.72476   0.77108   0.00000  Uiso   1.00
C63    C     0.12144   0.72371   0.76993   0.00000  Uiso   1.00
C64    C     0.46042   0.62275   0.71022   0.00000  Uiso   1.00
C65    C     0.41235   0.62650   0.61066   0.00000  Uiso   1.00
C66    C     0.31984   0.58052   0.53615   0.00000  Uiso   1.00
C67    C     0.78506   0.64473   0.93334   0.00000  Uiso   1.00
C68    C     0.00995   0.66696   0.02137   0.00000  Uiso   1.00
C69    C     0.19078   0.63948   0.13471   0.00000  Uiso   1.00
H70    H     0.44986   0.54237   0.86705   0.00000  Uiso   1.00
H71    H     0.15594   0.58990   0.83933   0.00000  Uiso   1.00
H72    H     0.29208   0.49166   0.67895   0.00000  Uiso   1.00
H73    H     0.88959   0.53211   0.08960   0.00000  Uiso   1.00
H74    H     0.84889   0.66375   0.79785   0.00000  Uiso   1.00
H75    H     0.13602   0.45659   0.45971   0.00000  Uiso   1.00
H76    H     0.39598   0.54189   0.32564   0.00000  Uiso   1.00
H77    H     0.59532   0.70539   0.78452   0.00000  Uiso   1.00
H78    H     0.30938   0.76187   0.75228   0.00000  Uiso   1.00
H79    H     0.44551   0.66363   0.59190   0.00000  Uiso   1.00
H80    H     0.04301   0.70408   0.00255   0.00000  Uiso   1.00
H81    H     0.97342   0.80333   0.72719   0.00000  Uiso   1.00
H82    H     0.26055   0.59617   0.38905   0.00000  Uiso   1.00
H83    H     0.52050   0.68147   0.25498   0.00000  Uiso   1.00
O84    O     0.72037   0.76775   0.74276   0.00000  Uiso   1.00
O85    O     0.09711   0.49596   0.29915   0.00000  Uiso   1.00
O86    O     0.75014   0.60788   0.43523   0.00000  Uiso   1.00
N87    N     0.91748   0.68886   0.78567   0.00000  Uiso   1.00
N88    N     0.18589   0.49517   0.46951   0.00000  Uiso   1.00
N89    N     0.36385   0.57492   0.27908   0.00000  Uiso   1.00
N90    N     0.98449   0.76396   0.74765   0.00000  Uiso   1.00
N91    N     0.25289   0.57028   0.43150   0.00000  Uiso   1.00
N92    N     0.43086   0.65002   0.24106   0.00000  Uiso   1.00
C93    C     0.48319   0.92028   0.34815   0.00000  Uiso   1.00
C94    C     0.34369   0.87185   0.32166   0.00000  Uiso   1.00
C95    C     0.18904   0.87296   0.32054   0.00000  Uiso   1.00
C96    C     0.07856   0.82435   0.29425   0.00000  Uiso   1.00
C97    C     0.85534   0.75645   0.25675   0.00000  Uiso   1.00
C98    C     0.41762   0.92522   0.23450   0.00000  Uiso   1.00
C99    C     0.32517   0.97122   0.16013   0.00000  Uiso   1.00
C100   C     0.27696   0.96754   0.06048   0.00000  Uiso   1.00
C101   C     0.16869   0.98252   0.88773   0.00000  Uiso   1.00
C102   C     0.74225   0.90324   0.45762   0.00000  Uiso   1.00
C103   C     0.92278   0.93077   0.57084   0.00000  Uiso   1.00
C104   C     0.14790   0.90858   0.65904   0.00000  Uiso   1.00
C105   C     0.54367   0.88944   0.83272   0.00000  Uiso   1.00
C106   C     0.56199   0.83196   0.30343   0.00000  Uiso   1.00
C107   C     0.38649   0.82387   0.29737   0.00000  Uiso   1.00
C108   C     0.27623   0.77524   0.27108   0.00000  Uiso   1.00
C109   C     0.12144   0.77629   0.26993   0.00000  Uiso   1.00
C110   C     0.46042   0.87725   0.21022   0.00000  Uiso   1.00
C111   C     0.41235   0.87350   0.11066   0.00000  Uiso   1.00
C112   C     0.31984   0.91948   0.03615   0.00000  Uiso   1.00
C113   C     0.78506   0.85527   0.43334   0.00000  Uiso   1.00
C114   C     0.00995   0.83304   0.52137   0.00000  Uiso   1.00
C115   C     0.19078   0.86052   0.63471   0.00000  Uiso   1.00
H116   H     0.44986   0.95763   0.36705   0.00000  Uiso   1.00
H117   H     0.15594   0.91010   0.33933   0.00000  Uiso   1.00
H118   H     0.29208   0.00834   0.17895   0.00000  Uiso   1.00
H119   H     0.88959   0.96789   0.58960   0.00000  Uiso   1.00
H120   H     0.84889   0.83625   0.29785   0.00000  Uiso   1.00
H121   H     0.13602   0.04341   0.95971   0.00000  Uiso   1.00
H122   H     0.39598   0.95811   0.82564   0.00000  Uiso   1.00
H123   H     0.59532   0.79461   0.28452   0.00000  Uiso   1.00
H124   H     0.30938   0.73813   0.25228   0.00000  Uiso   1.00
H125   H     0.44551   0.83637   0.09190   0.00000  Uiso   1.00
H126   H     0.04301   0.79592   0.50255   0.00000  Uiso   1.00
H127   H     0.97342   0.69667   0.22719   0.00000  Uiso   1.00
H128   H     0.26055   0.90383   0.88905   0.00000  Uiso   1.00
H129   H     0.52050   0.81853   0.75498   0.00000  Uiso   1.00
O130   O     0.72037   0.73225   0.24276   0.00000  Uiso   1.00
O131   O     0.09711   0.00404   0.79915   0.00000  Uiso   1.00
O132   O     0.75014   0.89212   0.93523   0.00000  Uiso   1.00
N133   N     0.91748   0.81114   0.28567   0.00000  Uiso   1.00
N134   N     0.18589   0.00483   0.96951   0.00000  Uiso   1.00
N135   N     0.36385   0.92508   0.77908   0.00000  Uiso   1.00
N136   N     0.98449   0.73604   0.24765   0.00000  Uiso   1.00
N137   N     0.25289   0.92972   0.93150   0.00000  Uiso   1.00
N138   N     0.43086   0.84998   0.74106   0.00000  Uiso   1.00
C139   C     0.51681   0.42028   0.15185   0.00000  Uiso   1.00
C140   C     0.65631   0.37185   0.17834   0.00000  Uiso   1.00
C141   C     0.81096   0.37296   0.17946   0.00000  Uiso   1.00
C142   C     0.92144   0.32435   0.20575   0.00000  Uiso   1.00
C143   C     0.14466   0.25645   0.24325   0.00000  Uiso   1.00
C144   C     0.58238   0.42522   0.26550   0.00000  Uiso   1.00
C145   C     0.67483   0.47122   0.33987   0.00000  Uiso   1.00
C146   C     0.72304   0.46754   0.43952   0.00000  Uiso   1.00
C147   C     0.83131   0.48252   0.61227   0.00000  Uiso   1.00
C148   C     0.25775   0.40324   0.04238   0.00000  Uiso   1.00
C149   C     0.07722   0.43077   0.92916   0.00000  Uiso   1.00
C150   C     0.85210   0.40858   0.84096   0.00000  Uiso   1.00
C151   C     0.45633   0.38944   0.66728   0.00000  Uiso   1.00
C152   C     0.43801   0.33196   0.19657   0.00000  Uiso   1.00
C153   C     0.61351   0.32387   0.20263   0.00000  Uiso   1.00
C154   C     0.72377   0.27524   0.22892   0.00000  Uiso   1.00
C155   C     0.87856   0.27629   0.23007   0.00000  Uiso   1.00
C156   C     0.53958   0.37725   0.28978   0.00000  Uiso   1.00
C157   C     0.58765   0.37350   0.38934   0.00000  Uiso   1.00
C158   C     0.68016   0.41948   0.46385   0.00000  Uiso   1.00
C159   C     0.21494   0.35527   0.06666   0.00000  Uiso   1.00
C160   C     0.99005   0.33304   0.97863   0.00000  Uiso   1.00
C161   C     0.80922   0.36052   0.86529   0.00000  Uiso   1.00
H162   H     0.55014   0.45763   0.13295   0.00000  Uiso   1.00
H163   H     0.84406   0.41010   0.16067   0.00000  Uiso   1.00
H164   H     0.70792   0.50834   0.32105   0.00000  Uiso   1.00
H165   H     0.11042   0.46789   0.91040   0.00000  Uiso   1.00
H166   H     0.15111   0.33625   0.20215   0.00000  Uiso   1.00
H167   H     0.86398   0.54341   0.54029   0.00000  Uiso   1.00
H168   H     0.60402   0.45811   0.67436   0.00000  Uiso   1.00
H169   H     0.40468   0.29461   0.21548   0.00000  Uiso   1.00
H170   H     0.69062   0.23813   0.24772   0.00000  Uiso   1.00
H171   H     0.55449   0.33637   0.40810   0.00000  Uiso   1.00
H172   H     0.95699   0.29592   0.99745   0.00000  Uiso   1.00
H173   H     0.02658   0.19667   0.27281   0.00000  Uiso   1.00
H174   H     0.73945   0.40383   0.61095   0.00000  Uiso   1.00
H175   H     0.47950   0.31853   0.74502   0.00000  Uiso   1.00
O176   O     0.27963   0.23225   0.25724   0.00000  Uiso   1.00
O177   O     0.90289   0.50404   0.70085   0.00000  Uiso   1.00
O178   O     0.24986   0.39212   0.56477   0.00000  Uiso   1.00
N179   N     0.08252   0.31114   0.21433   0.00000  Uiso   1.00
N180   N     0.81411   0.50483   0.53049   0.00000  Uiso   1.00
N181   N     0.63615   0.42508   0.72092   0.00000  Uiso   1.00
N182   N     0.01551   0.23604   0.25235   0.00000  Uiso   1.00
N183   N     0.74711   0.42972   0.56850   0.00000  Uiso   1.00
N184   N     0.56914   0.34998   0.75894   0.00000  Uiso   1.00
