data_job_00152
_audit_creation_date              2018-12-19
_audit_creation_method            'Materials Studio'
_symmetry_space_group_name_H-M    'P1'
_symmetry_Int_Tables_number       1
_symmetry_cell_setting            triclinic
loop_
_symmetry_equiv_pos_as_xyz
  x,y,z
_cell_length_a                    11.2445
_cell_length_b                    11.2467
_cell_length_c                    11.2486
_cell_angle_alpha                 111.0950
_cell_angle_beta                  68.8935
_cell_angle_gamma                 111.0677
loop_
_atom_site_label
_atom_site_type_symbol
_atom_site_fract_x
_atom_site_fract_y
_atom_site_fract_z
_atom_site_U_iso_or_equiv
_atom_site_adp_type
_atom_site_occupancy
C1     C     0.80982   0.19007   0.31000   0.00000  Uiso   1.00
C2     C     0.68975   0.23651   0.40737   0.00000  Uiso   1.00
C3     C     0.63667   0.22776   0.53697   0.00000  Uiso   1.00
C4     C     0.52663   0.27584   0.61001   0.00000  Uiso   1.00
C5     C     0.34859   0.33968   0.76954   0.00000  Uiso   1.00
C6     C     0.90707   0.31008   0.26357   0.00000  Uiso   1.00
C7     C     0.03671   0.36316   0.27226   0.00000  Uiso   1.00
C8     C     0.10961   0.47317   0.22422   0.00000  Uiso   1.00
C9     C     0.26899   0.65116   0.16042   0.00000  Uiso   1.00
C10    C     0.76340   0.09281   0.18999   0.00000  Uiso   1.00
C11    C     0.77227   0.96322   0.13680   0.00000  Uiso   1.00
C12    C     0.72424   0.89031   0.02679   0.00000  Uiso   1.00
C13    C     0.66054   0.73096   0.84876   0.00000  Uiso   1.00
C14    C     0.70877   0.29103   0.20921   0.00000  Uiso   1.00
C15    C     0.63487   0.29135   0.35262   0.00000  Uiso   1.00
C16    C     0.52488   0.33946   0.42547   0.00000  Uiso   1.00
C17    C     0.47164   0.33078   0.55517   0.00000  Uiso   1.00
C18    C     0.85219   0.36492   0.20883   0.00000  Uiso   1.00
C19    C     0.92491   0.47487   0.16075   0.00000  Uiso   1.00
C20    C     0.05463   0.52811   0.16938   0.00000  Uiso   1.00
C21    C     0.70851   0.14765   0.13525   0.00000  Uiso   1.00
C22    C     0.66046   0.07493   0.02530   0.00000  Uiso   1.00
C23    C     0.66926   0.94525   0.97195   0.00000  Uiso   1.00
H24    H     0.85256   0.14738   0.35261   0.00000  Uiso   1.00
H25    H     0.67919   0.18532   0.57931   0.00000  Uiso   1.00
H26    H     0.07916   0.32070   0.31462   0.00000  Uiso   1.00
H27    H     0.81475   0.92082   0.17918   0.00000  Uiso   1.00
H28    H     0.46280   0.25162   0.80651   0.00000  Uiso   1.00
H29    H     0.30619   0.53704   0.24836   0.00000  Uiso   1.00
H30    H     0.74863   0.69381   0.96277   0.00000  Uiso   1.00
H31    H     0.66604   0.33373   0.16659   0.00000  Uiso   1.00
H32    H     0.48242   0.38189   0.38308   0.00000  Uiso   1.00
H33    H     0.88241   0.51727   0.11839   0.00000  Uiso   1.00
H34    H     0.61800   0.11740   0.98296   0.00000  Uiso   1.00
H35    H     0.30311   0.41117   0.64725   0.00000  Uiso   1.00
H36    H     0.14650   0.69659   0.08909   0.00000  Uiso   1.00
H37    H     0.58894   0.85336   0.80351   0.00000  Uiso   1.00
O38    O     0.26556   0.35976   0.87267   0.00000  Uiso   1.00
O39    O     0.37206   0.73420   0.14037   0.00000  Uiso   1.00
O40    O     0.64055   0.62791   0.76569   0.00000  Uiso   1.00
N41    N     0.45040   0.28253   0.73931   0.00000  Uiso   1.00
N42    N     0.23891   0.54940   0.21749   0.00000  Uiso   1.00
N43    N     0.71767   0.76106   0.95047   0.00000  Uiso   1.00
N44    N     0.36447   0.36839   0.65361   0.00000  Uiso   1.00
N45    N     0.15298   0.63525   0.13180   0.00000  Uiso   1.00
N46    N     0.63174   0.84691   0.86477   0.00000  Uiso   1.00
C47    C     0.19018   0.80993   0.69000   0.00000  Uiso   1.00
C48    C     0.31025   0.76349   0.59263   0.00000  Uiso   1.00
C49    C     0.36333   0.77224   0.46303   0.00000  Uiso   1.00
C50    C     0.47337   0.72416   0.38999   0.00000  Uiso   1.00
C51    C     0.65141   0.66032   0.23046   0.00000  Uiso   1.00
C52    C     0.09293   0.68992   0.73643   0.00000  Uiso   1.00
C53    C     0.96329   0.63684   0.72774   0.00000  Uiso   1.00
C54    C     0.89039   0.52683   0.77578   0.00000  Uiso   1.00
C55    C     0.73101   0.34884   0.83958   0.00000  Uiso   1.00
C56    C     0.23660   0.90719   0.81001   0.00000  Uiso   1.00
C57    C     0.22773   0.03678   0.86320   0.00000  Uiso   1.00
C58    C     0.27576   0.10969   0.97321   0.00000  Uiso   1.00
C59    C     0.33946   0.26904   0.15124   0.00000  Uiso   1.00
C60    C     0.29123   0.70897   0.79079   0.00000  Uiso   1.00
C61    C     0.36513   0.70865   0.64738   0.00000  Uiso   1.00
C62    C     0.47512   0.66054   0.57453   0.00000  Uiso   1.00
C63    C     0.52836   0.66922   0.44483   0.00000  Uiso   1.00
C64    C     0.14781   0.63508   0.79117   0.00000  Uiso   1.00
C65    C     0.07509   0.52513   0.83925   0.00000  Uiso   1.00
C66    C     0.94537   0.47189   0.83062   0.00000  Uiso   1.00
C67    C     0.29149   0.85235   0.86475   0.00000  Uiso   1.00
C68    C     0.33954   0.92507   0.97470   0.00000  Uiso   1.00
C69    C     0.33074   0.05475   0.02805   0.00000  Uiso   1.00
H70    H     0.14744   0.85262   0.64739   0.00000  Uiso   1.00
H71    H     0.32081   0.81468   0.42069   0.00000  Uiso   1.00
H72    H     0.92084   0.67930   0.68538   0.00000  Uiso   1.00
H73    H     0.18525   0.07918   0.82082   0.00000  Uiso   1.00
H74    H     0.53720   0.74838   0.19349   0.00000  Uiso   1.00
H75    H     0.69381   0.46296   0.75164   0.00000  Uiso   1.00
H76    H     0.25137   0.30619   0.03723   0.00000  Uiso   1.00
H77    H     0.33396   0.66627   0.83341   0.00000  Uiso   1.00
H78    H     0.51758   0.61811   0.61692   0.00000  Uiso   1.00
H79    H     0.11759   0.48273   0.88161   0.00000  Uiso   1.00
H80    H     0.38200   0.88260   0.01704   0.00000  Uiso   1.00
H81    H     0.69689   0.58883   0.35275   0.00000  Uiso   1.00
H82    H     0.85350   0.30341   0.91091   0.00000  Uiso   1.00
H83    H     0.41106   0.14664   0.19649   0.00000  Uiso   1.00
O84    O     0.73444   0.64024   0.12733   0.00000  Uiso   1.00
O85    O     0.62794   0.26580   0.85963   0.00000  Uiso   1.00
O86    O     0.35945   0.37209   0.23431   0.00000  Uiso   1.00
N87    N     0.54960   0.71747   0.26069   0.00000  Uiso   1.00
N88    N     0.76109   0.45060   0.78251   0.00000  Uiso   1.00
N89    N     0.28233   0.23894   0.04953   0.00000  Uiso   1.00
N90    N     0.63553   0.63161   0.34639   0.00000  Uiso   1.00
N91    N     0.84702   0.36475   0.86820   0.00000  Uiso   1.00
N92    N     0.36826   0.15309   0.13523   0.00000  Uiso   1.00
