data_job_03623
_audit_creation_date              2018-12-19
_audit_creation_method            'Materials Studio'
_symmetry_space_group_name_H-M    'P1'
_symmetry_Int_Tables_number       1
_symmetry_cell_setting            triclinic
loop_
_symmetry_equiv_pos_as_xyz
  x,y,z
_cell_length_a                    21.1241
_cell_length_b                    13.5663
_cell_length_c                    27.4948
_cell_angle_alpha                 90.0000
_cell_angle_beta                  93.5033
_cell_angle_gamma                 90.0000
loop_
_atom_site_label
_atom_site_type_symbol
_atom_site_fract_x
_atom_site_fract_y
_atom_site_fract_z
_atom_site_U_iso_or_equiv
_atom_site_adp_type
_atom_site_occupancy
C1     C     0.49074   0.12161   0.66880   0.00000  Uiso   1.00
C2     C     0.55586   0.14526   0.65073   0.00000  Uiso   1.00
C3     C     0.61372   0.12092   0.67429   0.00000  Uiso   1.00
C4     C     0.66795   0.14913   0.65182   0.00000  Uiso   1.00
C5     C     0.76961   0.17818   0.63053   0.00000  Uiso   1.00
C6     C     0.45621   0.21997   0.67160   0.00000  Uiso   1.00
C7     C     0.43027   0.25844   0.71271   0.00000  Uiso   1.00
C8     C     0.40062   0.34954   0.70780   0.00000  Uiso   1.00
C9     C     0.34752   0.49454   0.71891   0.00000  Uiso   1.00
C10    C     0.45566   0.06362   0.62799   0.00000  Uiso   1.00
C11    C     0.42925   0.97063   0.63245   0.00000  Uiso   1.00
C12    C     0.39912   0.93010   0.59083   0.00000  Uiso   1.00
C13    C     0.34517   0.83233   0.53423   0.00000  Uiso   1.00
C14    C     0.48418   0.21500   0.58697   0.00000  Uiso   1.00
C15    C     0.55229   0.19599   0.60628   0.00000  Uiso   1.00
C16    C     0.60646   0.22424   0.58376   0.00000  Uiso   1.00
C17    C     0.66439   0.19994   0.60729   0.00000  Uiso   1.00
C18    C     0.45264   0.27069   0.62716   0.00000  Uiso   1.00
C19    C     0.42301   0.36176   0.62218   0.00000  Uiso   1.00
C20    C     0.39705   0.40035   0.66328   0.00000  Uiso   1.00
C21    C     0.45210   0.11434   0.58355   0.00000  Uiso   1.00
C22    C     0.42200   0.07395   0.54191   0.00000  Uiso   1.00
C23    C     0.39555   0.98091   0.54630   0.00000  Uiso   1.00
H24    H     0.49351   0.08213   0.70340   0.00000  Uiso   1.00
H25    H     0.61645   0.08167   0.70869   0.00000  Uiso   1.00
H26    H     0.43303   0.21916   0.74710   0.00000  Uiso   1.00
H27    H     0.43201   0.93140   0.66685   0.00000  Uiso   1.00
H28    H     0.75119   0.10357   0.69497   0.00000  Uiso   1.00
H29    H     0.36441   0.39346   0.77595   0.00000  Uiso   1.00
H30    H     0.36226   0.78665   0.60672   0.00000  Uiso   1.00
H31    H     0.48140   0.25449   0.55237   0.00000  Uiso   1.00
H32    H     0.60369   0.26349   0.54937   0.00000  Uiso   1.00
H33    H     0.42026   0.40098   0.58778   0.00000  Uiso   1.00
H34    H     0.41925   0.11322   0.50753   0.00000  Uiso   1.00
H35    H     0.74082   0.25115   0.56566   0.00000  Uiso   1.00
H36    H     0.35405   0.54103   0.64665   0.00000  Uiso   1.00
H37    H     0.35190   0.93422   0.47741   0.00000  Uiso   1.00
O38    O     0.82666   0.18020   0.63108   0.00000  Uiso   1.00
O39    O     0.31922   0.56051   0.73732   0.00000  Uiso   1.00
O40    O     0.31641   0.76439   0.51529   0.00000  Uiso   1.00
N41    N     0.73197   0.13705   0.66494   0.00000  Uiso   1.00
N42    N     0.37037   0.40809   0.74066   0.00000  Uiso   1.00
N43    N     0.36834   0.84078   0.58244   0.00000  Uiso   1.00
N44    N     0.72639   0.21646   0.59536   0.00000  Uiso   1.00
N45    N     0.36479   0.48749   0.67108   0.00000  Uiso   1.00
N46    N     0.36276   0.92019   0.51286   0.00000  Uiso   1.00
C47    C     0.99074   0.62161   0.66880   0.00000  Uiso   1.00
C48    C     0.05586   0.64526   0.65073   0.00000  Uiso   1.00
C49    C     0.11372   0.62092   0.67429   0.00000  Uiso   1.00
C50    C     0.16795   0.64913   0.65182   0.00000  Uiso   1.00
C51    C     0.26961   0.67818   0.63053   0.00000  Uiso   1.00
C52    C     0.95621   0.71997   0.67160   0.00000  Uiso   1.00
C53    C     0.93027   0.75844   0.71271   0.00000  Uiso   1.00
C54    C     0.90062   0.84954   0.70780   0.00000  Uiso   1.00
C55    C     0.84752   0.99454   0.71891   0.00000  Uiso   1.00
C56    C     0.95566   0.56362   0.62799   0.00000  Uiso   1.00
C57    C     0.92925   0.47063   0.63245   0.00000  Uiso   1.00
C58    C     0.89912   0.43010   0.59083   0.00000  Uiso   1.00
C59    C     0.84517   0.33233   0.53423   0.00000  Uiso   1.00
C60    C     0.98418   0.71500   0.58697   0.00000  Uiso   1.00
C61    C     0.05229   0.69599   0.60628   0.00000  Uiso   1.00
C62    C     0.10646   0.72424   0.58376   0.00000  Uiso   1.00
C63    C     0.16439   0.69994   0.60729   0.00000  Uiso   1.00
C64    C     0.95264   0.77069   0.62716   0.00000  Uiso   1.00
C65    C     0.92301   0.86176   0.62218   0.00000  Uiso   1.00
C66    C     0.89705   0.90035   0.66328   0.00000  Uiso   1.00
C67    C     0.95210   0.61434   0.58355   0.00000  Uiso   1.00
C68    C     0.92200   0.57395   0.54191   0.00000  Uiso   1.00
C69    C     0.89555   0.48091   0.54630   0.00000  Uiso   1.00
H70    H     0.99351   0.58213   0.70340   0.00000  Uiso   1.00
H71    H     0.11645   0.58167   0.70869   0.00000  Uiso   1.00
H72    H     0.93303   0.71916   0.74710   0.00000  Uiso   1.00
H73    H     0.93201   0.43140   0.66685   0.00000  Uiso   1.00
H74    H     0.25119   0.60357   0.69497   0.00000  Uiso   1.00
H75    H     0.86441   0.89346   0.77595   0.00000  Uiso   1.00
H76    H     0.86226   0.28665   0.60672   0.00000  Uiso   1.00
H77    H     0.98140   0.75449   0.55237   0.00000  Uiso   1.00
H78    H     0.10369   0.76349   0.54937   0.00000  Uiso   1.00
H79    H     0.92026   0.90098   0.58778   0.00000  Uiso   1.00
H80    H     0.91925   0.61322   0.50753   0.00000  Uiso   1.00
H81    H     0.24082   0.75115   0.56566   0.00000  Uiso   1.00
H82    H     0.85405   0.04103   0.64665   0.00000  Uiso   1.00
H83    H     0.85190   0.43422   0.47741   0.00000  Uiso   1.00
O84    O     0.32666   0.68020   0.63108   0.00000  Uiso   1.00
O85    O     0.81922   0.06051   0.73732   0.00000  Uiso   1.00
O86    O     0.81641   0.26439   0.51529   0.00000  Uiso   1.00
N87    N     0.23197   0.63705   0.66494   0.00000  Uiso   1.00
N88    N     0.87037   0.90809   0.74066   0.00000  Uiso   1.00
N89    N     0.86834   0.34078   0.58244   0.00000  Uiso   1.00
N90    N     0.22639   0.71646   0.59536   0.00000  Uiso   1.00
N91    N     0.86479   0.98749   0.67108   0.00000  Uiso   1.00
N92    N     0.86276   0.42019   0.51286   0.00000  Uiso   1.00
C93    C     0.50926   0.12161   0.83120   0.00000  Uiso   1.00
C94    C     0.44414   0.14526   0.84927   0.00000  Uiso   1.00
C95    C     0.38628   0.12092   0.82571   0.00000  Uiso   1.00
C96    C     0.33205   0.14913   0.84818   0.00000  Uiso   1.00
C97    C     0.23039   0.17818   0.86947   0.00000  Uiso   1.00
C98    C     0.54379   0.21997   0.82840   0.00000  Uiso   1.00
C99    C     0.56973   0.25844   0.78729   0.00000  Uiso   1.00
C100   C     0.59938   0.34954   0.79220   0.00000  Uiso   1.00
C101   C     0.65248   0.49454   0.78109   0.00000  Uiso   1.00
C102   C     0.54434   0.06362   0.87201   0.00000  Uiso   1.00
C103   C     0.57075   0.97063   0.86755   0.00000  Uiso   1.00
C104   C     0.60088   0.93010   0.90917   0.00000  Uiso   1.00
C105   C     0.65483   0.83233   0.96577   0.00000  Uiso   1.00
C106   C     0.51582   0.21500   0.91303   0.00000  Uiso   1.00
C107   C     0.44771   0.19599   0.89372   0.00000  Uiso   1.00
C108   C     0.39354   0.22424   0.91624   0.00000  Uiso   1.00
C109   C     0.33561   0.19994   0.89271   0.00000  Uiso   1.00
C110   C     0.54736   0.27069   0.87284   0.00000  Uiso   1.00
C111   C     0.57699   0.36176   0.87782   0.00000  Uiso   1.00
C112   C     0.60295   0.40035   0.83672   0.00000  Uiso   1.00
C113   C     0.54790   0.11434   0.91645   0.00000  Uiso   1.00
C114   C     0.57800   0.07395   0.95809   0.00000  Uiso   1.00
C115   C     0.60445   0.98091   0.95370   0.00000  Uiso   1.00
H116   H     0.50649   0.08213   0.79660   0.00000  Uiso   1.00
H117   H     0.38355   0.08167   0.79131   0.00000  Uiso   1.00
H118   H     0.56697   0.21916   0.75290   0.00000  Uiso   1.00
H119   H     0.56799   0.93140   0.83315   0.00000  Uiso   1.00
H120   H     0.24881   0.10357   0.80503   0.00000  Uiso   1.00
H121   H     0.63559   0.39346   0.72405   0.00000  Uiso   1.00
H122   H     0.63774   0.78665   0.89328   0.00000  Uiso   1.00
H123   H     0.51860   0.25449   0.94763   0.00000  Uiso   1.00
H124   H     0.39631   0.26349   0.95063   0.00000  Uiso   1.00
H125   H     0.57974   0.40098   0.91222   0.00000  Uiso   1.00
H126   H     0.58075   0.11322   0.99247   0.00000  Uiso   1.00
H127   H     0.25918   0.25115   0.93434   0.00000  Uiso   1.00
H128   H     0.64595   0.54103   0.85335   0.00000  Uiso   1.00
H129   H     0.64810   0.93422   0.02259   0.00000  Uiso   1.00
O130   O     0.17334   0.18020   0.86892   0.00000  Uiso   1.00
O131   O     0.68078   0.56051   0.76268   0.00000  Uiso   1.00
O132   O     0.68359   0.76439   0.98471   0.00000  Uiso   1.00
N133   N     0.26803   0.13705   0.83506   0.00000  Uiso   1.00
N134   N     0.62963   0.40809   0.75934   0.00000  Uiso   1.00
N135   N     0.63166   0.84078   0.91756   0.00000  Uiso   1.00
N136   N     0.27361   0.21646   0.90464   0.00000  Uiso   1.00
N137   N     0.63521   0.48749   0.82892   0.00000  Uiso   1.00
N138   N     0.63724   0.92019   0.98714   0.00000  Uiso   1.00
C139   C     0.00926   0.62161   0.83120   0.00000  Uiso   1.00
C140   C     0.94414   0.64526   0.84927   0.00000  Uiso   1.00
C141   C     0.88628   0.62092   0.82571   0.00000  Uiso   1.00
C142   C     0.83205   0.64913   0.84818   0.00000  Uiso   1.00
C143   C     0.73039   0.67818   0.86947   0.00000  Uiso   1.00
C144   C     0.04379   0.71997   0.82840   0.00000  Uiso   1.00
C145   C     0.06973   0.75844   0.78729   0.00000  Uiso   1.00
C146   C     0.09938   0.84954   0.79220   0.00000  Uiso   1.00
C147   C     0.15248   0.99454   0.78109   0.00000  Uiso   1.00
C148   C     0.04434   0.56362   0.87201   0.00000  Uiso   1.00
C149   C     0.07075   0.47063   0.86755   0.00000  Uiso   1.00
C150   C     0.10088   0.43010   0.90917   0.00000  Uiso   1.00
C151   C     0.15483   0.33233   0.96577   0.00000  Uiso   1.00
C152   C     0.01582   0.71500   0.91303   0.00000  Uiso   1.00
C153   C     0.94771   0.69599   0.89372   0.00000  Uiso   1.00
C154   C     0.89354   0.72424   0.91624   0.00000  Uiso   1.00
C155   C     0.83561   0.69994   0.89271   0.00000  Uiso   1.00
C156   C     0.04736   0.77069   0.87284   0.00000  Uiso   1.00
C157   C     0.07699   0.86176   0.87782   0.00000  Uiso   1.00
C158   C     0.10295   0.90035   0.83672   0.00000  Uiso   1.00
C159   C     0.04790   0.61434   0.91645   0.00000  Uiso   1.00
C160   C     0.07800   0.57395   0.95809   0.00000  Uiso   1.00
C161   C     0.10445   0.48091   0.95370   0.00000  Uiso   1.00
H162   H     0.00649   0.58213   0.79660   0.00000  Uiso   1.00
H163   H     0.88355   0.58167   0.79131   0.00000  Uiso   1.00
H164   H     0.06697   0.71916   0.75290   0.00000  Uiso   1.00
H165   H     0.06799   0.43140   0.83315   0.00000  Uiso   1.00
H166   H     0.74881   0.60357   0.80503   0.00000  Uiso   1.00
H167   H     0.13559   0.89346   0.72405   0.00000  Uiso   1.00
H168   H     0.13774   0.28665   0.89328   0.00000  Uiso   1.00
H169   H     0.01860   0.75449   0.94763   0.00000  Uiso   1.00
H170   H     0.89631   0.76349   0.95063   0.00000  Uiso   1.00
H171   H     0.07974   0.90098   0.91222   0.00000  Uiso   1.00
H172   H     0.08075   0.61322   0.99247   0.00000  Uiso   1.00
H173   H     0.75918   0.75115   0.93434   0.00000  Uiso   1.00
H174   H     0.14595   0.04103   0.85335   0.00000  Uiso   1.00
H175   H     0.14810   0.43422   0.02259   0.00000  Uiso   1.00
O176   O     0.67334   0.68020   0.86892   0.00000  Uiso   1.00
O177   O     0.18078   0.06051   0.76268   0.00000  Uiso   1.00
O178   O     0.18359   0.26439   0.98471   0.00000  Uiso   1.00
N179   N     0.76803   0.63705   0.83506   0.00000  Uiso   1.00
N180   N     0.12963   0.90809   0.75934   0.00000  Uiso   1.00
N181   N     0.13166   0.34078   0.91756   0.00000  Uiso   1.00
N182   N     0.77361   0.71646   0.90464   0.00000  Uiso   1.00
N183   N     0.13521   0.98749   0.82892   0.00000  Uiso   1.00
N184   N     0.13724   0.42019   0.98714   0.00000  Uiso   1.00
C185   C     0.50926   0.87839   0.33120   0.00000  Uiso   1.00
C186   C     0.44414   0.85474   0.34927   0.00000  Uiso   1.00
C187   C     0.38628   0.87908   0.32571   0.00000  Uiso   1.00
C188   C     0.33205   0.85087   0.34818   0.00000  Uiso   1.00
C189   C     0.23039   0.82182   0.36947   0.00000  Uiso   1.00
C190   C     0.54379   0.78003   0.32840   0.00000  Uiso   1.00
C191   C     0.56973   0.74156   0.28729   0.00000  Uiso   1.00
C192   C     0.59938   0.65046   0.29220   0.00000  Uiso   1.00
C193   C     0.65248   0.50546   0.28109   0.00000  Uiso   1.00
C194   C     0.54434   0.93638   0.37201   0.00000  Uiso   1.00
C195   C     0.57075   0.02937   0.36755   0.00000  Uiso   1.00
C196   C     0.60088   0.06990   0.40917   0.00000  Uiso   1.00
C197   C     0.65483   0.16767   0.46577   0.00000  Uiso   1.00
C198   C     0.51582   0.78500   0.41303   0.00000  Uiso   1.00
C199   C     0.44771   0.80401   0.39372   0.00000  Uiso   1.00
C200   C     0.39354   0.77576   0.41624   0.00000  Uiso   1.00
C201   C     0.33561   0.80006   0.39271   0.00000  Uiso   1.00
C202   C     0.54736   0.72931   0.37284   0.00000  Uiso   1.00
C203   C     0.57699   0.63824   0.37782   0.00000  Uiso   1.00
C204   C     0.60295   0.59965   0.33672   0.00000  Uiso   1.00
C205   C     0.54790   0.88566   0.41645   0.00000  Uiso   1.00
C206   C     0.57800   0.92605   0.45809   0.00000  Uiso   1.00
C207   C     0.60445   0.01909   0.45370   0.00000  Uiso   1.00
H208   H     0.50649   0.91787   0.29660   0.00000  Uiso   1.00
H209   H     0.38355   0.91833   0.29131   0.00000  Uiso   1.00
H210   H     0.56697   0.78084   0.25290   0.00000  Uiso   1.00
H211   H     0.56799   0.06860   0.33315   0.00000  Uiso   1.00
H212   H     0.24881   0.89643   0.30503   0.00000  Uiso   1.00
H213   H     0.63559   0.60654   0.22405   0.00000  Uiso   1.00
H214   H     0.63774   0.21335   0.39328   0.00000  Uiso   1.00
H215   H     0.51860   0.74551   0.44763   0.00000  Uiso   1.00
H216   H     0.39631   0.73651   0.45063   0.00000  Uiso   1.00
H217   H     0.57974   0.59902   0.41222   0.00000  Uiso   1.00
H218   H     0.58075   0.88678   0.49247   0.00000  Uiso   1.00
H219   H     0.25918   0.74885   0.43434   0.00000  Uiso   1.00
H220   H     0.64595   0.45897   0.35335   0.00000  Uiso   1.00
H221   H     0.64810   0.06578   0.52259   0.00000  Uiso   1.00
O222   O     0.17334   0.81980   0.36892   0.00000  Uiso   1.00
O223   O     0.68078   0.43949   0.26268   0.00000  Uiso   1.00
O224   O     0.68359   0.23561   0.48471   0.00000  Uiso   1.00
N225   N     0.26803   0.86295   0.33506   0.00000  Uiso   1.00
N226   N     0.62963   0.59191   0.25934   0.00000  Uiso   1.00
N227   N     0.63166   0.15922   0.41756   0.00000  Uiso   1.00
N228   N     0.27361   0.78354   0.40464   0.00000  Uiso   1.00
N229   N     0.63521   0.51251   0.32892   0.00000  Uiso   1.00
N230   N     0.63724   0.07981   0.48714   0.00000  Uiso   1.00
C231   C     0.00926   0.37839   0.33120   0.00000  Uiso   1.00
C232   C     0.94414   0.35474   0.34927   0.00000  Uiso   1.00
C233   C     0.88628   0.37908   0.32571   0.00000  Uiso   1.00
C234   C     0.83205   0.35087   0.34818   0.00000  Uiso   1.00
C235   C     0.73039   0.32182   0.36947   0.00000  Uiso   1.00
C236   C     0.04379   0.28003   0.32840   0.00000  Uiso   1.00
C237   C     0.06973   0.24156   0.28729   0.00000  Uiso   1.00
C238   C     0.09938   0.15046   0.29220   0.00000  Uiso   1.00
C239   C     0.15248   0.00546   0.28109   0.00000  Uiso   1.00
C240   C     0.04434   0.43638   0.37201   0.00000  Uiso   1.00
C241   C     0.07075   0.52937   0.36755   0.00000  Uiso   1.00
C242   C     0.10088   0.56990   0.40917   0.00000  Uiso   1.00
C243   C     0.15483   0.66767   0.46577   0.00000  Uiso   1.00
C244   C     0.01582   0.28500   0.41303   0.00000  Uiso   1.00
C245   C     0.94771   0.30401   0.39372   0.00000  Uiso   1.00
C246   C     0.89354   0.27576   0.41624   0.00000  Uiso   1.00
C247   C     0.83561   0.30006   0.39271   0.00000  Uiso   1.00
C248   C     0.04736   0.22931   0.37284   0.00000  Uiso   1.00
C249   C     0.07699   0.13824   0.37782   0.00000  Uiso   1.00
C250   C     0.10295   0.09965   0.33672   0.00000  Uiso   1.00
C251   C     0.04790   0.38566   0.41645   0.00000  Uiso   1.00
C252   C     0.07800   0.42605   0.45809   0.00000  Uiso   1.00
C253   C     0.10445   0.51909   0.45370   0.00000  Uiso   1.00
H254   H     0.00649   0.41787   0.29660   0.00000  Uiso   1.00
H255   H     0.88355   0.41833   0.29131   0.00000  Uiso   1.00
H256   H     0.06697   0.28084   0.25290   0.00000  Uiso   1.00
H257   H     0.06799   0.56860   0.33315   0.00000  Uiso   1.00
H258   H     0.74881   0.39643   0.30503   0.00000  Uiso   1.00
H259   H     0.13559   0.10654   0.22405   0.00000  Uiso   1.00
H260   H     0.13774   0.71335   0.39328   0.00000  Uiso   1.00
H261   H     0.01860   0.24551   0.44763   0.00000  Uiso   1.00
H262   H     0.89631   0.23651   0.45063   0.00000  Uiso   1.00
H263   H     0.07974   0.09902   0.41222   0.00000  Uiso   1.00
H264   H     0.08075   0.38678   0.49247   0.00000  Uiso   1.00
H265   H     0.75918   0.24885   0.43434   0.00000  Uiso   1.00
H266   H     0.14595   0.95897   0.35335   0.00000  Uiso   1.00
H267   H     0.14810   0.56578   0.52259   0.00000  Uiso   1.00
O268   O     0.67334   0.31980   0.36892   0.00000  Uiso   1.00
O269   O     0.18078   0.93949   0.26268   0.00000  Uiso   1.00
O270   O     0.18359   0.73561   0.48471   0.00000  Uiso   1.00
N271   N     0.76803   0.36295   0.33506   0.00000  Uiso   1.00
N272   N     0.12963   0.09191   0.25934   0.00000  Uiso   1.00
N273   N     0.13166   0.65922   0.41756   0.00000  Uiso   1.00
N274   N     0.77361   0.28354   0.40464   0.00000  Uiso   1.00
N275   N     0.13521   0.01251   0.32892   0.00000  Uiso   1.00
N276   N     0.13724   0.57981   0.48714   0.00000  Uiso   1.00
C277   C     0.49074   0.87839   0.16880   0.00000  Uiso   1.00
C278   C     0.55586   0.85474   0.15073   0.00000  Uiso   1.00
C279   C     0.61372   0.87908   0.17429   0.00000  Uiso   1.00
C280   C     0.66795   0.85087   0.15182   0.00000  Uiso   1.00
C281   C     0.76961   0.82182   0.13053   0.00000  Uiso   1.00
C282   C     0.45621   0.78003   0.17160   0.00000  Uiso   1.00
C283   C     0.43027   0.74156   0.21271   0.00000  Uiso   1.00
C284   C     0.40062   0.65046   0.20780   0.00000  Uiso   1.00
C285   C     0.34752   0.50546   0.21891   0.00000  Uiso   1.00
C286   C     0.45566   0.93638   0.12799   0.00000  Uiso   1.00
C287   C     0.42925   0.02937   0.13245   0.00000  Uiso   1.00
C288   C     0.39912   0.06990   0.09083   0.00000  Uiso   1.00
C289   C     0.34517   0.16767   0.03423   0.00000  Uiso   1.00
C290   C     0.48418   0.78500   0.08697   0.00000  Uiso   1.00
C291   C     0.55229   0.80401   0.10628   0.00000  Uiso   1.00
C292   C     0.60646   0.77576   0.08376   0.00000  Uiso   1.00
C293   C     0.66439   0.80006   0.10729   0.00000  Uiso   1.00
C294   C     0.45264   0.72931   0.12716   0.00000  Uiso   1.00
C295   C     0.42301   0.63824   0.12218   0.00000  Uiso   1.00
C296   C     0.39705   0.59965   0.16328   0.00000  Uiso   1.00
C297   C     0.45210   0.88566   0.08355   0.00000  Uiso   1.00
C298   C     0.42200   0.92605   0.04191   0.00000  Uiso   1.00
C299   C     0.39555   0.01909   0.04630   0.00000  Uiso   1.00
H300   H     0.49351   0.91787   0.20340   0.00000  Uiso   1.00
H301   H     0.61645   0.91833   0.20869   0.00000  Uiso   1.00
H302   H     0.43303   0.78084   0.24710   0.00000  Uiso   1.00
H303   H     0.43201   0.06860   0.16685   0.00000  Uiso   1.00
H304   H     0.75119   0.89643   0.19497   0.00000  Uiso   1.00
H305   H     0.36441   0.60654   0.27595   0.00000  Uiso   1.00
H306   H     0.36226   0.21335   0.10672   0.00000  Uiso   1.00
H307   H     0.48140   0.74551   0.05237   0.00000  Uiso   1.00
H308   H     0.60369   0.73651   0.04937   0.00000  Uiso   1.00
H309   H     0.42026   0.59902   0.08778   0.00000  Uiso   1.00
H310   H     0.41925   0.88678   0.00753   0.00000  Uiso   1.00
H311   H     0.74082   0.74885   0.06566   0.00000  Uiso   1.00
H312   H     0.35405   0.45897   0.14665   0.00000  Uiso   1.00
H313   H     0.35190   0.06578   0.97741   0.00000  Uiso   1.00
O314   O     0.82666   0.81980   0.13108   0.00000  Uiso   1.00
O315   O     0.31922   0.43949   0.23732   0.00000  Uiso   1.00
O316   O     0.31641   0.23561   0.01529   0.00000  Uiso   1.00
N317   N     0.73197   0.86295   0.16494   0.00000  Uiso   1.00
N318   N     0.37037   0.59191   0.24066   0.00000  Uiso   1.00
N319   N     0.36834   0.15922   0.08244   0.00000  Uiso   1.00
N320   N     0.72639   0.78354   0.09536   0.00000  Uiso   1.00
N321   N     0.36479   0.51251   0.17108   0.00000  Uiso   1.00
N322   N     0.36276   0.07981   0.01286   0.00000  Uiso   1.00
C323   C     0.99074   0.37839   0.16880   0.00000  Uiso   1.00
C324   C     0.05586   0.35474   0.15073   0.00000  Uiso   1.00
C325   C     0.11372   0.37908   0.17429   0.00000  Uiso   1.00
C326   C     0.16795   0.35087   0.15182   0.00000  Uiso   1.00
C327   C     0.26961   0.32182   0.13053   0.00000  Uiso   1.00
C328   C     0.95621   0.28003   0.17160   0.00000  Uiso   1.00
C329   C     0.93027   0.24156   0.21271   0.00000  Uiso   1.00
C330   C     0.90062   0.15046   0.20780   0.00000  Uiso   1.00
C331   C     0.84752   0.00546   0.21891   0.00000  Uiso   1.00
C332   C     0.95566   0.43638   0.12799   0.00000  Uiso   1.00
C333   C     0.92925   0.52937   0.13245   0.00000  Uiso   1.00
C334   C     0.89912   0.56990   0.09083   0.00000  Uiso   1.00
C335   C     0.84517   0.66767   0.03423   0.00000  Uiso   1.00
C336   C     0.98418   0.28500   0.08697   0.00000  Uiso   1.00
C337   C     0.05229   0.30401   0.10628   0.00000  Uiso   1.00
C338   C     0.10646   0.27576   0.08376   0.00000  Uiso   1.00
C339   C     0.16439   0.30006   0.10729   0.00000  Uiso   1.00
C340   C     0.95264   0.22931   0.12716   0.00000  Uiso   1.00
C341   C     0.92301   0.13824   0.12218   0.00000  Uiso   1.00
C342   C     0.89705   0.09965   0.16328   0.00000  Uiso   1.00
C343   C     0.95210   0.38566   0.08355   0.00000  Uiso   1.00
C344   C     0.92200   0.42605   0.04191   0.00000  Uiso   1.00
C345   C     0.89555   0.51909   0.04630   0.00000  Uiso   1.00
H346   H     0.99351   0.41787   0.20340   0.00000  Uiso   1.00
H347   H     0.11645   0.41833   0.20869   0.00000  Uiso   1.00
H348   H     0.93303   0.28084   0.24710   0.00000  Uiso   1.00
H349   H     0.93201   0.56860   0.16685   0.00000  Uiso   1.00
H350   H     0.25119   0.39643   0.19497   0.00000  Uiso   1.00
H351   H     0.86441   0.10654   0.27595   0.00000  Uiso   1.00
H352   H     0.86226   0.71335   0.10672   0.00000  Uiso   1.00
H353   H     0.98140   0.24551   0.05237   0.00000  Uiso   1.00
H354   H     0.10369   0.23651   0.04937   0.00000  Uiso   1.00
H355   H     0.92026   0.09902   0.08778   0.00000  Uiso   1.00
H356   H     0.91925   0.38678   0.00753   0.00000  Uiso   1.00
H357   H     0.24082   0.24885   0.06566   0.00000  Uiso   1.00
H358   H     0.85405   0.95897   0.14665   0.00000  Uiso   1.00
H359   H     0.85190   0.56578   0.97741   0.00000  Uiso   1.00
O360   O     0.32666   0.31980   0.13108   0.00000  Uiso   1.00
O361   O     0.81922   0.93949   0.23732   0.00000  Uiso   1.00
O362   O     0.81641   0.73561   0.01529   0.00000  Uiso   1.00
N363   N     0.23197   0.36295   0.16494   0.00000  Uiso   1.00
N364   N     0.87037   0.09191   0.24066   0.00000  Uiso   1.00
N365   N     0.86834   0.65922   0.08244   0.00000  Uiso   1.00
N366   N     0.22639   0.28354   0.09536   0.00000  Uiso   1.00
N367   N     0.86479   0.01251   0.17108   0.00000  Uiso   1.00
N368   N     0.86276   0.57981   0.01286   0.00000  Uiso   1.00
