data_job_02383
_audit_creation_date              2018-12-19
_audit_creation_method            'Materials Studio'
_symmetry_space_group_name_H-M    'P1'
_symmetry_Int_Tables_number       1
_symmetry_cell_setting            triclinic
loop_
_symmetry_equiv_pos_as_xyz
  x,y,z
_cell_length_a                    40.9206
_cell_length_b                    14.4696
_cell_length_c                    9.9576
_cell_angle_alpha                 90.0000
_cell_angle_beta                  90.0000
_cell_angle_gamma                 90.0000
loop_
_atom_site_label
_atom_site_type_symbol
_atom_site_fract_x
_atom_site_fract_y
_atom_site_fract_z
_atom_site_U_iso_or_equiv
_atom_site_adp_type
_atom_site_occupancy
C1     C     0.37355   0.26668   0.59213   0.00000  Uiso   1.00
C2     C     0.34109   0.31586   0.61577   0.00000  Uiso   1.00
C3     C     0.33140   0.35762   0.73472   0.00000  Uiso   1.00
C4     C     0.30077   0.39893   0.73606   0.00000  Uiso   1.00
C5     C     0.25344   0.47533   0.79007   0.00000  Uiso   1.00
C6     C     0.36491   0.16927   0.54569   0.00000  Uiso   1.00
C7     C     0.37524   0.08778   0.60573   0.00000  Uiso   1.00
C8     C     0.36466   0.00569   0.54807   0.00000  Uiso   1.00
C9     C     0.35432   0.85451   0.49323   0.00000  Uiso   1.00
C10    C     0.38919   0.31428   0.47158   0.00000  Uiso   1.00
C11    C     0.41994   0.35471   0.46928   0.00000  Uiso   1.00
C12    C     0.42982   0.39469   0.34920   0.00000  Uiso   1.00
C13    C     0.45719   0.46866   0.17928   0.00000  Uiso   1.00
C14    C     0.33641   0.26578   0.38295   0.00000  Uiso   1.00
C15    C     0.32092   0.31536   0.50215   0.00000  Uiso   1.00
C16    C     0.29031   0.35662   0.50330   0.00000  Uiso   1.00
C17    C     0.28057   0.39844   0.62224   0.00000  Uiso   1.00
C18    C     0.34474   0.16877   0.43208   0.00000  Uiso   1.00
C19    C     0.33415   0.08679   0.37431   0.00000  Uiso   1.00
C20    C     0.34446   0.00520   0.43424   0.00000  Uiso   1.00
C21    C     0.36902   0.31379   0.35796   0.00000  Uiso   1.00
C22    C     0.37886   0.35372   0.23785   0.00000  Uiso   1.00
C23    C     0.40961   0.39420   0.23538   0.00000  Uiso   1.00
H24    H     0.38925   0.26705   0.68058   0.00000  Uiso   1.00
H25    H     0.34701   0.35797   0.82263   0.00000  Uiso   1.00
H26    H     0.39085   0.08818   0.69365   0.00000  Uiso   1.00
H27    H     0.43554   0.35507   0.55722   0.00000  Uiso   1.00
H28    H     0.29128   0.45854   0.93004   0.00000  Uiso   1.00
H29    H     0.38372   0.88966   0.65804   0.00000  Uiso   1.00
H30    H     0.47798   0.45245   0.37035   0.00000  Uiso   1.00
H31    H     0.32071   0.26539   0.29449   0.00000  Uiso   1.00
H32    H     0.27471   0.35623   0.41536   0.00000  Uiso   1.00
H33    H     0.31854   0.08644   0.28638   0.00000  Uiso   1.00
H34    H     0.36324   0.35332   0.14995   0.00000  Uiso   1.00
H35    H     0.23259   0.45712   0.59948   0.00000  Uiso   1.00
H36    H     0.32504   0.88824   0.32748   0.00000  Uiso   1.00
H37    H     0.41929   0.45103   0.03980   0.00000  Uiso   1.00
O38    O     0.23291   0.51759   0.85125   0.00000  Uiso   1.00
O39    O     0.35419   0.77125   0.49439   0.00000  Uiso   1.00
O40    O     0.47785   0.50961   0.11695   0.00000  Uiso   1.00
N41    N     0.28378   0.44575   0.83564   0.00000  Uiso   1.00
N42    N     0.37020   0.91389   0.58136   0.00000  Uiso   1.00
N43    N     0.45833   0.44002   0.31238   0.00000  Uiso   1.00
N44    N     0.25221   0.44499   0.65777   0.00000  Uiso   1.00
N45    N     0.33863   0.91313   0.40349   0.00000  Uiso   1.00
N46    N     0.42675   0.43926   0.13451   0.00000  Uiso   1.00
C47    C     0.12645   0.23332   0.09213   0.00000  Uiso   1.00
C48    C     0.15891   0.18414   0.11577   0.00000  Uiso   1.00
C49    C     0.16860   0.14238   0.23472   0.00000  Uiso   1.00
C50    C     0.19923   0.10107   0.23606   0.00000  Uiso   1.00
C51    C     0.24656   0.02467   0.29007   0.00000  Uiso   1.00
C52    C     0.13509   0.33073   0.04569   0.00000  Uiso   1.00
C53    C     0.12476   0.41222   0.10573   0.00000  Uiso   1.00
C54    C     0.13534   0.49431   0.04807   0.00000  Uiso   1.00
C55    C     0.14568   0.64549   0.99323   0.00000  Uiso   1.00
C56    C     0.11081   0.18572   0.97158   0.00000  Uiso   1.00
C57    C     0.08006   0.14529   0.96928   0.00000  Uiso   1.00
C58    C     0.07018   0.10531   0.84920   0.00000  Uiso   1.00
C59    C     0.04281   0.03134   0.67928   0.00000  Uiso   1.00
C60    C     0.16359   0.23422   0.88295   0.00000  Uiso   1.00
C61    C     0.17908   0.18464   0.00215   0.00000  Uiso   1.00
C62    C     0.20969   0.14338   0.00330   0.00000  Uiso   1.00
C63    C     0.21943   0.10156   0.12224   0.00000  Uiso   1.00
C64    C     0.15526   0.33123   0.93208   0.00000  Uiso   1.00
C65    C     0.16585   0.41321   0.87431   0.00000  Uiso   1.00
C66    C     0.15554   0.49480   0.93424   0.00000  Uiso   1.00
C67    C     0.13098   0.18621   0.85796   0.00000  Uiso   1.00
C68    C     0.12114   0.14628   0.73785   0.00000  Uiso   1.00
C69    C     0.09039   0.10580   0.73538   0.00000  Uiso   1.00
H70    H     0.11075   0.23295   0.18058   0.00000  Uiso   1.00
H71    H     0.15299   0.14203   0.32263   0.00000  Uiso   1.00
H72    H     0.10915   0.41182   0.19365   0.00000  Uiso   1.00
H73    H     0.06446   0.14493   0.05722   0.00000  Uiso   1.00
H74    H     0.20872   0.04146   0.43004   0.00000  Uiso   1.00
H75    H     0.11628   0.61034   0.15804   0.00000  Uiso   1.00
H76    H     0.02202   0.04755   0.87035   0.00000  Uiso   1.00
H77    H     0.17929   0.23461   0.79449   0.00000  Uiso   1.00
H78    H     0.22529   0.14377   0.91536   0.00000  Uiso   1.00
H79    H     0.18146   0.41356   0.78638   0.00000  Uiso   1.00
H80    H     0.13676   0.14668   0.64995   0.00000  Uiso   1.00
H81    H     0.26741   0.04288   0.09948   0.00000  Uiso   1.00
H82    H     0.17496   0.61176   0.82748   0.00000  Uiso   1.00
H83    H     0.08071   0.04897   0.53980   0.00000  Uiso   1.00
O84    O     0.26709   0.98241   0.35125   0.00000  Uiso   1.00
O85    O     0.14581   0.72875   0.99439   0.00000  Uiso   1.00
O86    O     0.02215   0.99039   0.61695   0.00000  Uiso   1.00
N87    N     0.21622   0.05425   0.33564   0.00000  Uiso   1.00
N88    N     0.12980   0.58611   0.08136   0.00000  Uiso   1.00
N89    N     0.04167   0.05998   0.81238   0.00000  Uiso   1.00
N90    N     0.24779   0.05501   0.15777   0.00000  Uiso   1.00
N91    N     0.16137   0.58687   0.90349   0.00000  Uiso   1.00
N92    N     0.07325   0.06074   0.63451   0.00000  Uiso   1.00
C93    C     0.62645   0.26668   0.90787   0.00000  Uiso   1.00
C94    C     0.65891   0.31586   0.88423   0.00000  Uiso   1.00
C95    C     0.66860   0.35762   0.76528   0.00000  Uiso   1.00
C96    C     0.69923   0.39893   0.76394   0.00000  Uiso   1.00
C97    C     0.74656   0.47533   0.70993   0.00000  Uiso   1.00
C98    C     0.63509   0.16927   0.95431   0.00000  Uiso   1.00
C99    C     0.62476   0.08778   0.89427   0.00000  Uiso   1.00
C100   C     0.63534   0.00569   0.95193   0.00000  Uiso   1.00
C101   C     0.64568   0.85451   0.00677   0.00000  Uiso   1.00
C102   C     0.61081   0.31428   0.02842   0.00000  Uiso   1.00
C103   C     0.58006   0.35471   0.03072   0.00000  Uiso   1.00
C104   C     0.57018   0.39469   0.15080   0.00000  Uiso   1.00
C105   C     0.54281   0.46866   0.32072   0.00000  Uiso   1.00
C106   C     0.66359   0.26578   0.11705   0.00000  Uiso   1.00
C107   C     0.67908   0.31536   0.99785   0.00000  Uiso   1.00
C108   C     0.70969   0.35662   0.99670   0.00000  Uiso   1.00
C109   C     0.71943   0.39844   0.87776   0.00000  Uiso   1.00
C110   C     0.65526   0.16877   0.06792   0.00000  Uiso   1.00
C111   C     0.66585   0.08679   0.12569   0.00000  Uiso   1.00
C112   C     0.65554   0.00520   0.06576   0.00000  Uiso   1.00
C113   C     0.63098   0.31379   0.14204   0.00000  Uiso   1.00
C114   C     0.62114   0.35372   0.26215   0.00000  Uiso   1.00
C115   C     0.59039   0.39420   0.26462   0.00000  Uiso   1.00
H116   H     0.61075   0.26705   0.81942   0.00000  Uiso   1.00
H117   H     0.65299   0.35797   0.67737   0.00000  Uiso   1.00
H118   H     0.60915   0.08818   0.80635   0.00000  Uiso   1.00
H119   H     0.56446   0.35507   0.94278   0.00000  Uiso   1.00
H120   H     0.70872   0.45854   0.56996   0.00000  Uiso   1.00
H121   H     0.61628   0.88966   0.84196   0.00000  Uiso   1.00
H122   H     0.52202   0.45245   0.12965   0.00000  Uiso   1.00
H123   H     0.67929   0.26539   0.20551   0.00000  Uiso   1.00
H124   H     0.72529   0.35623   0.08464   0.00000  Uiso   1.00
H125   H     0.68146   0.08644   0.21362   0.00000  Uiso   1.00
H126   H     0.63676   0.35332   0.35005   0.00000  Uiso   1.00
H127   H     0.76741   0.45712   0.90052   0.00000  Uiso   1.00
H128   H     0.67496   0.88824   0.17252   0.00000  Uiso   1.00
H129   H     0.58071   0.45103   0.46020   0.00000  Uiso   1.00
O130   O     0.76709   0.51759   0.64875   0.00000  Uiso   1.00
O131   O     0.64581   0.77125   0.00561   0.00000  Uiso   1.00
O132   O     0.52215   0.50961   0.38305   0.00000  Uiso   1.00
N133   N     0.71622   0.44575   0.66436   0.00000  Uiso   1.00
N134   N     0.62980   0.91389   0.91864   0.00000  Uiso   1.00
N135   N     0.54167   0.44002   0.18762   0.00000  Uiso   1.00
N136   N     0.74779   0.44499   0.84223   0.00000  Uiso   1.00
N137   N     0.66137   0.91313   0.09651   0.00000  Uiso   1.00
N138   N     0.57325   0.43926   0.36549   0.00000  Uiso   1.00
C139   C     0.87355   0.23332   0.40787   0.00000  Uiso   1.00
C140   C     0.84109   0.18414   0.38423   0.00000  Uiso   1.00
C141   C     0.83140   0.14238   0.26528   0.00000  Uiso   1.00
C142   C     0.80077   0.10107   0.26394   0.00000  Uiso   1.00
C143   C     0.75344   0.02467   0.20993   0.00000  Uiso   1.00
C144   C     0.86491   0.33073   0.45431   0.00000  Uiso   1.00
C145   C     0.87524   0.41222   0.39427   0.00000  Uiso   1.00
C146   C     0.86466   0.49431   0.45193   0.00000  Uiso   1.00
C147   C     0.85432   0.64549   0.50677   0.00000  Uiso   1.00
C148   C     0.88919   0.18572   0.52842   0.00000  Uiso   1.00
C149   C     0.91994   0.14529   0.53072   0.00000  Uiso   1.00
C150   C     0.92982   0.10531   0.65080   0.00000  Uiso   1.00
C151   C     0.95719   0.03134   0.82072   0.00000  Uiso   1.00
C152   C     0.83641   0.23422   0.61705   0.00000  Uiso   1.00
C153   C     0.82092   0.18464   0.49785   0.00000  Uiso   1.00
C154   C     0.79031   0.14338   0.49670   0.00000  Uiso   1.00
C155   C     0.78057   0.10156   0.37776   0.00000  Uiso   1.00
C156   C     0.84474   0.33123   0.56792   0.00000  Uiso   1.00
C157   C     0.83415   0.41321   0.62569   0.00000  Uiso   1.00
C158   C     0.84446   0.49480   0.56576   0.00000  Uiso   1.00
C159   C     0.86902   0.18621   0.64204   0.00000  Uiso   1.00
C160   C     0.87886   0.14628   0.76215   0.00000  Uiso   1.00
C161   C     0.90961   0.10580   0.76462   0.00000  Uiso   1.00
H162   H     0.88925   0.23295   0.31942   0.00000  Uiso   1.00
H163   H     0.84701   0.14203   0.17737   0.00000  Uiso   1.00
H164   H     0.89085   0.41182   0.30635   0.00000  Uiso   1.00
H165   H     0.93554   0.14493   0.44278   0.00000  Uiso   1.00
H166   H     0.79128   0.04146   0.06996   0.00000  Uiso   1.00
H167   H     0.88372   0.61034   0.34196   0.00000  Uiso   1.00
H168   H     0.97798   0.04755   0.62965   0.00000  Uiso   1.00
H169   H     0.82071   0.23461   0.70551   0.00000  Uiso   1.00
H170   H     0.77471   0.14377   0.58464   0.00000  Uiso   1.00
H171   H     0.81854   0.41356   0.71362   0.00000  Uiso   1.00
H172   H     0.86324   0.14668   0.85005   0.00000  Uiso   1.00
H173   H     0.73259   0.04288   0.40052   0.00000  Uiso   1.00
H174   H     0.82504   0.61176   0.67252   0.00000  Uiso   1.00
H175   H     0.91929   0.04897   0.96020   0.00000  Uiso   1.00
O176   O     0.73291   0.98241   0.14875   0.00000  Uiso   1.00
O177   O     0.85419   0.72875   0.50561   0.00000  Uiso   1.00
O178   O     0.97785   0.99039   0.88305   0.00000  Uiso   1.00
N179   N     0.78378   0.05425   0.16436   0.00000  Uiso   1.00
N180   N     0.87020   0.58611   0.41864   0.00000  Uiso   1.00
N181   N     0.95833   0.05998   0.68762   0.00000  Uiso   1.00
N182   N     0.75221   0.05501   0.34223   0.00000  Uiso   1.00
N183   N     0.83863   0.58687   0.59651   0.00000  Uiso   1.00
N184   N     0.92675   0.06074   0.86549   0.00000  Uiso   1.00
C185   C     0.62645   0.73332   0.40787   0.00000  Uiso   1.00
C186   C     0.65891   0.68414   0.38423   0.00000  Uiso   1.00
C187   C     0.66860   0.64238   0.26528   0.00000  Uiso   1.00
C188   C     0.69923   0.60107   0.26394   0.00000  Uiso   1.00
C189   C     0.74656   0.52467   0.20993   0.00000  Uiso   1.00
C190   C     0.63509   0.83073   0.45431   0.00000  Uiso   1.00
C191   C     0.62476   0.91222   0.39427   0.00000  Uiso   1.00
C192   C     0.63534   0.99431   0.45193   0.00000  Uiso   1.00
C193   C     0.64568   0.14549   0.50677   0.00000  Uiso   1.00
C194   C     0.61081   0.68572   0.52842   0.00000  Uiso   1.00
C195   C     0.58006   0.64529   0.53072   0.00000  Uiso   1.00
C196   C     0.57018   0.60531   0.65080   0.00000  Uiso   1.00
C197   C     0.54281   0.53134   0.82072   0.00000  Uiso   1.00
C198   C     0.66359   0.73422   0.61705   0.00000  Uiso   1.00
C199   C     0.67908   0.68464   0.49785   0.00000  Uiso   1.00
C200   C     0.70969   0.64338   0.49670   0.00000  Uiso   1.00
C201   C     0.71943   0.60156   0.37776   0.00000  Uiso   1.00
C202   C     0.65526   0.83123   0.56792   0.00000  Uiso   1.00
C203   C     0.66585   0.91321   0.62569   0.00000  Uiso   1.00
C204   C     0.65554   0.99480   0.56576   0.00000  Uiso   1.00
C205   C     0.63098   0.68621   0.64204   0.00000  Uiso   1.00
C206   C     0.62114   0.64628   0.76215   0.00000  Uiso   1.00
C207   C     0.59039   0.60580   0.76462   0.00000  Uiso   1.00
H208   H     0.61075   0.73295   0.31942   0.00000  Uiso   1.00
H209   H     0.65299   0.64203   0.17737   0.00000  Uiso   1.00
H210   H     0.60915   0.91182   0.30635   0.00000  Uiso   1.00
H211   H     0.56446   0.64493   0.44278   0.00000  Uiso   1.00
H212   H     0.70872   0.54146   0.06996   0.00000  Uiso   1.00
H213   H     0.61628   0.11034   0.34196   0.00000  Uiso   1.00
H214   H     0.52202   0.54755   0.62965   0.00000  Uiso   1.00
H215   H     0.67929   0.73461   0.70551   0.00000  Uiso   1.00
H216   H     0.72529   0.64377   0.58464   0.00000  Uiso   1.00
H217   H     0.68146   0.91356   0.71362   0.00000  Uiso   1.00
H218   H     0.63676   0.64668   0.85005   0.00000  Uiso   1.00
H219   H     0.76741   0.54288   0.40052   0.00000  Uiso   1.00
H220   H     0.67496   0.11176   0.67252   0.00000  Uiso   1.00
H221   H     0.58071   0.54897   0.96020   0.00000  Uiso   1.00
O222   O     0.76709   0.48241   0.14875   0.00000  Uiso   1.00
O223   O     0.64581   0.22875   0.50561   0.00000  Uiso   1.00
O224   O     0.52215   0.49039   0.88305   0.00000  Uiso   1.00
N225   N     0.71622   0.55425   0.16436   0.00000  Uiso   1.00
N226   N     0.62980   0.08611   0.41864   0.00000  Uiso   1.00
N227   N     0.54167   0.55998   0.68762   0.00000  Uiso   1.00
N228   N     0.74779   0.55501   0.34223   0.00000  Uiso   1.00
N229   N     0.66137   0.08687   0.59651   0.00000  Uiso   1.00
N230   N     0.57325   0.56074   0.86549   0.00000  Uiso   1.00
C231   C     0.87355   0.76668   0.90787   0.00000  Uiso   1.00
C232   C     0.84109   0.81586   0.88423   0.00000  Uiso   1.00
C233   C     0.83140   0.85762   0.76528   0.00000  Uiso   1.00
C234   C     0.80077   0.89893   0.76394   0.00000  Uiso   1.00
C235   C     0.75344   0.97533   0.70993   0.00000  Uiso   1.00
C236   C     0.86491   0.66927   0.95431   0.00000  Uiso   1.00
C237   C     0.87524   0.58778   0.89427   0.00000  Uiso   1.00
C238   C     0.86466   0.50569   0.95193   0.00000  Uiso   1.00
C239   C     0.85432   0.35451   0.00677   0.00000  Uiso   1.00
C240   C     0.88919   0.81428   0.02842   0.00000  Uiso   1.00
C241   C     0.91994   0.85471   0.03072   0.00000  Uiso   1.00
C242   C     0.92982   0.89469   0.15080   0.00000  Uiso   1.00
C243   C     0.95719   0.96866   0.32072   0.00000  Uiso   1.00
C244   C     0.83641   0.76578   0.11705   0.00000  Uiso   1.00
C245   C     0.82092   0.81536   0.99785   0.00000  Uiso   1.00
C246   C     0.79031   0.85662   0.99670   0.00000  Uiso   1.00
C247   C     0.78057   0.89844   0.87776   0.00000  Uiso   1.00
C248   C     0.84474   0.66877   0.06792   0.00000  Uiso   1.00
C249   C     0.83415   0.58679   0.12569   0.00000  Uiso   1.00
C250   C     0.84446   0.50520   0.06576   0.00000  Uiso   1.00
C251   C     0.86902   0.81379   0.14204   0.00000  Uiso   1.00
C252   C     0.87886   0.85372   0.26215   0.00000  Uiso   1.00
C253   C     0.90961   0.89420   0.26462   0.00000  Uiso   1.00
H254   H     0.88925   0.76705   0.81942   0.00000  Uiso   1.00
H255   H     0.84701   0.85797   0.67737   0.00000  Uiso   1.00
H256   H     0.89085   0.58818   0.80635   0.00000  Uiso   1.00
H257   H     0.93554   0.85507   0.94278   0.00000  Uiso   1.00
H258   H     0.79128   0.95854   0.56996   0.00000  Uiso   1.00
H259   H     0.88372   0.38966   0.84196   0.00000  Uiso   1.00
H260   H     0.97798   0.95245   0.12965   0.00000  Uiso   1.00
H261   H     0.82071   0.76539   0.20551   0.00000  Uiso   1.00
H262   H     0.77471   0.85623   0.08464   0.00000  Uiso   1.00
H263   H     0.81854   0.58644   0.21362   0.00000  Uiso   1.00
H264   H     0.86324   0.85332   0.35005   0.00000  Uiso   1.00
H265   H     0.73259   0.95712   0.90052   0.00000  Uiso   1.00
H266   H     0.82504   0.38824   0.17252   0.00000  Uiso   1.00
H267   H     0.91929   0.95103   0.46020   0.00000  Uiso   1.00
O268   O     0.73291   0.01759   0.64875   0.00000  Uiso   1.00
O269   O     0.85419   0.27125   0.00561   0.00000  Uiso   1.00
O270   O     0.97785   0.00961   0.38305   0.00000  Uiso   1.00
N271   N     0.78378   0.94575   0.66436   0.00000  Uiso   1.00
N272   N     0.87020   0.41389   0.91864   0.00000  Uiso   1.00
N273   N     0.95833   0.94002   0.18762   0.00000  Uiso   1.00
N274   N     0.75221   0.94499   0.84223   0.00000  Uiso   1.00
N275   N     0.83863   0.41313   0.09651   0.00000  Uiso   1.00
N276   N     0.92675   0.93926   0.36549   0.00000  Uiso   1.00
C277   C     0.37355   0.73332   0.09213   0.00000  Uiso   1.00
C278   C     0.34109   0.68414   0.11577   0.00000  Uiso   1.00
C279   C     0.33140   0.64238   0.23472   0.00000  Uiso   1.00
C280   C     0.30077   0.60107   0.23606   0.00000  Uiso   1.00
C281   C     0.25344   0.52467   0.29007   0.00000  Uiso   1.00
C282   C     0.36491   0.83073   0.04569   0.00000  Uiso   1.00
C283   C     0.37524   0.91222   0.10573   0.00000  Uiso   1.00
C284   C     0.36466   0.99431   0.04807   0.00000  Uiso   1.00
C285   C     0.35432   0.14549   0.99323   0.00000  Uiso   1.00
C286   C     0.38919   0.68572   0.97158   0.00000  Uiso   1.00
C287   C     0.41994   0.64529   0.96928   0.00000  Uiso   1.00
C288   C     0.42982   0.60531   0.84920   0.00000  Uiso   1.00
C289   C     0.45719   0.53134   0.67928   0.00000  Uiso   1.00
C290   C     0.33641   0.73422   0.88295   0.00000  Uiso   1.00
C291   C     0.32092   0.68464   0.00215   0.00000  Uiso   1.00
C292   C     0.29031   0.64338   0.00330   0.00000  Uiso   1.00
C293   C     0.28057   0.60156   0.12224   0.00000  Uiso   1.00
C294   C     0.34474   0.83123   0.93208   0.00000  Uiso   1.00
C295   C     0.33415   0.91321   0.87431   0.00000  Uiso   1.00
C296   C     0.34446   0.99480   0.93424   0.00000  Uiso   1.00
C297   C     0.36902   0.68621   0.85796   0.00000  Uiso   1.00
C298   C     0.37886   0.64628   0.73785   0.00000  Uiso   1.00
C299   C     0.40961   0.60580   0.73538   0.00000  Uiso   1.00
H300   H     0.38925   0.73295   0.18058   0.00000  Uiso   1.00
H301   H     0.34701   0.64203   0.32263   0.00000  Uiso   1.00
H302   H     0.39085   0.91182   0.19365   0.00000  Uiso   1.00
H303   H     0.43554   0.64493   0.05722   0.00000  Uiso   1.00
H304   H     0.29128   0.54146   0.43004   0.00000  Uiso   1.00
H305   H     0.38372   0.11034   0.15804   0.00000  Uiso   1.00
H306   H     0.47798   0.54755   0.87035   0.00000  Uiso   1.00
H307   H     0.32071   0.73461   0.79449   0.00000  Uiso   1.00
H308   H     0.27471   0.64377   0.91536   0.00000  Uiso   1.00
H309   H     0.31854   0.91356   0.78638   0.00000  Uiso   1.00
H310   H     0.36324   0.64668   0.64995   0.00000  Uiso   1.00
H311   H     0.23259   0.54288   0.09948   0.00000  Uiso   1.00
H312   H     0.32504   0.11176   0.82748   0.00000  Uiso   1.00
H313   H     0.41929   0.54897   0.53980   0.00000  Uiso   1.00
O314   O     0.23291   0.48241   0.35125   0.00000  Uiso   1.00
O315   O     0.35419   0.22875   0.99439   0.00000  Uiso   1.00
O316   O     0.47785   0.49039   0.61695   0.00000  Uiso   1.00
N317   N     0.28378   0.55425   0.33564   0.00000  Uiso   1.00
N318   N     0.37020   0.08611   0.08136   0.00000  Uiso   1.00
N319   N     0.45833   0.55998   0.81238   0.00000  Uiso   1.00
N320   N     0.25221   0.55501   0.15777   0.00000  Uiso   1.00
N321   N     0.33863   0.08687   0.90349   0.00000  Uiso   1.00
N322   N     0.42675   0.56074   0.63451   0.00000  Uiso   1.00
C323   C     0.12645   0.76668   0.59213   0.00000  Uiso   1.00
C324   C     0.15891   0.81586   0.61577   0.00000  Uiso   1.00
C325   C     0.16860   0.85762   0.73472   0.00000  Uiso   1.00
C326   C     0.19923   0.89893   0.73606   0.00000  Uiso   1.00
C327   C     0.24656   0.97533   0.79007   0.00000  Uiso   1.00
C328   C     0.13509   0.66927   0.54569   0.00000  Uiso   1.00
C329   C     0.12476   0.58778   0.60573   0.00000  Uiso   1.00
C330   C     0.13534   0.50569   0.54807   0.00000  Uiso   1.00
C331   C     0.14568   0.35451   0.49323   0.00000  Uiso   1.00
C332   C     0.11081   0.81428   0.47158   0.00000  Uiso   1.00
C333   C     0.08006   0.85471   0.46928   0.00000  Uiso   1.00
C334   C     0.07018   0.89469   0.34920   0.00000  Uiso   1.00
C335   C     0.04281   0.96866   0.17928   0.00000  Uiso   1.00
C336   C     0.16359   0.76578   0.38295   0.00000  Uiso   1.00
C337   C     0.17908   0.81536   0.50215   0.00000  Uiso   1.00
C338   C     0.20969   0.85662   0.50330   0.00000  Uiso   1.00
C339   C     0.21943   0.89844   0.62224   0.00000  Uiso   1.00
C340   C     0.15526   0.66877   0.43208   0.00000  Uiso   1.00
C341   C     0.16585   0.58679   0.37431   0.00000  Uiso   1.00
C342   C     0.15554   0.50520   0.43424   0.00000  Uiso   1.00
C343   C     0.13098   0.81379   0.35796   0.00000  Uiso   1.00
C344   C     0.12114   0.85372   0.23785   0.00000  Uiso   1.00
C345   C     0.09039   0.89420   0.23538   0.00000  Uiso   1.00
H346   H     0.11075   0.76705   0.68058   0.00000  Uiso   1.00
H347   H     0.15299   0.85797   0.82263   0.00000  Uiso   1.00
H348   H     0.10915   0.58818   0.69365   0.00000  Uiso   1.00
H349   H     0.06446   0.85507   0.55722   0.00000  Uiso   1.00
H350   H     0.20872   0.95854   0.93004   0.00000  Uiso   1.00
H351   H     0.11628   0.38966   0.65804   0.00000  Uiso   1.00
H352   H     0.02202   0.95245   0.37035   0.00000  Uiso   1.00
H353   H     0.17929   0.76539   0.29449   0.00000  Uiso   1.00
H354   H     0.22529   0.85623   0.41536   0.00000  Uiso   1.00
H355   H     0.18146   0.58644   0.28638   0.00000  Uiso   1.00
H356   H     0.13676   0.85332   0.14995   0.00000  Uiso   1.00
H357   H     0.26741   0.95712   0.59948   0.00000  Uiso   1.00
H358   H     0.17496   0.38824   0.32748   0.00000  Uiso   1.00
H359   H     0.08071   0.95103   0.03980   0.00000  Uiso   1.00
O360   O     0.26709   0.01759   0.85125   0.00000  Uiso   1.00
O361   O     0.14581   0.27125   0.49439   0.00000  Uiso   1.00
O362   O     0.02215   0.00961   0.11695   0.00000  Uiso   1.00
N363   N     0.21622   0.94575   0.83564   0.00000  Uiso   1.00
N364   N     0.12980   0.41389   0.58136   0.00000  Uiso   1.00
N365   N     0.04167   0.94002   0.31238   0.00000  Uiso   1.00
N366   N     0.24779   0.94499   0.65777   0.00000  Uiso   1.00
N367   N     0.16137   0.41313   0.40349   0.00000  Uiso   1.00
N368   N     0.07325   0.93926   0.13451   0.00000  Uiso   1.00
