data_job_06470
_audit_creation_date              2018-12-19
_audit_creation_method            'Materials Studio'
_symmetry_space_group_name_H-M    'P1'
_symmetry_Int_Tables_number       1
_symmetry_cell_setting            triclinic
loop_
_symmetry_equiv_pos_as_xyz
  x,y,z
_cell_length_a                    17.4056
_cell_length_b                    20.4573
_cell_length_c                    22.5876
_cell_angle_alpha                 116.8890
_cell_angle_beta                  85.6110
_cell_angle_gamma                 86.0386
loop_
_atom_site_label
_atom_site_type_symbol
_atom_site_fract_x
_atom_site_fract_y
_atom_site_fract_z
_atom_site_U_iso_or_equiv
_atom_site_adp_type
_atom_site_occupancy
C1     C     0.73563   0.39788   0.37637   0.00000  Uiso   1.00
C2     C     0.75244   0.47007   0.43350   0.00000  Uiso   1.00
C3     C     0.73833   0.53962   0.43745   0.00000  Uiso   1.00
C4     C     0.75779   0.59873   0.49380   0.00000  Uiso   1.00
C5     C     0.77900   0.71236   0.57480   0.00000  Uiso   1.00
C6     C     0.81242   0.34785   0.35118   0.00000  Uiso   1.00
C7     C     0.84873   0.31463   0.28592   0.00000  Uiso   1.00
C8     C     0.91867   0.27086   0.27298   0.00000  Uiso   1.00
C9     C     0.03297   0.19470   0.22618   0.00000  Uiso   1.00
C10    C     0.68291   0.36291   0.40820   0.00000  Uiso   1.00
C11    C     0.61034   0.34233   0.39086   0.00000  Uiso   1.00
C12    C     0.57126   0.31122   0.42591   0.00000  Uiso   1.00
C13    C     0.48449   0.25844   0.46763   0.00000  Uiso   1.00
C14    C     0.79528   0.37920   0.46943   0.00000  Uiso   1.00
C15    C     0.78484   0.45992   0.48404   0.00000  Uiso   1.00
C16    C     0.80432   0.51895   0.54040   0.00000  Uiso   1.00
C17    C     0.79024   0.58857   0.54444   0.00000  Uiso   1.00
C18    C     0.84482   0.33770   0.40172   0.00000  Uiso   1.00
C19    C     0.91472   0.29396   0.38888   0.00000  Uiso   1.00
C20    C     0.95113   0.26069   0.32362   0.00000  Uiso   1.00
C21    C     0.71531   0.35276   0.45874   0.00000  Uiso   1.00
C22    C     0.67634   0.32167   0.49382   0.00000  Uiso   1.00
C23    C     0.60372   0.30105   0.47655   0.00000  Uiso   1.00
H24    H     0.71041   0.40578   0.33702   0.00000  Uiso   1.00
H25    H     0.71326   0.54745   0.39832   0.00000  Uiso   1.00
H26    H     0.82364   0.32249   0.24682   0.00000  Uiso   1.00
H27    H     0.58529   0.35019   0.35175   0.00000  Uiso   1.00
H28    H     0.73074   0.70003   0.48856   0.00000  Uiso   1.00
H29    H     0.96346   0.22568   0.16911   0.00000  Uiso   1.00
H30    H     0.46086   0.28410   0.39037   0.00000  Uiso   1.00
H31    H     0.82050   0.37129   0.50878   0.00000  Uiso   1.00
H32    H     0.82939   0.51108   0.57951   0.00000  Uiso   1.00
H33    H     0.93977   0.28612   0.42800   0.00000  Uiso   1.00
H34    H     0.70143   0.31382   0.53293   0.00000  Uiso   1.00
H35    H     0.82500   0.67051   0.63562   0.00000  Uiso   1.00
H36    H     0.05772   0.19616   0.31616   0.00000  Uiso   1.00
H37    H     0.55512   0.25458   0.53742   0.00000  Uiso   1.00
O38    O     0.78176   0.77784   0.60551   0.00000  Uiso   1.00
O39    O     0.08707   0.15550   0.18640   0.00000  Uiso   1.00
O40    O     0.42767   0.23215   0.47668   0.00000  Uiso   1.00
N41    N     0.75169   0.67390   0.51347   0.00000  Uiso   1.00
N42    N     0.96928   0.23042   0.21480   0.00000  Uiso   1.00
N43    N     0.49940   0.28502   0.42165   0.00000  Uiso   1.00
N44    N     0.80241   0.65802   0.59260   0.00000  Uiso   1.00
N45    N     0.02000   0.21454   0.29393   0.00000  Uiso   1.00
N46    N     0.55012   0.26914   0.50078   0.00000  Uiso   1.00
C47    C     0.21602   0.66085   0.65460   0.00000  Uiso   1.00
C48    C     0.27638   0.68951   0.70305   0.00000  Uiso   1.00
C49    C     0.27300   0.69298   0.76600   0.00000  Uiso   1.00
C50    C     0.33395   0.72099   0.80263   0.00000  Uiso   1.00
C51    C     0.41820   0.76192   0.88174   0.00000  Uiso   1.00
C52    C     0.19035   0.72336   0.63869   0.00000  Uiso   1.00
C53    C     0.11463   0.75529   0.64753   0.00000  Uiso   1.00
C54    C     0.10316   0.81178   0.62997   0.00000  Uiso   1.00
C55    C     0.05385   0.90523   0.60912   0.00000  Uiso   1.00
C56    C     0.25964   0.59954   0.58992   0.00000  Uiso   1.00
C57    C     0.24218   0.52736   0.55774   0.00000  Uiso   1.00
C58    C     0.28904   0.47961   0.49911   0.00000  Uiso   1.00
C59    C     0.34731   0.38081   0.40254   0.00000  Uiso   1.00
C60    C     0.33028   0.70440   0.60769   0.00000  Uiso   1.00
C61    C     0.33844   0.71316   0.67756   0.00000  Uiso   1.00
C62    C     0.39941   0.74117   0.71410   0.00000  Uiso   1.00
C63    C     0.39612   0.74468   0.77710   0.00000  Uiso   1.00
C64    C     0.25240   0.74702   0.61321   0.00000  Uiso   1.00
C65    C     0.24104   0.80347   0.59563   0.00000  Uiso   1.00
C66    C     0.16533   0.83548   0.60444   0.00000  Uiso   1.00
C67    C     0.32170   0.62319   0.56444   0.00000  Uiso   1.00
C68    C     0.36859   0.57554   0.50584   0.00000  Uiso   1.00
C69    C     0.35121   0.50330   0.47358   0.00000  Uiso   1.00
H70    H     0.16771   0.64244   0.67444   0.00000  Uiso   1.00
H71    H     0.22496   0.67468   0.78571   0.00000  Uiso   1.00
H72    H     0.06662   0.73697   0.66724   0.00000  Uiso   1.00
H73    H     0.19415   0.50907   0.57747   0.00000  Uiso   1.00
H74    H     0.31578   0.72088   0.89784   0.00000  Uiso   1.00
H75    H     0.98191   0.85220   0.64803   0.00000  Uiso   1.00
H76    H     0.25084   0.37164   0.45873   0.00000  Uiso   1.00
H77    H     0.37860   0.72282   0.58785   0.00000  Uiso   1.00
H78    H     0.44743   0.75947   0.69437   0.00000  Uiso   1.00
H79    H     0.28908   0.82176   0.57590   0.00000  Uiso   1.00
H80    H     0.41661   0.59387   0.48614   0.00000  Uiso   1.00
H81    H     0.49635   0.78970   0.82371   0.00000  Uiso   1.00
H82    H     0.16247   0.92102   0.57390   0.00000  Uiso   1.00
H83    H     0.43140   0.44047   0.38460   0.00000  Uiso   1.00
O84    O     0.44752   0.77798   0.93242   0.00000  Uiso   1.00
O85    O     0.00950   0.95025   0.60467   0.00000  Uiso   1.00
O86    O     0.36232   0.31977   0.35631   0.00000  Uiso   1.00
N87    N     0.34884   0.73203   0.86577   0.00000  Uiso   1.00
N88    N     0.03669   0.85482   0.63222   0.00000  Uiso   1.00
N89    N     0.28810   0.40554   0.45523   0.00000  Uiso   1.00
N90    N     0.44600   0.76907   0.82588   0.00000  Uiso   1.00
N91    N     0.13385   0.89185   0.59233   0.00000  Uiso   1.00
N92    N     0.38526   0.44257   0.41535   0.00000  Uiso   1.00
C93    C     0.61809   0.03880   0.89723   0.00000  Uiso   1.00
C94    C     0.68220   0.08894   0.91903   0.00000  Uiso   1.00
C95    C     0.75609   0.07499   0.88500   0.00000  Uiso   1.00
C96    C     0.80632   0.12772   0.91318   0.00000  Uiso   1.00
C97    C     0.90937   0.19578   0.93791   0.00000  Uiso   1.00
C98    C     0.59435   0.02291   0.95542   0.00000  Uiso   1.00
C99    C     0.59437   0.95344   0.95198   0.00000  Uiso   1.00
C100   C     0.57064   0.95059   0.01078   0.00000  Uiso   1.00
C101   C     0.53724   0.91613   0.09199   0.00000  Uiso   1.00
C102   C     0.54880   0.08571   0.89300   0.00000  Uiso   1.00
C103   C     0.51051   0.06903   0.83709   0.00000  Uiso   1.00
C104   C     0.44842   0.11905   0.84335   0.00000  Uiso   1.00
C105   C     0.34431   0.18210   0.82766   0.00000  Uiso   1.00
C106   C     0.57589   0.15727   0.00778   0.00000  Uiso   1.00
C107   C     0.65928   0.15329   0.97908   0.00000  Uiso   1.00
C108   C     0.70941   0.20606   0.00731   0.00000  Uiso   1.00
C109   C     0.78336   0.19219   0.97333   0.00000  Uiso   1.00
C110   C     0.57143   0.08726   0.01546   0.00000  Uiso   1.00
C111   C     0.54769   0.08451   0.07428   0.00000  Uiso   1.00
C112   C     0.54768   0.01505   0.07094   0.00000  Uiso   1.00
C113   C     0.52588   0.15006   0.95305   0.00000  Uiso   1.00
C114   C     0.46383   0.20011   0.95940   0.00000  Uiso   1.00
C115   C     0.42546   0.18351   0.90351   0.00000  Uiso   1.00
H116   H     0.63593   0.98870   0.85048   0.00000  Uiso   1.00
H117   H     0.77381   0.02518   0.83854   0.00000  Uiso   1.00
H118   H     0.61210   0.90365   0.90550   0.00000  Uiso   1.00
H119   H     0.52826   0.01923   0.79063   0.00000  Uiso   1.00
H120   H     0.91657   0.09399   0.85179   0.00000  Uiso   1.00
H121   H     0.57559   0.83774   0.99298   0.00000  Uiso   1.00
H122   H     0.39879   0.08147   0.75075   0.00000  Uiso   1.00
H123   H     0.55805   0.20737   0.05453   0.00000  Uiso   1.00
H124   H     0.69166   0.25585   0.05378   0.00000  Uiso   1.00
H125   H     0.52995   0.13432   0.12074   0.00000  Uiso   1.00
H126   H     0.44611   0.24990   0.00587   0.00000  Uiso   1.00
H127   H     0.84990   0.28121   0.02648   0.00000  Uiso   1.00
H128   H     0.50891   0.02496   0.16767   0.00000  Uiso   1.00
H129   H     0.33212   0.26869   0.92545   0.00000  Uiso   1.00
O130   O     0.97254   0.21554   0.93497   0.00000  Uiso   1.00
O131   O     0.52516   0.87935   0.12020   0.00000  Uiso   1.00
O132   O     0.29322   0.19911   0.80241   0.00000  Uiso   1.00
N133   N     0.88254   0.13141   0.89300   0.00000  Uiso   1.00
N134   N     0.56375   0.89183   0.02500   0.00000  Uiso   1.00
N135   N     0.39845   0.11968   0.79855   0.00000  Uiso   1.00
N136   N     0.84666   0.23215   0.98700   0.00000  Uiso   1.00
N137   N     0.52787   0.99257   0.11901   0.00000  Uiso   1.00
N138   N     0.36257   0.22042   0.89255   0.00000  Uiso   1.00
C139   C     0.19299   0.77522   0.13404   0.00000  Uiso   1.00
C140   C     0.23278   0.82872   0.19166   0.00000  Uiso   1.00
C141   C     0.21056   0.85188   0.25910   0.00000  Uiso   1.00
C142   C     0.25450   0.90100   0.30404   0.00000  Uiso   1.00
C143   C     0.30658   0.98023   0.39682   0.00000  Uiso   1.00
C144   C     0.25563   0.71267   0.08872   0.00000  Uiso   1.00
C145   C     0.25261   0.63826   0.06960   0.00000  Uiso   1.00
C146   C     0.31579   0.58969   0.02789   0.00000  Uiso   1.00
C147   C     0.40333   0.48876   0.96081   0.00000  Uiso   1.00
C148   C     0.17113   0.81581   0.09427   0.00000  Uiso   1.00
C149   C     0.09707   0.82811   0.07979   0.00000  Uiso   1.00
C150   C     0.08910   0.86637   0.04273   0.00000  Uiso   1.00
C151   C     0.04544   0.92558   0.98427   0.00000  Uiso   1.00
C152   C     0.31054   0.82126   0.09395   0.00000  Uiso   1.00
C153   C     0.29662   0.85372   0.16988   0.00000  Uiso   1.00
C154   C     0.34061   0.90282   0.21474   0.00000  Uiso   1.00
C155   C     0.31846   0.92606   0.28223   0.00000  Uiso   1.00
C156   C     0.31947   0.73768   0.06695   0.00000  Uiso   1.00
C157   C     0.38266   0.68921   0.02525   0.00000  Uiso   1.00
C158   C     0.37975   0.61475   0.00607   0.00000  Uiso   1.00
C159   C     0.23497   0.84083   0.07249   0.00000  Uiso   1.00
C160   C     0.22712   0.87906   0.03544   0.00000  Uiso   1.00
C161   C     0.15306   0.89142   0.02091   0.00000  Uiso   1.00
H162   H     0.14329   0.75574   0.15099   0.00000  Uiso   1.00
H163   H     0.16115   0.83251   0.27593   0.00000  Uiso   1.00
H164   H     0.20320   0.61893   0.08646   0.00000  Uiso   1.00
H165   H     0.04767   0.80875   0.09665   0.00000  Uiso   1.00
H166   H     0.20912   0.92862   0.40484   0.00000  Uiso   1.00
H167   H     0.29777   0.47827   0.00531   0.00000  Uiso   1.00
H168   H     0.96982   0.87856   0.02680   0.00000  Uiso   1.00
H169   H     0.36025   0.84073   0.07699   0.00000  Uiso   1.00
H170   H     0.39001   0.92217   0.19787   0.00000  Uiso   1.00
H171   H     0.43206   0.70858   0.00840   0.00000  Uiso   1.00
H172   H     0.27654   0.89841   0.01860   0.00000  Uiso   1.00
H173   H     0.39488   0.00139   0.34148   0.00000  Uiso   1.00
H174   H     0.48353   0.55104   0.94195   0.00000  Uiso   1.00
H175   H     0.15558   0.95132   0.96345   0.00000  Uiso   1.00
O176   O     0.31768   0.01702   0.45401   0.00000  Uiso   1.00
O177   O     0.43398   0.42618   0.92984   0.00000  Uiso   1.00
O178   O     0.00372   0.95135   0.95804   0.00000  Uiso   1.00
N179   N     0.24875   0.93458   0.37334   0.00000  Uiso   1.00
N180   N     0.33163   0.51353   0.99981   0.00000  Uiso   1.00
N181   N     0.02503   0.88775   0.01989   0.00000  Uiso   1.00
N182   N     0.34870   0.97374   0.33925   0.00000  Uiso   1.00
N183   N     0.43159   0.55269   0.96572   0.00000  Uiso   1.00
N184   N     0.12498   0.92691   0.98580   0.00000  Uiso   1.00
C185   C     0.80174   0.93902   0.37214   0.00000  Uiso   1.00
C186   C     0.84723   0.00213   0.41325   0.00000  Uiso   1.00
C187   C     0.83658   0.07328   0.42034   0.00000  Uiso   1.00
C188   C     0.88403   0.12302   0.46012   0.00000  Uiso   1.00
C189   C     0.94611   0.22418   0.51919   0.00000  Uiso   1.00
C190   C     0.76685   0.91238   0.42022   0.00000  Uiso   1.00
C191   C     0.68863   0.90807   0.43317   0.00000  Uiso   1.00
C192   C     0.66842   0.88225   0.47880   0.00000  Uiso   1.00
C193   C     0.60573   0.84402   0.54866   0.00000  Uiso   1.00
C194   C     0.86185   0.87639   0.32271   0.00000  Uiso   1.00
C195   C     0.86350   0.84178   0.25366   0.00000  Uiso   1.00
C196   C     0.92327   0.78565   0.21720   0.00000  Uiso   1.00
C197   C     0.00808   0.69153   0.13565   0.00000  Uiso   1.00
C198   C     0.90495   0.90084   0.43016   0.00000  Uiso   1.00
C199   C     0.90328   0.98139   0.44477   0.00000  Uiso   1.00
C200   C     0.95077   0.03104   0.48454   0.00000  Uiso   1.00
C201   C     0.94019   0.10225   0.49169   0.00000  Uiso   1.00
C202   C     0.82291   0.89164   0.45174   0.00000  Uiso   1.00
C203   C     0.80282   0.86582   0.49736   0.00000  Uiso   1.00
C204   C     0.72458   0.86147   0.51038   0.00000  Uiso   1.00
C205   C     0.91792   0.85565   0.35423   0.00000  Uiso   1.00
C206   C     0.97769   0.79955   0.31786   0.00000  Uiso   1.00
C207   C     0.97943   0.76487   0.24877   0.00000  Uiso   1.00
H208   H     0.75809   0.95517   0.34760   0.00000  Uiso   1.00
H209   H     0.79318   0.08931   0.39595   0.00000  Uiso   1.00
H210   H     0.64526   0.92411   0.40876   0.00000  Uiso   1.00
H211   H     0.82011   0.85785   0.22929   0.00000  Uiso   1.00
H212   H     0.85679   0.22890   0.46347   0.00000  Uiso   1.00
H213   H     0.54489   0.88055   0.49047   0.00000  Uiso   1.00
H214   H     0.91359   0.74081   0.11202   0.00000  Uiso   1.00
H215   H     0.94859   0.88469   0.45470   0.00000  Uiso   1.00
H216   H     0.99415   0.01497   0.50892   0.00000  Uiso   1.00
H217   H     0.84622   0.84978   0.52174   0.00000  Uiso   1.00
H218   H     0.02107   0.78351   0.34227   0.00000  Uiso   1.00
H219   H     0.01990   0.16856   0.55517   0.00000  Uiso   1.00
H220   H     0.70799   0.82021   0.58217   0.00000  Uiso   1.00
H221   H     0.07670   0.68048   0.20372   0.00000  Uiso   1.00
O222   O     0.96486   0.28571   0.54307   0.00000  Uiso   1.00
O223   O     0.55565   0.82867   0.57849   0.00000  Uiso   1.00
O224   O     0.03938   0.64535   0.08197   0.00000  Uiso   1.00
N225   N     0.88894   0.19681   0.47760   0.00000  Uiso   1.00
N226   N     0.59733   0.87114   0.50285   0.00000  Uiso   1.00
N227   N     0.94202   0.74048   0.14903   0.00000  Uiso   1.00
N228   N     0.97671   0.16435   0.52694   0.00000  Uiso   1.00
N229   N     0.68509   0.83867   0.55219   0.00000  Uiso   1.00
N230   N     0.02979   0.70802   0.19837   0.00000  Uiso   1.00
C231   C     0.95840   0.33517   0.78250   0.00000  Uiso   1.00
C232   C     0.01389   0.35534   0.83558   0.00000  Uiso   1.00
C233   C     0.08610   0.31748   0.82833   0.00000  Uiso   1.00
C234   C     0.12802   0.34474   0.88275   0.00000  Uiso   1.00
C235   C     0.21865   0.36651   0.95611   0.00000  Uiso   1.00
C236   C     0.94211   0.40347   0.77246   0.00000  Uiso   1.00
C237   C     0.95397   0.40607   0.71214   0.00000  Uiso   1.00
C238   C     0.93546   0.47385   0.71342   0.00000  Uiso   1.00
C239   C     0.91461   0.57033   0.68878   0.00000  Uiso   1.00
C240   C     0.88223   0.32603   0.81450   0.00000  Uiso   1.00
C241   C     0.84373   0.26353   0.78952   0.00000  Uiso   1.00
C242   C     0.77479   0.26612   0.82619   0.00000  Uiso   1.00
C243   C     0.66097   0.24237   0.86683   0.00000  Uiso   1.00
C244   C     0.90444   0.45091   0.89203   0.00000  Uiso   1.00
C245   C     0.98457   0.41821   0.89507   0.00000  Uiso   1.00
C246   C     0.02640   0.44553   0.94952   0.00000  Uiso   1.00
C247   C     0.09866   0.40771   0.94235   0.00000  Uiso   1.00
C248   C     0.91280   0.46634   0.83195   0.00000  Uiso   1.00
C249   C     0.89427   0.53412   0.83332   0.00000  Uiso   1.00
C250   C     0.90610   0.53683   0.77302   0.00000  Uiso   1.00
C251   C     0.85292   0.38890   0.87400   0.00000  Uiso   1.00
C252   C     0.78403   0.39158   0.91071   0.00000  Uiso   1.00
C253   C     0.74543   0.32910   0.88579   0.00000  Uiso   1.00
H254   H     0.98122   0.28623   0.73618   0.00000  Uiso   1.00
H255   H     0.10877   0.26883   0.78228   0.00000  Uiso   1.00
H256   H     0.97665   0.35741   0.66611   0.00000  Uiso   1.00
H257   H     0.86643   0.21489   0.74348   0.00000  Uiso   1.00
H258   H     0.23726   0.27728   0.85962   0.00000  Uiso   1.00
H259   H     0.95866   0.46405   0.61466   0.00000  Uiso   1.00
H260   H     0.72623   0.16352   0.77782   0.00000  Uiso   1.00
H261   H     0.88162   0.49986   0.93835   0.00000  Uiso   1.00
H262   H     0.00370   0.49418   0.99555   0.00000  Uiso   1.00
H263   H     0.87158   0.58276   0.87937   0.00000  Uiso   1.00
H264   H     0.76136   0.44024   0.95674   0.00000  Uiso   1.00
H265   H     0.15199   0.46018   0.03272   0.00000  Uiso   1.00
H266   H     0.87338   0.64695   0.78775   0.00000  Uiso   1.00
H267   H     0.64096   0.34642   0.95091   0.00000  Uiso   1.00
O268   O     0.27674   0.36116   0.98014   0.00000  Uiso   1.00
O269   O     0.91121   0.60618   0.65875   0.00000  Uiso   1.00
O270   O     0.60628   0.21189   0.87282   0.00000  Uiso   1.00
N271   N     0.20043   0.32110   0.89252   0.00000  Uiso   1.00
N272   N     0.93997   0.49572   0.66349   0.00000  Uiso   1.00
N273   N     0.72266   0.21475   0.81602   0.00000  Uiso   1.00
N274   N     0.15454   0.41951   0.98566   0.00000  Uiso   1.00
N275   N     0.89408   0.59414   0.75663   0.00000  Uiso   1.00
N276   N     0.67677   0.31317   0.90916   0.00000  Uiso   1.00
C277   C     0.28805   0.46894   0.81122   0.00000  Uiso   1.00
C278   C     0.27028   0.39671   0.75472   0.00000  Uiso   1.00
C279   C     0.27670   0.32849   0.75426   0.00000  Uiso   1.00
C280   C     0.25771   0.26910   0.69788   0.00000  Uiso   1.00
C281   C     0.23380   0.15565   0.61837   0.00000  Uiso   1.00
C282   C     0.21441   0.52268   0.83096   0.00000  Uiso   1.00
C283   C     0.17386   0.56038   0.89460   0.00000  Uiso   1.00
C284   C     0.10785   0.60704   0.90240   0.00000  Uiso   1.00
C285   C     0.99723   0.68920   0.94125   0.00000  Uiso   1.00
C286   C     0.34854   0.49827   0.77992   0.00000  Uiso   1.00
C287   C     0.42077   0.51546   0.80067   0.00000  Uiso   1.00
C288   C     0.46768   0.54157   0.76551   0.00000  Uiso   1.00
C289   C     0.56533   0.58583   0.72513   0.00000  Uiso   1.00
C290   C     0.24292   0.48478   0.71190   0.00000  Uiso   1.00
C291   C     0.24576   0.40532   0.70077   0.00000  Uiso   1.00
C292   C     0.22676   0.34602   0.64438   0.00000  Uiso   1.00
C293   C     0.23315   0.27772   0.64384   0.00000  Uiso   1.00
C294   C     0.18989   0.53129   0.77701   0.00000  Uiso   1.00
C295   C     0.12392   0.57791   0.78471   0.00000  Uiso   1.00
C296   C     0.08329   0.61566   0.84835   0.00000  Uiso   1.00
C297   C     0.32402   0.50687   0.72598   0.00000  Uiso   1.00
C298   C     0.37083   0.53298   0.69078   0.00000  Uiso   1.00
C299   C     0.44312   0.55020   0.71147   0.00000  Uiso   1.00
H300   H     0.30714   0.46224   0.85322   0.00000  Uiso   1.00
H301   H     0.29567   0.32185   0.79603   0.00000  Uiso   1.00
H302   H     0.19285   0.55371   0.93634   0.00000  Uiso   1.00
H303   H     0.43972   0.50879   0.84242   0.00000  Uiso   1.00
H304   H     0.27211   0.17001   0.70883   0.00000  Uiso   1.00
H305   H     0.05533   0.65892   0.00470   0.00000  Uiso   1.00
H306   H     0.57591   0.56419   0.80665   0.00000  Uiso   1.00
H307   H     0.22383   0.49148   0.66990   0.00000  Uiso   1.00
H308   H     0.20779   0.35270   0.60264   0.00000  Uiso   1.00
H309   H     0.10497   0.58456   0.74296   0.00000  Uiso   1.00
H310   H     0.35184   0.53963   0.64904   0.00000  Uiso   1.00
H311   H     0.20078   0.19504   0.55187   0.00000  Uiso   1.00
H312   H     0.98400   0.68395   0.84774   0.00000  Uiso   1.00
H313   H     0.50458   0.58922   0.64969   0.00000  Uiso   1.00
O314   O     0.22737   0.09070   0.58942   0.00000  Uiso   1.00
O315   O     0.94298   0.73214   0.97759   0.00000  Uiso   1.00
O316   O     0.62596   0.60786   0.71776   0.00000  Uiso   1.00
N317   N     0.25754   0.19494   0.68112   0.00000  Uiso   1.00
N318   N     0.05486   0.65203   0.95773   0.00000  Uiso   1.00
N319   N     0.54155   0.56349   0.77259   0.00000  Uiso   1.00
N320   N     0.21916   0.20841   0.59666   0.00000  Uiso   1.00
N321   N     0.01648   0.66550   0.87327   0.00000  Uiso   1.00
N322   N     0.50316   0.57696   0.68813   0.00000  Uiso   1.00
C323   C     0.70792   0.16240   0.61600   0.00000  Uiso   1.00
C324   C     0.64598   0.13410   0.56912   0.00000  Uiso   1.00
C325   C     0.65089   0.12342   0.50368   0.00000  Uiso   1.00
C326   C     0.58806   0.09713   0.46908   0.00000  Uiso   1.00
C327   C     0.50183   0.05545   0.39174   0.00000  Uiso   1.00
C328   C     0.72721   0.10392   0.63856   0.00000  Uiso   1.00
C329   C     0.80043   0.06787   0.63151   0.00000  Uiso   1.00
C330   C     0.80598   0.01618   0.65538   0.00000  Uiso   1.00
C331   C     0.84588   0.92768   0.68588   0.00000  Uiso   1.00
C332   C     0.66813   0.23019   0.67797   0.00000  Uiso   1.00
C333   C     0.69168   0.30030   0.70407   0.00000  Uiso   1.00
C334   C     0.64751   0.35491   0.76113   0.00000  Uiso   1.00
C335   C     0.59568   0.46246   0.85282   0.00000  Uiso   1.00
C336   C     0.58761   0.13472   0.67094   0.00000  Uiso   1.00
C337   C     0.58063   0.11907   0.59896   0.00000  Uiso   1.00
C338   C     0.51777   0.09279   0.56446   0.00000  Uiso   1.00
C339   C     0.52259   0.08207   0.49898   0.00000  Uiso   1.00
C340   C     0.66187   0.08889   0.66840   0.00000  Uiso   1.00
C341   C     0.66731   0.03724   0.69229   0.00000  Uiso   1.00
C342   C     0.74051   0.00112   0.68527   0.00000  Uiso   1.00
C343   C     0.60278   0.21516   0.70781   0.00000  Uiso   1.00
C344   C     0.55857   0.26967   0.76484   0.00000  Uiso   1.00
C345   C     0.58204   0.33985   0.79102   0.00000  Uiso   1.00
H346   H     0.75880   0.17410   0.59277   0.00000  Uiso   1.00
H347   H     0.70148   0.13505   0.48060   0.00000  Uiso   1.00
H348   H     0.85099   0.07952   0.60842   0.00000  Uiso   1.00
H349   H     0.74226   0.31191   0.68096   0.00000  Uiso   1.00
H350   H     0.60911   0.08511   0.36939   0.00000  Uiso   1.00
H351   H     0.92437   0.96803   0.63892   0.00000  Uiso   1.00
H352   H     0.69509   0.45807   0.79190   0.00000  Uiso   1.00
H353   H     0.53673   0.12301   0.69417   0.00000  Uiso   1.00
H354   H     0.46721   0.08116   0.58756   0.00000  Uiso   1.00
H355   H     0.61673   0.02563   0.71538   0.00000  Uiso   1.00
H356   H     0.50800   0.25802   0.78792   0.00000  Uiso   1.00
H357   H     0.41897   0.04136   0.45620   0.00000  Uiso   1.00
H358   H     0.73424   0.92429   0.72574   0.00000  Uiso   1.00
H359   H     0.50496   0.41433   0.87871   0.00000  Uiso   1.00
O360   O     0.47233   0.03660   0.34083   0.00000  Uiso   1.00
O361   O     0.88594   0.88301   0.69446   0.00000  Uiso   1.00
O362   O     0.58513   0.52594   0.89515   0.00000  Uiso   1.00
N363   N     0.57389   0.08057   0.40446   0.00000  Uiso   1.00
N364   N     0.86864   0.97110   0.65644   0.00000  Uiso   1.00
N365   N     0.65430   0.42925   0.79947   0.00000  Uiso   1.00
N366   N     0.47158   0.05703   0.45117   0.00000  Uiso   1.00
N367   N     0.76633   0.94756   0.70316   0.00000  Uiso   1.00
N368   N     0.55199   0.40571   0.84619   0.00000  Uiso   1.00
C369   C     0.52425   0.63899   0.28351   0.00000  Uiso   1.00
C370   C     0.46127   0.59436   0.24638   0.00000  Uiso   1.00
C371   C     0.39307   0.62294   0.23423   0.00000  Uiso   1.00
C372   C     0.34291   0.57297   0.19938   0.00000  Uiso   1.00
C373   C     0.24247   0.51519   0.14502   0.00000  Uiso   1.00
C374   C     0.59922   0.60660   0.23571   0.00000  Uiso   1.00
C375   C     0.64701   0.64549   0.21459   0.00000  Uiso   1.00
C376   C     0.71298   0.60583   0.17077   0.00000  Uiso   1.00
C377   C     0.82674   0.56707   0.09988   0.00000  Uiso   1.00
C378   C     0.53435   0.62036   0.34084   0.00000  Uiso   1.00
C379   C     0.52760   0.67081   0.40813   0.00000  Uiso   1.00
C380   C     0.53898   0.64273   0.45282   0.00000  Uiso   1.00
C381   C     0.55201   0.62533   0.54517   0.00000  Uiso   1.00
C382   C     0.55646   0.49940   0.24323   0.00000  Uiso   1.00
C383   C     0.47877   0.51853   0.22450   0.00000  Uiso   1.00
C384   C     0.42870   0.46850   0.18966   0.00000  Uiso   1.00
C385   C     0.36043   0.49701   0.17746   0.00000  Uiso   1.00
C386   C     0.61672   0.53078   0.21383   0.00000  Uiso   1.00
C387   C     0.68264   0.49105   0.17003   0.00000  Uiso   1.00
C388   C     0.73051   0.52987   0.14885   0.00000  Uiso   1.00
C389   C     0.55184   0.54454   0.31897   0.00000  Uiso   1.00
C390   C     0.56323   0.51637   0.36356   0.00000  Uiso   1.00
C391   C     0.55650   0.56677   0.43090   0.00000  Uiso   1.00
H392   H     0.51064   0.69802   0.30054   0.00000  Uiso   1.00
H393   H     0.37955   0.68162   0.25116   0.00000  Uiso   1.00
H394   H     0.63346   0.70417   0.23154   0.00000  Uiso   1.00
H395   H     0.51407   0.72948   0.42504   0.00000  Uiso   1.00
H396   H     0.24195   0.63000   0.18674   0.00000  Uiso   1.00
H397   H     0.77733   0.67755   0.14538   0.00000  Uiso   1.00
H398   H     0.52558   0.73093   0.55342   0.00000  Uiso   1.00
H399   H     0.57009   0.44037   0.22620   0.00000  Uiso   1.00
H400   H     0.44226   0.40983   0.17274   0.00000  Uiso   1.00
H401   H     0.69616   0.43238   0.15311   0.00000  Uiso   1.00
H402   H     0.57677   0.45769   0.34662   0.00000  Uiso   1.00
H403   H     0.29284   0.40940   0.12309   0.00000  Uiso   1.00
H404   H     0.82823   0.45695   0.08173   0.00000  Uiso   1.00
H405   H     0.57647   0.51033   0.48977   0.00000  Uiso   1.00
O406   O     0.18224   0.50426   0.12107   0.00000  Uiso   1.00
O407   O     0.88466   0.56665   0.06682   0.00000  Uiso   1.00
O408   O     0.55435   0.63668   0.60216   0.00000  Uiso   1.00
N409   N     0.27146   0.58228   0.17911   0.00000  Uiso   1.00
N410   N     0.77201   0.62673   0.14043   0.00000  Uiso   1.00
N411   N     0.53666   0.67664   0.52192   0.00000  Uiso   1.00
N412   N     0.29884   0.46358   0.14486   0.00000  Uiso   1.00
N413   N     0.79939   0.50803   0.10618   0.00000  Uiso   1.00
N414   N     0.56404   0.55793   0.48766   0.00000  Uiso   1.00
C415   C     0.84657   0.02909   0.09695   0.00000  Uiso   1.00
C416   C     0.81768   0.95386   0.06024   0.00000  Uiso   1.00
C417   C     0.83077   0.90803   0.99181   0.00000  Uiso   1.00
C418   C     0.79943   0.84144   0.96794   0.00000  Uiso   1.00
C419   C     0.76107   0.72768   0.90438   0.00000  Uiso   1.00
C420   C     0.77468   0.08355   0.13524   0.00000  Uiso   1.00
C421   C     0.75161   0.14677   0.12987   0.00000  Uiso   1.00
C422   C     0.68407   0.18936   0.16914   0.00000  Uiso   1.00
C423   C     0.57897   0.27698   0.22205   0.00000  Uiso   1.00
C424   C     0.89326   0.02466   0.14973   0.00000  Uiso   1.00
C425   C     0.96990   0.03838   0.15655   0.00000  Uiso   1.00
C426   C     0.00219   0.03140   0.20804   0.00000  Uiso   1.00
C427   C     0.08120   0.02758   0.28344   0.00000  Uiso   1.00
C428   C     0.76764   0.99231   0.17626   0.00000  Uiso   1.00
C429   C     0.77481   0.93389   0.10332   0.00000  Uiso   1.00
C430   C     0.74344   0.86734   0.07955   0.00000  Uiso   1.00
C431   C     0.75648   0.82142   0.01109   0.00000  Uiso   1.00
C432   C     0.73180   0.06358   0.17831   0.00000  Uiso   1.00
C433   C     0.66428   0.10608   0.21761   0.00000  Uiso   1.00
C434   C     0.64112   0.16935   0.21229   0.00000  Uiso   1.00
C435   C     0.85039   0.00468   0.19280   0.00000  Uiso   1.00
C436   C     0.88256   0.99769   0.24429   0.00000  Uiso   1.00
C437   C     0.95924   0.01139   0.25119   0.00000  Uiso   1.00
H438   H     0.87995   0.04465   0.06342   0.00000  Uiso   1.00
H439   H     0.86395   0.92351   0.95849   0.00000  Uiso   1.00
H440   H     0.78481   0.16222   0.09653   0.00000  Uiso   1.00
H441   H     0.00306   0.05384   0.12321   0.00000  Uiso   1.00
H442   H     0.82728   0.78042   0.86115   0.00000  Uiso   1.00
H443   H     0.66042   0.28376   0.15224   0.00000  Uiso   1.00
H444   H     0.12064   0.05522   0.20849   0.00000  Uiso   1.00
H445   H     0.73426   0.97676   0.20980   0.00000  Uiso   1.00
H446   H     0.71026   0.85190   0.11290   0.00000  Uiso   1.00
H447   H     0.63112   0.09061   0.25094   0.00000  Uiso   1.00
H448   H     0.84937   0.98223   0.27762   0.00000  Uiso   1.00
H449   H     0.70254   0.72229   0.98647   0.00000  Uiso   1.00
H450   H     0.53568   0.22564   0.27756   0.00000  Uiso   1.00
H451   H     0.99590   0.99710   0.33381   0.00000  Uiso   1.00
O452   O     0.75174   0.67045   0.85742   0.00000  Uiso   1.00
O453   O     0.53283   0.33082   0.23933   0.00000  Uiso   1.00
O454   O     0.13663   0.03099   0.31313   0.00000  Uiso   1.00
N455   N     0.80123   0.78387   0.90394   0.00000  Uiso   1.00
N456   N     0.64522   0.25445   0.17608   0.00000  Uiso   1.00
N457   N     0.07548   0.04081   0.22869   0.00000  Uiso   1.00
N458   N     0.73411   0.75259   0.97138   0.00000  Uiso   1.00
N459   N     0.57810   0.22318   0.24352   0.00000  Uiso   1.00
N460   N     0.00836   0.00954   0.29612   0.00000  Uiso   1.00
C461   C     0.27068   0.95758   0.82275   0.00000  Uiso   1.00
C462   C     0.19211   0.92801   0.81790   0.00000  Uiso   1.00
C463   C     0.17587   0.86584   0.82422   0.00000  Uiso   1.00
C464   C     0.10039   0.84793   0.81817   0.00000  Uiso   1.00
C465   C     0.98708   0.79549   0.81242   0.00000  Uiso   1.00
C466   C     0.29110   0.96144   0.75763   0.00000  Uiso   1.00
C467   C     0.35808   0.92738   0.71327   0.00000  Uiso   1.00
C468   C     0.36592   0.93762   0.65649   0.00000  Uiso   1.00
C469   C     0.40632   0.93712   0.55718   0.00000  Uiso   1.00
C470   C     0.25678   0.03727   0.87767   0.00000  Uiso   1.00
C471   C     0.29492   0.06697   0.93425   0.00000  Uiso   1.00
C472   C     0.27389   0.14106   0.97853   0.00000  Uiso   1.00
C473   C     0.26100   0.25829   0.06562   0.00000  Uiso   1.00
C474   C     0.16552   0.03635   0.80079   0.00000  Uiso   1.00
C475   C     0.13500   0.97080   0.80597   0.00000  Uiso   1.00
C476   C     0.05952   0.95299   0.79992   0.00000  Uiso   1.00
C477   C     0.04316   0.89079   0.80622   0.00000  Uiso   1.00
C478   C     0.23398   0.00422   0.74570   0.00000  Uiso   1.00
C479   C     0.24173   0.01453   0.68897   0.00000  Uiso   1.00
C480   C     0.30870   0.98048   0.64454   0.00000  Uiso   1.00
C481   C     0.19966   0.08005   0.86575   0.00000  Uiso   1.00
C482   C     0.17857   0.15412   0.90995   0.00000  Uiso   1.00
C483   C     0.21667   0.18392   0.96658   0.00000  Uiso   1.00
H484   H     0.31516   0.92427   0.83204   0.00000  Uiso   1.00
H485   H     0.22009   0.83273   0.83344   0.00000  Uiso   1.00
H486   H     0.40227   0.89428   0.72252   0.00000  Uiso   1.00
H487   H     0.33912   0.03384   0.94346   0.00000  Uiso   1.00
H488   H     0.08950   0.75010   0.82972   0.00000  Uiso   1.00
H489   H     0.47366   0.87988   0.59583   0.00000  Uiso   1.00
H490   H     0.34050   0.17419   0.06174   0.00000  Uiso   1.00
H491   H     0.12105   0.06967   0.79150   0.00000  Uiso   1.00
H492   H     0.01533   0.98611   0.79069   0.00000  Uiso   1.00
H493   H     0.19752   0.04764   0.67976   0.00000  Uiso   1.00
H494   H     0.13437   0.18721   0.90070   0.00000  Uiso   1.00
H495   H     0.92332   0.87458   0.79501   0.00000  Uiso   1.00
H496   H     0.30748   0.00436   0.56113   0.00000  Uiso   1.00
H497   H     0.17431   0.29867   0.02703   0.00000  Uiso   1.00
O498   O     0.94037   0.75474   0.81253   0.00000  Uiso   1.00
O499   O     0.44438   0.92501   0.50570   0.00000  Uiso   1.00
O500   O     0.26967   0.31113   0.11695   0.00000  Uiso   1.00
N501   N     0.06490   0.79088   0.82167   0.00000  Uiso   1.00
N502   N     0.42406   0.91220   0.60300   0.00000  Uiso   1.00
N503   N     0.29958   0.18736   0.03857   0.00000  Uiso   1.00
N504   N     0.97547   0.85786   0.80300   0.00000  Uiso   1.00
N505   N     0.33463   0.97918   0.58433   0.00000  Uiso   1.00
N506   N     0.21015   0.25434   0.01990   0.00000  Uiso   1.00
C507   C     0.06388   0.46413   0.38449   0.00000  Uiso   1.00
C508   C     0.03615   0.43456   0.31557   0.00000  Uiso   1.00
C509   C     0.96175   0.44860   0.30270   0.00000  Uiso   1.00
C510   C     0.94799   0.41640   0.23623   0.00000  Uiso   1.00
C511   C     0.89602   0.37724   0.13709   0.00000  Uiso   1.00
C512   C     0.09621   0.39668   0.39084   0.00000  Uiso   1.00
C513   C     0.07230   0.37889   0.44127   0.00000  Uiso   1.00
C514   C     0.10910   0.31481   0.43817   0.00000  Uiso   1.00
C515   C     0.15040   0.21688   0.45592   0.00000  Uiso   1.00
C516   C     0.13319   0.50484   0.38184   0.00000  Uiso   1.00
C517   C     0.14039   0.57798   0.42470   0.00000  Uiso   1.00
C518   C     0.20833   0.60496   0.41402   0.00000  Uiso   1.00
C519   C     0.30705   0.67495   0.41778   0.00000  Uiso   1.00
C520   C     0.17174   0.38197   0.28933   0.00000  Uiso   1.00
C521   C     0.09474   0.38993   0.26389   0.00000  Uiso   1.00
C522   C     0.08108   0.35770   0.19742   0.00000  Uiso   1.00
C523   C     0.00668   0.37169   0.18446   0.00000  Uiso   1.00
C524   C     0.15479   0.35206   0.33916   0.00000  Uiso   1.00
C525   C     0.19163   0.28799   0.33599   0.00000  Uiso   1.00
C526   C     0.16779   0.27010   0.38640   0.00000  Uiso   1.00
C527   C     0.19177   0.46021   0.33015   0.00000  Uiso   1.00
C528   C     0.25972   0.48708   0.31942   0.00000  Uiso   1.00
C529   C     0.26702   0.56025   0.36225   0.00000  Uiso   1.00
H530   H     0.01827   0.49887   0.42472   0.00000  Uiso   1.00
H531   H     0.91643   0.48314   0.34271   0.00000  Uiso   1.00
H532   H     0.02697   0.41344   0.48126   0.00000  Uiso   1.00
H533   H     0.09504   0.61250   0.46468   0.00000  Uiso   1.00
H534   H     0.82935   0.44599   0.22899   0.00000  Uiso   1.00
H535   H     0.06244   0.29905   0.52114   0.00000  Uiso   1.00
H536   H     0.20599   0.71880   0.48620   0.00000  Uiso   1.00
H537   H     0.21735   0.34722   0.24910   0.00000  Uiso   1.00
H538   H     0.12643   0.32316   0.15744   0.00000  Uiso   1.00
H539   H     0.23697   0.25347   0.29599   0.00000  Uiso   1.00
H540   H     0.30504   0.45253   0.27942   0.00000  Uiso   1.00
H541   H     0.99979   0.31614   0.07862   0.00000  Uiso   1.00
H542   H     0.23289   0.16921   0.37078   0.00000  Uiso   1.00
H543   H     0.37643   0.58896   0.33583   0.00000  Uiso   1.00
O544   O     0.85116   0.36796   0.09668   0.00000  Uiso   1.00
O545   O     0.15698   0.17519   0.47999   0.00000  Uiso   1.00
O546   O     0.34531   0.72589   0.43413   0.00000  Uiso   1.00
N547   N     0.88194   0.41874   0.20618   0.00000  Uiso   1.00
N548   N     0.09986   0.28136   0.47932   0.00000  Uiso   1.00
N549   N     0.23408   0.67378   0.44666   0.00000  Uiso   1.00
N550   N     0.97366   0.34888   0.12526   0.00000  Uiso   1.00
N551   N     0.19158   0.21149   0.39841   0.00000  Uiso   1.00
N552   N     0.32579   0.60392   0.36574   0.00000  Uiso   1.00
