data_job_01256
_audit_creation_date              2018-12-19
_audit_creation_method            'Materials Studio'
_symmetry_space_group_name_H-M    'P1'
_symmetry_Int_Tables_number       1
_symmetry_cell_setting            triclinic
loop_
_symmetry_equiv_pos_as_xyz
  x,y,z
_cell_length_a                    13.4236
_cell_length_b                    18.0780
_cell_length_c                    9.5364
_cell_angle_alpha                 90.0000
_cell_angle_beta                  90.0000
_cell_angle_gamma                 90.0000
loop_
_atom_site_label
_atom_site_type_symbol
_atom_site_fract_x
_atom_site_fract_y
_atom_site_fract_z
_atom_site_U_iso_or_equiv
_atom_site_adp_type
_atom_site_occupancy
C1     C     0.76592   0.33475   0.11142   0.00000  Uiso   1.00
C2     C     0.77094   0.34005   0.95199   0.00000  Uiso   1.00
C3     C     0.82866   0.38966   0.87627   0.00000  Uiso   1.00
C4     C     0.82284   0.38566   0.73111   0.00000  Uiso   1.00
C5     C     0.83993   0.40179   0.49373   0.00000  Uiso   1.00
C6     C     0.65633   0.34375   0.14995   0.00000  Uiso   1.00
C7     C     0.61770   0.39647   0.24071   0.00000  Uiso   1.00
C8     C     0.51541   0.39558   0.26221   0.00000  Uiso   1.00
C9     C     0.35459   0.41742   0.33226   0.00000  Uiso   1.00
C10    C     0.79306   0.25514   0.14792   0.00000  Uiso   1.00
C11    C     0.86937   0.23334   0.23699   0.00000  Uiso   1.00
C12    C     0.88218   0.15785   0.25681   0.00000  Uiso   1.00
C13    C     0.93364   0.04211   0.32370   0.00000  Uiso   1.00
C14    C     0.65296   0.23944   0.98826   0.00000  Uiso   1.00
C15    C     0.70958   0.28828   0.88510   0.00000  Uiso   1.00
C16    C     0.70368   0.28421   0.74001   0.00000  Uiso   1.00
C17    C     0.76138   0.33380   0.66409   0.00000  Uiso   1.00
C18    C     0.59498   0.29198   0.08307   0.00000  Uiso   1.00
C19    C     0.49272   0.29102   0.10445   0.00000  Uiso   1.00
C20    C     0.45394   0.34372   0.19520   0.00000  Uiso   1.00
C21    C     0.73171   0.20337   0.08102   0.00000  Uiso   1.00
C22    C     0.74439   0.12789   0.10072   0.00000  Uiso   1.00
C23    C     0.82071   0.10599   0.18980   0.00000  Uiso   1.00
H24    H     0.81368   0.37505   0.16350   0.00000  Uiso   1.00
H25    H     0.87612   0.42972   0.92808   0.00000  Uiso   1.00
H26    H     0.66520   0.43652   0.29247   0.00000  Uiso   1.00
H27    H     0.91683   0.27342   0.28874   0.00000  Uiso   1.00
H28    H     0.91826   0.46751   0.63757   0.00000  Uiso   1.00
H29    H     0.47353   0.48183   0.40594   0.00000  Uiso   1.00
H30    H     0.00415   0.13791   0.39809   0.00000  Uiso   1.00
H31    H     0.60518   0.19913   0.93618   0.00000  Uiso   1.00
H32    H     0.65619   0.24414   0.68827   0.00000  Uiso   1.00
H33    H     0.44526   0.25094   0.05267   0.00000  Uiso   1.00
H34    H     0.69690   0.08785   0.04894   0.00000  Uiso   1.00
H35    H     0.73975   0.31689   0.44293   0.00000  Uiso   1.00
H36    H     0.29502   0.33121   0.21131   0.00000  Uiso   1.00
H37    H     0.82563   0.98729   0.20345   0.00000  Uiso   1.00
O38    O     0.86629   0.42500   0.38127   0.00000  Uiso   1.00
O39    O     0.28283   0.44378   0.38937   0.00000  Uiso   1.00
O40    O     0.97899   0.99257   0.37905   0.00000  Uiso   1.00
N41    N     0.86927   0.42587   0.62578   0.00000  Uiso   1.00
N42    N     0.45346   0.43927   0.34415   0.00000  Uiso   1.00
N43    N     0.94953   0.11774   0.33683   0.00000  Uiso   1.00
N44    N     0.77321   0.34483   0.52105   0.00000  Uiso   1.00
N45    N     0.35741   0.35822   0.23941   0.00000  Uiso   1.00
N46    N     0.85348   0.03669   0.23210   0.00000  Uiso   1.00
C47    C     0.73408   0.66525   0.61142   0.00000  Uiso   1.00
C48    C     0.72906   0.65995   0.45199   0.00000  Uiso   1.00
C49    C     0.67134   0.61034   0.37627   0.00000  Uiso   1.00
C50    C     0.67716   0.61434   0.23111   0.00000  Uiso   1.00
C51    C     0.66007   0.59821   0.99373   0.00000  Uiso   1.00
C52    C     0.84367   0.65625   0.64995   0.00000  Uiso   1.00
C53    C     0.88230   0.60353   0.74071   0.00000  Uiso   1.00
C54    C     0.98459   0.60442   0.76221   0.00000  Uiso   1.00
C55    C     0.14541   0.58258   0.83226   0.00000  Uiso   1.00
C56    C     0.70694   0.74486   0.64792   0.00000  Uiso   1.00
C57    C     0.63063   0.76666   0.73699   0.00000  Uiso   1.00
C58    C     0.61782   0.84215   0.75681   0.00000  Uiso   1.00
C59    C     0.56636   0.95789   0.82370   0.00000  Uiso   1.00
C60    C     0.84704   0.76056   0.48826   0.00000  Uiso   1.00
C61    C     0.79042   0.71172   0.38510   0.00000  Uiso   1.00
C62    C     0.79632   0.71579   0.24001   0.00000  Uiso   1.00
C63    C     0.73862   0.66620   0.16409   0.00000  Uiso   1.00
C64    C     0.90502   0.70802   0.58307   0.00000  Uiso   1.00
C65    C     0.00728   0.70898   0.60445   0.00000  Uiso   1.00
C66    C     0.04606   0.65628   0.69520   0.00000  Uiso   1.00
C67    C     0.76829   0.79663   0.58102   0.00000  Uiso   1.00
C68    C     0.75561   0.87211   0.60072   0.00000  Uiso   1.00
C69    C     0.67929   0.89401   0.68980   0.00000  Uiso   1.00
H70    H     0.68632   0.62495   0.66350   0.00000  Uiso   1.00
H71    H     0.62388   0.57028   0.42808   0.00000  Uiso   1.00
H72    H     0.83480   0.56348   0.79247   0.00000  Uiso   1.00
H73    H     0.58317   0.72658   0.78874   0.00000  Uiso   1.00
H74    H     0.58174   0.53249   0.13757   0.00000  Uiso   1.00
H75    H     0.02647   0.51817   0.90594   0.00000  Uiso   1.00
H76    H     0.49585   0.86209   0.89809   0.00000  Uiso   1.00
H77    H     0.89482   0.80087   0.43618   0.00000  Uiso   1.00
H78    H     0.84381   0.75586   0.18827   0.00000  Uiso   1.00
H79    H     0.05474   0.74906   0.55267   0.00000  Uiso   1.00
H80    H     0.80310   0.91215   0.54894   0.00000  Uiso   1.00
H81    H     0.76025   0.68311   0.94293   0.00000  Uiso   1.00
H82    H     0.20498   0.66879   0.71131   0.00000  Uiso   1.00
H83    H     0.67437   0.01271   0.70345   0.00000  Uiso   1.00
O84    O     0.63371   0.57500   0.88127   0.00000  Uiso   1.00
O85    O     0.21717   0.55622   0.88937   0.00000  Uiso   1.00
O86    O     0.52101   0.00743   0.87905   0.00000  Uiso   1.00
N87    N     0.63073   0.57413   0.12578   0.00000  Uiso   1.00
N88    N     0.04654   0.56073   0.84415   0.00000  Uiso   1.00
N89    N     0.55047   0.88226   0.83683   0.00000  Uiso   1.00
N90    N     0.72679   0.65517   0.02105   0.00000  Uiso   1.00
N91    N     0.14259   0.64178   0.73941   0.00000  Uiso   1.00
N92    N     0.64652   0.96331   0.73210   0.00000  Uiso   1.00
C93    C     0.23408   0.83475   0.38858   0.00000  Uiso   1.00
C94    C     0.22906   0.84005   0.54801   0.00000  Uiso   1.00
C95    C     0.17134   0.88966   0.62373   0.00000  Uiso   1.00
C96    C     0.17716   0.88566   0.76889   0.00000  Uiso   1.00
C97    C     0.16007   0.90179   0.00627   0.00000  Uiso   1.00
C98    C     0.34367   0.84375   0.35005   0.00000  Uiso   1.00
C99    C     0.38230   0.89647   0.25929   0.00000  Uiso   1.00
C100   C     0.48459   0.89558   0.23779   0.00000  Uiso   1.00
C101   C     0.64541   0.91742   0.16774   0.00000  Uiso   1.00
C102   C     0.20694   0.75514   0.35208   0.00000  Uiso   1.00
C103   C     0.13063   0.73334   0.26301   0.00000  Uiso   1.00
C104   C     0.11782   0.65785   0.24319   0.00000  Uiso   1.00
C105   C     0.06636   0.54211   0.17630   0.00000  Uiso   1.00
C106   C     0.34704   0.73944   0.51174   0.00000  Uiso   1.00
C107   C     0.29042   0.78828   0.61490   0.00000  Uiso   1.00
C108   C     0.29632   0.78421   0.75999   0.00000  Uiso   1.00
C109   C     0.23862   0.83380   0.83591   0.00000  Uiso   1.00
C110   C     0.40502   0.79198   0.41693   0.00000  Uiso   1.00
C111   C     0.50728   0.79102   0.39555   0.00000  Uiso   1.00
C112   C     0.54606   0.84372   0.30480   0.00000  Uiso   1.00
C113   C     0.26829   0.70337   0.41898   0.00000  Uiso   1.00
C114   C     0.25561   0.62789   0.39928   0.00000  Uiso   1.00
C115   C     0.17929   0.60599   0.31020   0.00000  Uiso   1.00
H116   H     0.18632   0.87505   0.33650   0.00000  Uiso   1.00
H117   H     0.12388   0.92972   0.57192   0.00000  Uiso   1.00
H118   H     0.33480   0.93652   0.20753   0.00000  Uiso   1.00
H119   H     0.08317   0.77342   0.21126   0.00000  Uiso   1.00
H120   H     0.08174   0.96751   0.86243   0.00000  Uiso   1.00
H121   H     0.52647   0.98183   0.09406   0.00000  Uiso   1.00
H122   H     0.99585   0.63791   0.10191   0.00000  Uiso   1.00
H123   H     0.39482   0.69913   0.56382   0.00000  Uiso   1.00
H124   H     0.34381   0.74414   0.81173   0.00000  Uiso   1.00
H125   H     0.55474   0.75094   0.44733   0.00000  Uiso   1.00
H126   H     0.30310   0.58785   0.45106   0.00000  Uiso   1.00
H127   H     0.26025   0.81689   0.05707   0.00000  Uiso   1.00
H128   H     0.70498   0.83121   0.28869   0.00000  Uiso   1.00
H129   H     0.17437   0.48729   0.29655   0.00000  Uiso   1.00
O130   O     0.13371   0.92500   0.11873   0.00000  Uiso   1.00
O131   O     0.71717   0.94378   0.11063   0.00000  Uiso   1.00
O132   O     0.02101   0.49257   0.12095   0.00000  Uiso   1.00
N133   N     0.13073   0.92587   0.87422   0.00000  Uiso   1.00
N134   N     0.54654   0.93927   0.15585   0.00000  Uiso   1.00
N135   N     0.05047   0.61774   0.16317   0.00000  Uiso   1.00
N136   N     0.22679   0.84483   0.97895   0.00000  Uiso   1.00
N137   N     0.64259   0.85822   0.26059   0.00000  Uiso   1.00
N138   N     0.14652   0.53669   0.26790   0.00000  Uiso   1.00
C139   C     0.26592   0.16525   0.88858   0.00000  Uiso   1.00
C140   C     0.27094   0.15995   0.04801   0.00000  Uiso   1.00
C141   C     0.32866   0.11034   0.12373   0.00000  Uiso   1.00
C142   C     0.32284   0.11434   0.26889   0.00000  Uiso   1.00
C143   C     0.33993   0.09821   0.50627   0.00000  Uiso   1.00
C144   C     0.15633   0.15625   0.85005   0.00000  Uiso   1.00
C145   C     0.11770   0.10353   0.75929   0.00000  Uiso   1.00
C146   C     0.01541   0.10442   0.73779   0.00000  Uiso   1.00
C147   C     0.85459   0.08258   0.66774   0.00000  Uiso   1.00
C148   C     0.29306   0.24486   0.85208   0.00000  Uiso   1.00
C149   C     0.36937   0.26666   0.76301   0.00000  Uiso   1.00
C150   C     0.38218   0.34215   0.74319   0.00000  Uiso   1.00
C151   C     0.43364   0.45789   0.67630   0.00000  Uiso   1.00
C152   C     0.15296   0.26056   0.01174   0.00000  Uiso   1.00
C153   C     0.20958   0.21172   0.11490   0.00000  Uiso   1.00
C154   C     0.20368   0.21579   0.25999   0.00000  Uiso   1.00
C155   C     0.26138   0.16620   0.33591   0.00000  Uiso   1.00
C156   C     0.09498   0.20802   0.91693   0.00000  Uiso   1.00
C157   C     0.99272   0.20898   0.89555   0.00000  Uiso   1.00
C158   C     0.95394   0.15628   0.80480   0.00000  Uiso   1.00
C159   C     0.23171   0.29663   0.91898   0.00000  Uiso   1.00
C160   C     0.24439   0.37211   0.89928   0.00000  Uiso   1.00
C161   C     0.32071   0.39401   0.81020   0.00000  Uiso   1.00
H162   H     0.31368   0.12495   0.83650   0.00000  Uiso   1.00
H163   H     0.37612   0.07028   0.07192   0.00000  Uiso   1.00
H164   H     0.16520   0.06348   0.70753   0.00000  Uiso   1.00
H165   H     0.41683   0.22658   0.71126   0.00000  Uiso   1.00
H166   H     0.41826   0.03249   0.36243   0.00000  Uiso   1.00
H167   H     0.97353   0.01817   0.59406   0.00000  Uiso   1.00
H168   H     0.50415   0.36209   0.60191   0.00000  Uiso   1.00
H169   H     0.10518   0.30087   0.06382   0.00000  Uiso   1.00
H170   H     0.15619   0.25586   0.31173   0.00000  Uiso   1.00
H171   H     0.94526   0.24906   0.94733   0.00000  Uiso   1.00
H172   H     0.19690   0.41215   0.95106   0.00000  Uiso   1.00
H173   H     0.23975   0.18311   0.55707   0.00000  Uiso   1.00
H174   H     0.79502   0.16879   0.78869   0.00000  Uiso   1.00
H175   H     0.32563   0.51271   0.79655   0.00000  Uiso   1.00
O176   O     0.36629   0.07500   0.61873   0.00000  Uiso   1.00
O177   O     0.78283   0.05622   0.61063   0.00000  Uiso   1.00
O178   O     0.47899   0.50743   0.62095   0.00000  Uiso   1.00
N179   N     0.36927   0.07413   0.37422   0.00000  Uiso   1.00
N180   N     0.95346   0.06073   0.65585   0.00000  Uiso   1.00
N181   N     0.44953   0.38226   0.66317   0.00000  Uiso   1.00
N182   N     0.27321   0.15517   0.47895   0.00000  Uiso   1.00
N183   N     0.85741   0.14178   0.76059   0.00000  Uiso   1.00
N184   N     0.35348   0.46331   0.76790   0.00000  Uiso   1.00
