data_job_02911
_audit_creation_date              2018-12-19
_audit_creation_method            'Materials Studio'
_symmetry_space_group_name_H-M    'P1'
_symmetry_Int_Tables_number       1
_symmetry_cell_setting            triclinic
loop_
_symmetry_equiv_pos_as_xyz
  x,y,z
_cell_length_a                    23.4026
_cell_length_b                    41.5330
_cell_length_c                    23.4269
_cell_angle_alpha                 90.0000
_cell_angle_beta                  119.9880
_cell_angle_gamma                 90.0000
loop_
_atom_site_label
_atom_site_type_symbol
_atom_site_fract_x
_atom_site_fract_y
_atom_site_fract_z
_atom_site_U_iso_or_equiv
_atom_site_adp_type
_atom_site_occupancy
C1     C     0.31630   0.57379   0.20848   0.00000  Uiso   1.00
C2     C     0.35938   0.56004   0.18252   0.00000  Uiso   1.00
C3     C     0.39546   0.57789   0.16137   0.00000  Uiso   1.00
C4     C     0.43175   0.56080   0.13938   0.00000  Uiso   1.00
C5     C     0.49859   0.54459   0.09915   0.00000  Uiso   1.00
C6     C     0.24770   0.55960   0.16519   0.00000  Uiso   1.00
C7     C     0.18988   0.57708   0.12947   0.00000  Uiso   1.00
C8     C     0.13215   0.55962   0.09290   0.00000  Uiso   1.00
C9     C     0.02560   0.54272   0.02580   0.00000  Uiso   1.00
C10    C     0.34200   0.55918   0.27674   0.00000  Uiso   1.00
C11    C     0.36346   0.57631   0.33482   0.00000  Uiso   1.00
C12    C     0.38512   0.55850   0.39216   0.00000  Uiso   1.00
C13    C     0.42500   0.54095   0.49827   0.00000  Uiso   1.00
C14    C     0.31659   0.51172   0.20704   0.00000  Uiso   1.00
C15    C     0.35953   0.52633   0.18174   0.00000  Uiso   1.00
C16    C     0.39578   0.50921   0.15977   0.00000  Uiso   1.00
C17    C     0.43191   0.52703   0.13859   0.00000  Uiso   1.00
C18    C     0.24785   0.52589   0.16440   0.00000  Uiso   1.00
C19    C     0.19020   0.50840   0.12787   0.00000  Uiso   1.00
C20    C     0.13231   0.52585   0.09211   0.00000  Uiso   1.00
C21    C     0.34216   0.52547   0.27596   0.00000  Uiso   1.00
C22    C     0.36379   0.50763   0.33322   0.00000  Uiso   1.00
C23    C     0.38528   0.52472   0.39137   0.00000  Uiso   1.00
H24    H     0.31617   0.60004   0.20909   0.00000  Uiso   1.00
H25    H     0.39532   0.60398   0.16198   0.00000  Uiso   1.00
H26    H     0.18977   0.60317   0.13010   0.00000  Uiso   1.00
H27    H     0.36333   0.60240   0.33541   0.00000  Uiso   1.00
H28    H     0.48312   0.59348   0.10938   0.00000  Uiso   1.00
H29    H     0.04971   0.59177   0.04216   0.00000  Uiso   1.00
H30    H     0.41569   0.59014   0.47511   0.00000  Uiso   1.00
H31    H     0.31671   0.48547   0.20643   0.00000  Uiso   1.00
H32    H     0.39589   0.48312   0.15917   0.00000  Uiso   1.00
H33    H     0.19034   0.48231   0.12728   0.00000  Uiso   1.00
H34    H     0.36390   0.48154   0.33259   0.00000  Uiso   1.00
H35    H     0.48358   0.49539   0.10709   0.00000  Uiso   1.00
H36    H     0.05017   0.49368   0.03988   0.00000  Uiso   1.00
H37    H     0.41615   0.49205   0.47282   0.00000  Uiso   1.00
O38    O     0.53541   0.54496   0.07718   0.00000  Uiso   1.00
O39    O     0.96679   0.54272   0.98900   0.00000  Uiso   1.00
O40    O     0.44696   0.54058   0.55701   0.00000  Uiso   1.00
N41    N     0.47237   0.57072   0.11534   0.00000  Uiso   1.00
N42    N     0.06716   0.56912   0.05249   0.00000  Uiso   1.00
N43    N     0.40931   0.56760   0.45725   0.00000  Uiso   1.00
N44    N     0.47262   0.51793   0.11411   0.00000  Uiso   1.00
N45    N     0.06741   0.51634   0.05126   0.00000  Uiso   1.00
N46    N     0.40956   0.51481   0.45602   0.00000  Uiso   1.00
C47    C     0.86511   0.24040   0.67381   0.00000  Uiso   1.00
C48    C     0.79565   0.22654   0.63446   0.00000  Uiso   1.00
C49    C     0.73785   0.24430   0.60144   0.00000  Uiso   1.00
C50    C     0.67925   0.22712   0.56831   0.00000  Uiso   1.00
C51    C     0.57150   0.21074   0.50725   0.00000  Uiso   1.00
C52    C     0.89461   0.22621   0.74289   0.00000  Uiso   1.00
C53    C     0.92003   0.24369   0.80103   0.00000  Uiso   1.00
C54    C     0.94475   0.22623   0.85917   0.00000  Uiso   1.00
C55    C     0.99069   0.20934   0.96644   0.00000  Uiso   1.00
C56    C     0.90419   0.22590   0.64401   0.00000  Uiso   1.00
C57    C     0.93768   0.24311   0.61904   0.00000  Uiso   1.00
C58    C     0.97049   0.22539   0.59394   0.00000  Uiso   1.00
C59    C     0.03131   0.20801   0.54769   0.00000  Uiso   1.00
C60    C     0.86384   0.17832   0.67369   0.00000  Uiso   1.00
C61    C     0.79496   0.19283   0.63440   0.00000  Uiso   1.00
C62    C     0.73644   0.17562   0.60130   0.00000  Uiso   1.00
C63    C     0.67856   0.19334   0.56824   0.00000  Uiso   1.00
C64    C     0.89392   0.19250   0.74282   0.00000  Uiso   1.00
C65    C     0.91862   0.17501   0.80089   0.00000  Uiso   1.00
C66    C     0.94406   0.19246   0.85910   0.00000  Uiso   1.00
C67    C     0.90351   0.19218   0.64394   0.00000  Uiso   1.00
C68    C     0.93627   0.17443   0.61889   0.00000  Uiso   1.00
C69    C     0.96980   0.19161   0.59388   0.00000  Uiso   1.00
H70    H     0.86565   0.26665   0.67387   0.00000  Uiso   1.00
H71    H     0.73840   0.27039   0.60152   0.00000  Uiso   1.00
H72    H     0.92056   0.26978   0.80107   0.00000  Uiso   1.00
H73    H     0.93821   0.26920   0.61910   0.00000  Uiso   1.00
H74    H     0.59701   0.25967   0.52128   0.00000  Uiso   1.00
H75    H     0.98113   0.25839   0.94205   0.00000  Uiso   1.00
H76    H     0.01835   0.25717   0.55834   0.00000  Uiso   1.00
H77    H     0.86330   0.15207   0.67363   0.00000  Uiso   1.00
H78    H     0.73592   0.14953   0.60126   0.00000  Uiso   1.00
H79    H     0.91808   0.14892   0.80081   0.00000  Uiso   1.00
H80    H     0.93573   0.14834   0.61884   0.00000  Uiso   1.00
H81    H     0.59500   0.16157   0.52107   0.00000  Uiso   1.00
H82    H     0.97912   0.16029   0.94185   0.00000  Uiso   1.00
H83    H     0.01634   0.15907   0.55813   0.00000  Uiso   1.00
O84    O     0.51226   0.21101   0.47359   0.00000  Uiso   1.00
O85    O     0.01621   0.20933   0.02563   0.00000  Uiso   1.00
O86    O     0.06503   0.20773   0.52220   0.00000  Uiso   1.00
N87    N     0.61402   0.23693   0.53115   0.00000  Uiso   1.00
N88    N     0.97314   0.23573   0.92455   0.00000  Uiso   1.00
N89    N     0.00795   0.23459   0.56582   0.00000  Uiso   1.00
N90    N     0.61294   0.18415   0.53104   0.00000  Uiso   1.00
N91    N     0.97206   0.18295   0.92444   0.00000  Uiso   1.00
N92    N     0.00687   0.18181   0.56571   0.00000  Uiso   1.00
C93    C     0.83755   0.90787   0.15906   0.00000  Uiso   1.00
C94    C     0.86981   0.89396   0.22854   0.00000  Uiso   1.00
C95    C     0.89635   0.91166   0.28648   0.00000  Uiso   1.00
C96    C     0.92362   0.89443   0.34507   0.00000  Uiso   1.00
C97    C     0.97363   0.87795   0.45288   0.00000  Uiso   1.00
C98    C     0.87518   0.89377   0.12734   0.00000  Uiso   1.00
C99    C     0.90624   0.91131   0.10018   0.00000  Uiso   1.00
C100   C     0.93804   0.89392   0.07357   0.00000  Uiso   1.00
C101   C     0.99636   0.87714   0.02421   0.00000  Uiso   1.00
C102   C     0.76851   0.89336   0.12199   0.00000  Uiso   1.00
C103   C     0.70988   0.91056   0.09032   0.00000  Uiso   1.00
C104   C     0.65186   0.89283   0.05919   0.00000  Uiso   1.00
C105   C     0.54456   0.87542   0.00153   0.00000  Uiso   1.00
C106   C     0.83879   0.84580   0.16008   0.00000  Uiso   1.00
C107   C     0.87048   0.86024   0.22910   0.00000  Uiso   1.00
C108   C     0.89772   0.84298   0.28761   0.00000  Uiso   1.00
C109   C     0.92429   0.86065   0.34563   0.00000  Uiso   1.00
C110   C     0.87586   0.86005   0.12789   0.00000  Uiso   1.00
C111   C     0.90761   0.84263   0.10131   0.00000  Uiso   1.00
C112   C     0.93871   0.86014   0.07412   0.00000  Uiso   1.00
C113   C     0.76918   0.85964   0.12254   0.00000  Uiso   1.00
C114   C     0.71125   0.84188   0.09145   0.00000  Uiso   1.00
C115   C     0.65254   0.85905   0.05974   0.00000  Uiso   1.00
H116   H     0.83703   0.93412   0.15863   0.00000  Uiso   1.00
H117   H     0.89582   0.93775   0.28604   0.00000  Uiso   1.00
H118   H     0.90571   0.93740   0.09976   0.00000  Uiso   1.00
H119   H     0.70938   0.93665   0.08990   0.00000  Uiso   1.00
H120   H     0.96133   0.92690   0.42754   0.00000  Uiso   1.00
H121   H     0.98215   0.92617   0.03474   0.00000  Uiso   1.00
H122   H     0.56815   0.92458   0.01395   0.00000  Uiso   1.00
H123   H     0.83931   0.81955   0.16051   0.00000  Uiso   1.00
H124   H     0.89823   0.81689   0.28802   0.00000  Uiso   1.00
H125   H     0.90812   0.81654   0.10174   0.00000  Uiso   1.00
H126   H     0.71179   0.81579   0.09189   0.00000  Uiso   1.00
H127   H     0.96328   0.82880   0.42915   0.00000  Uiso   1.00
H128   H     0.98410   0.82807   0.03635   0.00000  Uiso   1.00
H129   H     0.57011   0.82649   0.01556   0.00000  Uiso   1.00
O130   O     0.00104   0.87817   0.51220   0.00000  Uiso   1.00
O131   O     0.02835   0.87721   0.99684   0.00000  Uiso   1.00
O132   O     0.48519   0.87513   0.96958   0.00000  Uiso   1.00
N133   N     0.95369   0.90418   0.41042   0.00000  Uiso   1.00
N134   N     0.97317   0.90349   0.04318   0.00000  Uiso   1.00
N135   N     0.58611   0.90201   0.02373   0.00000  Uiso   1.00
N136   N     0.95474   0.85139   0.41129   0.00000  Uiso   1.00
N137   N     0.97422   0.85071   0.04405   0.00000  Uiso   1.00
N138   N     0.58716   0.84923   0.02460   0.00000  Uiso   1.00
C139   C     0.19870   0.09518   0.34050   0.00000  Uiso   1.00
C140   C     0.16835   0.10908   0.37958   0.00000  Uiso   1.00
C141   C     0.14327   0.09136   0.41235   0.00000  Uiso   1.00
C142   C     0.11762   0.10856   0.44525   0.00000  Uiso   1.00
C143   C     0.07054   0.12501   0.50588   0.00000  Uiso   1.00
C144   C     0.15941   0.10938   0.27141   0.00000  Uiso   1.00
C145   C     0.12683   0.09192   0.21324   0.00000  Uiso   1.00
C146   C     0.09367   0.10938   0.15508   0.00000  Uiso   1.00
C147   C     0.03277   0.12630   0.04778   0.00000  Uiso   1.00
C148   C     0.26768   0.10963   0.37062   0.00000  Uiso   1.00
C149   C     0.32613   0.09237   0.39586   0.00000  Uiso   1.00
C150   C     0.38413   0.11005   0.42122   0.00000  Uiso   1.00
C151   C     0.49131   0.12735   0.46796   0.00000  Uiso   1.00
C152   C     0.19775   0.15726   0.34066   0.00000  Uiso   1.00
C153   C     0.16783   0.14279   0.37966   0.00000  Uiso   1.00
C154   C     0.14222   0.16004   0.41252   0.00000  Uiso   1.00
C155   C     0.11711   0.14234   0.44534   0.00000  Uiso   1.00
C156   C     0.15890   0.14310   0.27150   0.00000  Uiso   1.00
C157   C     0.12578   0.16060   0.21341   0.00000  Uiso   1.00
C158   C     0.09316   0.14316   0.15517   0.00000  Uiso   1.00
C159   C     0.26717   0.14335   0.37071   0.00000  Uiso   1.00
C160   C     0.32508   0.16105   0.39603   0.00000  Uiso   1.00
C161   C     0.38361   0.14383   0.42130   0.00000  Uiso   1.00
H162   H     0.19910   0.06893   0.34043   0.00000  Uiso   1.00
H163   H     0.14367   0.06526   0.41226   0.00000  Uiso   1.00
H164   H     0.12725   0.06583   0.21319   0.00000  Uiso   1.00
H165   H     0.32651   0.06628   0.39578   0.00000  Uiso   1.00
H166   H     0.08197   0.07606   0.49192   0.00000  Uiso   1.00
H167   H     0.04736   0.07725   0.07215   0.00000  Uiso   1.00
H168   H     0.46755   0.07821   0.45718   0.00000  Uiso   1.00
H169   H     0.19735   0.18351   0.34073   0.00000  Uiso   1.00
H170   H     0.14182   0.18613   0.41258   0.00000  Uiso   1.00
H171   H     0.12540   0.18669   0.21350   0.00000  Uiso   1.00
H172   H     0.32466   0.18714   0.39609   0.00000  Uiso   1.00
H173   H     0.08047   0.17416   0.49217   0.00000  Uiso   1.00
H174   H     0.04585   0.17534   0.07240   0.00000  Uiso   1.00
H175   H     0.46604   0.17631   0.45744   0.00000  Uiso   1.00
O176   O     0.04471   0.12477   0.53929   0.00000  Uiso   1.00
O177   O     0.99931   0.12632   0.98857   0.00000  Uiso   1.00
O178   O     0.55058   0.12758   0.49373   0.00000  Uiso   1.00
N179   N     0.08925   0.09879   0.48213   0.00000  Uiso   1.00
N180   N     0.05688   0.09990   0.08967   0.00000  Uiso   1.00
N181   N     0.44972   0.10080   0.44963   0.00000  Uiso   1.00
N182   N     0.08844   0.15158   0.48227   0.00000  Uiso   1.00
N183   N     0.05607   0.15268   0.08981   0.00000  Uiso   1.00
N184   N     0.44891   0.15358   0.44977   0.00000  Uiso   1.00
C185   C     0.64956   0.42960   0.87506   0.00000  Uiso   1.00
C186   C     0.60668   0.44338   0.80607   0.00000  Uiso   1.00
C187   C     0.57068   0.42557   0.74883   0.00000  Uiso   1.00
C188   C     0.53458   0.44268   0.69061   0.00000  Uiso   1.00
C189   C     0.46804   0.45895   0.58361   0.00000  Uiso   1.00
C190   C     0.71823   0.44374   0.90048   0.00000  Uiso   1.00
C191   C     0.77603   0.42622   0.92263   0.00000  Uiso   1.00
C192   C     0.83383   0.44363   0.94389   0.00000  Uiso   1.00
C193   C     0.94048   0.46045   0.98351   0.00000  Uiso   1.00
C194   C     0.62371   0.44422   0.91751   0.00000  Uiso   1.00
C195   C     0.60204   0.42711   0.95400   0.00000  Uiso   1.00
C196   C     0.58028   0.44493   0.98960   0.00000  Uiso   1.00
C197   C     0.54016   0.46251   0.05567   0.00000  Uiso   1.00
C198   C     0.64947   0.49167   0.87343   0.00000  Uiso   1.00
C199   C     0.60663   0.47710   0.80519   0.00000  Uiso   1.00
C200   C     0.57058   0.49424   0.74703   0.00000  Uiso   1.00
C201   C     0.53453   0.47646   0.68972   0.00000  Uiso   1.00
C202   C     0.71818   0.47745   0.89960   0.00000  Uiso   1.00
C203   C     0.77592   0.49489   0.92083   0.00000  Uiso   1.00
C204   C     0.83378   0.47741   0.94300   0.00000  Uiso   1.00
C205   C     0.62366   0.47794   0.91663   0.00000  Uiso   1.00
C206   C     0.60193   0.49579   0.95219   0.00000  Uiso   1.00
C207   C     0.58023   0.47871   0.98872   0.00000  Uiso   1.00
H208   H     0.64961   0.40335   0.87575   0.00000  Uiso   1.00
H209   H     0.57074   0.39947   0.74953   0.00000  Uiso   1.00
H210   H     0.77605   0.40013   0.92331   0.00000  Uiso   1.00
H211   H     0.60209   0.40102   0.95467   0.00000  Uiso   1.00
H212   H     0.48330   0.41004   0.60921   0.00000  Uiso   1.00
H213   H     0.91621   0.41142   0.97565   0.00000  Uiso   1.00
H214   H     0.54938   0.41330   0.04178   0.00000  Uiso   1.00
H215   H     0.64943   0.51792   0.87274   0.00000  Uiso   1.00
H216   H     0.57055   0.52033   0.74636   0.00000  Uiso   1.00
H217   H     0.77586   0.52098   0.92014   0.00000  Uiso   1.00
H218   H     0.60190   0.52188   0.95150   0.00000  Uiso   1.00
H219   H     0.48314   0.50814   0.60664   0.00000  Uiso   1.00
H220   H     0.91606   0.50951   0.97308   0.00000  Uiso   1.00
H221   H     0.54923   0.51140   0.03920   0.00000  Uiso   1.00
O222   O     0.43135   0.45861   0.52484   0.00000  Uiso   1.00
O223   O     0.99931   0.46042   0.00561   0.00000  Uiso   1.00
O224   O     0.51804   0.46288   0.09235   0.00000  Uiso   1.00
N225   N     0.49408   0.43280   0.62595   0.00000  Uiso   1.00
N226   N     0.89882   0.43409   0.96854   0.00000  Uiso   1.00
N227   N     0.55588   0.43585   0.03038   0.00000  Uiso   1.00
N228   N     0.49399   0.48558   0.62457   0.00000  Uiso   1.00
N229   N     0.89874   0.48687   0.96716   0.00000  Uiso   1.00
N230   N     0.55580   0.48863   0.02899   0.00000  Uiso   1.00
C231   C     0.17071   0.76227   0.82560   0.00000  Uiso   1.00
C232   C     0.24034   0.77612   0.85808   0.00000  Uiso   1.00
C233   C     0.29828   0.75835   0.88494   0.00000  Uiso   1.00
C234   C     0.35701   0.77552   0.91238   0.00000  Uiso   1.00
C235   C     0.46502   0.79189   0.96276   0.00000  Uiso   1.00
C236   C     0.13869   0.77652   0.86283   0.00000  Uiso   1.00
C237   C     0.11117   0.75910   0.89367   0.00000  Uiso   1.00
C238   C     0.08433   0.77661   0.92510   0.00000  Uiso   1.00
C239   C     0.03449   0.79360   0.98281   0.00000  Uiso   1.00
C240   C     0.13396   0.77671   0.75655   0.00000  Uiso   1.00
C241   C     0.10244   0.75946   0.69804   0.00000  Uiso   1.00
C242   C     0.07161   0.77713   0.63999   0.00000  Uiso   1.00
C243   C     0.01443   0.79443   0.53270   0.00000  Uiso   1.00
C244   C     0.17198   0.82434   0.82655   0.00000  Uiso   1.00
C245   C     0.24102   0.80983   0.85860   0.00000  Uiso   1.00
C246   C     0.29968   0.82703   0.88600   0.00000  Uiso   1.00
C247   C     0.35770   0.80930   0.91290   0.00000  Uiso   1.00
C248   C     0.13938   0.81024   0.86335   0.00000  Uiso   1.00
C249   C     0.11257   0.82778   0.89473   0.00000  Uiso   1.00
C250   C     0.08502   0.81038   0.92562   0.00000  Uiso   1.00
C251   C     0.13465   0.81043   0.75707   0.00000  Uiso   1.00
C252   C     0.10385   0.82813   0.69910   0.00000  Uiso   1.00
C253   C     0.07230   0.81091   0.64052   0.00000  Uiso   1.00
H254   H     0.17017   0.73602   0.82519   0.00000  Uiso   1.00
H255   H     0.29772   0.73226   0.88453   0.00000  Uiso   1.00
H256   H     0.11064   0.73301   0.89326   0.00000  Uiso   1.00
H257   H     0.10192   0.73336   0.69766   0.00000  Uiso   1.00
H258   H     0.43945   0.74296   0.95057   0.00000  Uiso   1.00
H259   H     0.04494   0.74453   0.96895   0.00000  Uiso   1.00
H260   H     0.02656   0.74529   0.55649   0.00000  Uiso   1.00
H261   H     0.17251   0.85060   0.82696   0.00000  Uiso   1.00
H262   H     0.30020   0.85312   0.88639   0.00000  Uiso   1.00
H263   H     0.11311   0.85387   0.89512   0.00000  Uiso   1.00
H264   H     0.10440   0.85423   0.69952   0.00000  Uiso   1.00
H265   H     0.44146   0.84106   0.95208   0.00000  Uiso   1.00
H266   H     0.04695   0.84263   0.97046   0.00000  Uiso   1.00
H267   H     0.02857   0.84338   0.55800   0.00000  Uiso   1.00
O268   O     0.52441   0.79161   0.99041   0.00000  Uiso   1.00
O269   O     0.00682   0.79366   0.01451   0.00000  Uiso   1.00
O270   O     0.98271   0.79466   0.47338   0.00000  Uiso   1.00
N271   N     0.42240   0.76570   0.94276   0.00000  Uiso   1.00
N272   N     0.05357   0.76717   0.95995   0.00000  Uiso   1.00
N273   N     0.03637   0.76788   0.57434   0.00000  Uiso   1.00
N274   N     0.42348   0.81849   0.94357   0.00000  Uiso   1.00
N275   N     0.05465   0.81995   0.96076   0.00000  Uiso   1.00
N276   N     0.03745   0.82066   0.57515   0.00000  Uiso   1.00
C277   C     0.68370   0.07379   0.79152   0.00000  Uiso   1.00
C278   C     0.64062   0.06004   0.81748   0.00000  Uiso   1.00
C279   C     0.60454   0.07789   0.83863   0.00000  Uiso   1.00
C280   C     0.56825   0.06080   0.86062   0.00000  Uiso   1.00
C281   C     0.50141   0.04459   0.90085   0.00000  Uiso   1.00
C282   C     0.75230   0.05960   0.83481   0.00000  Uiso   1.00
C283   C     0.81012   0.07708   0.87053   0.00000  Uiso   1.00
C284   C     0.86785   0.05962   0.90710   0.00000  Uiso   1.00
C285   C     0.97440   0.04272   0.97420   0.00000  Uiso   1.00
C286   C     0.65800   0.05918   0.72326   0.00000  Uiso   1.00
C287   C     0.63654   0.07631   0.66518   0.00000  Uiso   1.00
C288   C     0.61488   0.05850   0.60784   0.00000  Uiso   1.00
C289   C     0.57500   0.04095   0.50173   0.00000  Uiso   1.00
C290   C     0.68341   0.01172   0.79296   0.00000  Uiso   1.00
C291   C     0.64047   0.02633   0.81826   0.00000  Uiso   1.00
C292   C     0.60422   0.00921   0.84023   0.00000  Uiso   1.00
C293   C     0.56809   0.02703   0.86141   0.00000  Uiso   1.00
C294   C     0.75215   0.02589   0.83560   0.00000  Uiso   1.00
C295   C     0.80980   0.00840   0.87213   0.00000  Uiso   1.00
C296   C     0.86769   0.02585   0.90789   0.00000  Uiso   1.00
C297   C     0.65784   0.02547   0.72404   0.00000  Uiso   1.00
C298   C     0.63621   0.00763   0.66678   0.00000  Uiso   1.00
C299   C     0.61472   0.02472   0.60863   0.00000  Uiso   1.00
H300   H     0.68383   0.10004   0.79091   0.00000  Uiso   1.00
H301   H     0.60468   0.10398   0.83802   0.00000  Uiso   1.00
H302   H     0.81023   0.10317   0.86990   0.00000  Uiso   1.00
H303   H     0.63667   0.10240   0.66459   0.00000  Uiso   1.00
H304   H     0.51688   0.09348   0.89062   0.00000  Uiso   1.00
H305   H     0.95029   0.09177   0.95784   0.00000  Uiso   1.00
H306   H     0.58431   0.09014   0.52489   0.00000  Uiso   1.00
H307   H     0.68329   0.98547   0.79357   0.00000  Uiso   1.00
H308   H     0.60411   0.98312   0.84083   0.00000  Uiso   1.00
H309   H     0.80966   0.98231   0.87272   0.00000  Uiso   1.00
H310   H     0.63610   0.98154   0.66741   0.00000  Uiso   1.00
H311   H     0.51642   0.99539   0.89291   0.00000  Uiso   1.00
H312   H     0.94983   0.99368   0.96012   0.00000  Uiso   1.00
H313   H     0.58385   0.99205   0.52718   0.00000  Uiso   1.00
O314   O     0.46459   0.04496   0.92282   0.00000  Uiso   1.00
O315   O     0.03321   0.04272   0.01100   0.00000  Uiso   1.00
O316   O     0.55304   0.04058   0.44299   0.00000  Uiso   1.00
N317   N     0.52763   0.07072   0.88466   0.00000  Uiso   1.00
N318   N     0.93284   0.06912   0.94751   0.00000  Uiso   1.00
N319   N     0.59069   0.06760   0.54275   0.00000  Uiso   1.00
N320   N     0.52738   0.01793   0.88589   0.00000  Uiso   1.00
N321   N     0.93259   0.01634   0.94874   0.00000  Uiso   1.00
N322   N     0.59044   0.01481   0.54398   0.00000  Uiso   1.00
C323   C     0.13489   0.74040   0.32619   0.00000  Uiso   1.00
C324   C     0.20435   0.72654   0.36554   0.00000  Uiso   1.00
C325   C     0.26215   0.74430   0.39856   0.00000  Uiso   1.00
C326   C     0.32075   0.72712   0.43169   0.00000  Uiso   1.00
C327   C     0.42850   0.71074   0.49275   0.00000  Uiso   1.00
C328   C     0.10539   0.72621   0.25711   0.00000  Uiso   1.00
C329   C     0.07997   0.74369   0.19897   0.00000  Uiso   1.00
C330   C     0.05525   0.72623   0.14083   0.00000  Uiso   1.00
C331   C     0.00931   0.70934   0.03356   0.00000  Uiso   1.00
C332   C     0.09581   0.72590   0.35599   0.00000  Uiso   1.00
C333   C     0.06232   0.74311   0.38096   0.00000  Uiso   1.00
C334   C     0.02951   0.72539   0.40606   0.00000  Uiso   1.00
C335   C     0.96869   0.70801   0.45231   0.00000  Uiso   1.00
C336   C     0.13616   0.67832   0.32631   0.00000  Uiso   1.00
C337   C     0.20504   0.69283   0.36560   0.00000  Uiso   1.00
C338   C     0.26356   0.67562   0.39870   0.00000  Uiso   1.00
C339   C     0.32144   0.69334   0.43176   0.00000  Uiso   1.00
C340   C     0.10608   0.69250   0.25718   0.00000  Uiso   1.00
C341   C     0.08138   0.67501   0.19911   0.00000  Uiso   1.00
C342   C     0.05594   0.69246   0.14090   0.00000  Uiso   1.00
C343   C     0.09649   0.69218   0.35606   0.00000  Uiso   1.00
C344   C     0.06373   0.67443   0.38111   0.00000  Uiso   1.00
C345   C     0.03020   0.69161   0.40612   0.00000  Uiso   1.00
H346   H     0.13435   0.76665   0.32613   0.00000  Uiso   1.00
H347   H     0.26160   0.77039   0.39848   0.00000  Uiso   1.00
H348   H     0.07944   0.76978   0.19893   0.00000  Uiso   1.00
H349   H     0.06179   0.76920   0.38090   0.00000  Uiso   1.00
H350   H     0.40299   0.75967   0.47872   0.00000  Uiso   1.00
H351   H     0.01887   0.75839   0.05795   0.00000  Uiso   1.00
H352   H     0.98165   0.75717   0.44166   0.00000  Uiso   1.00
H353   H     0.13670   0.65207   0.32637   0.00000  Uiso   1.00
H354   H     0.26408   0.64953   0.39874   0.00000  Uiso   1.00
H355   H     0.08192   0.64892   0.19919   0.00000  Uiso   1.00
H356   H     0.06427   0.64834   0.38116   0.00000  Uiso   1.00
H357   H     0.40500   0.66157   0.47893   0.00000  Uiso   1.00
H358   H     0.02088   0.66029   0.05815   0.00000  Uiso   1.00
H359   H     0.98366   0.65907   0.44187   0.00000  Uiso   1.00
O360   O     0.48774   0.71101   0.52641   0.00000  Uiso   1.00
O361   O     0.98379   0.70933   0.97437   0.00000  Uiso   1.00
O362   O     0.93497   0.70773   0.47780   0.00000  Uiso   1.00
N363   N     0.38598   0.73693   0.46885   0.00000  Uiso   1.00
N364   N     0.02686   0.73573   0.07545   0.00000  Uiso   1.00
N365   N     0.99205   0.73459   0.43418   0.00000  Uiso   1.00
N366   N     0.38706   0.68415   0.46896   0.00000  Uiso   1.00
N367   N     0.02794   0.68295   0.07556   0.00000  Uiso   1.00
N368   N     0.99313   0.68181   0.43429   0.00000  Uiso   1.00
C369   C     0.16245   0.40787   0.84094   0.00000  Uiso   1.00
C370   C     0.13019   0.39396   0.77146   0.00000  Uiso   1.00
C371   C     0.10365   0.41166   0.71352   0.00000  Uiso   1.00
C372   C     0.07638   0.39443   0.65493   0.00000  Uiso   1.00
C373   C     0.02637   0.37795   0.54712   0.00000  Uiso   1.00
C374   C     0.12482   0.39377   0.87266   0.00000  Uiso   1.00
C375   C     0.09376   0.41131   0.89982   0.00000  Uiso   1.00
C376   C     0.06196   0.39392   0.92643   0.00000  Uiso   1.00
C377   C     0.00364   0.37714   0.97579   0.00000  Uiso   1.00
C378   C     0.23149   0.39336   0.87801   0.00000  Uiso   1.00
C379   C     0.29012   0.41056   0.90968   0.00000  Uiso   1.00
C380   C     0.34814   0.39283   0.94081   0.00000  Uiso   1.00
C381   C     0.45544   0.37542   0.99847   0.00000  Uiso   1.00
C382   C     0.16121   0.34580   0.83992   0.00000  Uiso   1.00
C383   C     0.12952   0.36024   0.77090   0.00000  Uiso   1.00
C384   C     0.10228   0.34298   0.71239   0.00000  Uiso   1.00
C385   C     0.07571   0.36065   0.65437   0.00000  Uiso   1.00
C386   C     0.12414   0.36005   0.87211   0.00000  Uiso   1.00
C387   C     0.09239   0.34263   0.89869   0.00000  Uiso   1.00
C388   C     0.06129   0.36014   0.92588   0.00000  Uiso   1.00
C389   C     0.23082   0.35964   0.87746   0.00000  Uiso   1.00
C390   C     0.28875   0.34188   0.90855   0.00000  Uiso   1.00
C391   C     0.34746   0.35905   0.94026   0.00000  Uiso   1.00
H392   H     0.16297   0.43412   0.84137   0.00000  Uiso   1.00
H393   H     0.10418   0.43775   0.71396   0.00000  Uiso   1.00
H394   H     0.09429   0.43740   0.90024   0.00000  Uiso   1.00
H395   H     0.29062   0.43665   0.91010   0.00000  Uiso   1.00
H396   H     0.03867   0.42690   0.57246   0.00000  Uiso   1.00
H397   H     0.01785   0.42617   0.96526   0.00000  Uiso   1.00
H398   H     0.43185   0.42458   0.98605   0.00000  Uiso   1.00
H399   H     0.16069   0.31955   0.83949   0.00000  Uiso   1.00
H400   H     0.10177   0.31689   0.71198   0.00000  Uiso   1.00
H401   H     0.09188   0.31654   0.89826   0.00000  Uiso   1.00
H402   H     0.28821   0.31579   0.90811   0.00000  Uiso   1.00
H403   H     0.03672   0.32880   0.57085   0.00000  Uiso   1.00
H404   H     0.01590   0.32807   0.96365   0.00000  Uiso   1.00
H405   H     0.42989   0.32649   0.98444   0.00000  Uiso   1.00
O406   O     0.99896   0.37817   0.48780   0.00000  Uiso   1.00
O407   O     0.97165   0.37721   0.00316   0.00000  Uiso   1.00
O408   O     0.51481   0.37513   0.03042   0.00000  Uiso   1.00
N409   N     0.04631   0.40418   0.58958   0.00000  Uiso   1.00
N410   N     0.02683   0.40349   0.95682   0.00000  Uiso   1.00
N411   N     0.41389   0.40201   0.97627   0.00000  Uiso   1.00
N412   N     0.04526   0.35139   0.58871   0.00000  Uiso   1.00
N413   N     0.02578   0.35071   0.95595   0.00000  Uiso   1.00
N414   N     0.41284   0.34923   0.97540   0.00000  Uiso   1.00
C415   C     0.80130   0.59518   0.65950   0.00000  Uiso   1.00
C416   C     0.83165   0.60908   0.62042   0.00000  Uiso   1.00
C417   C     0.85673   0.59136   0.58765   0.00000  Uiso   1.00
C418   C     0.88238   0.60856   0.55475   0.00000  Uiso   1.00
C419   C     0.92946   0.62501   0.49412   0.00000  Uiso   1.00
C420   C     0.84059   0.60938   0.72859   0.00000  Uiso   1.00
C421   C     0.87317   0.59192   0.78676   0.00000  Uiso   1.00
C422   C     0.90633   0.60938   0.84492   0.00000  Uiso   1.00
C423   C     0.96723   0.62630   0.95222   0.00000  Uiso   1.00
C424   C     0.73232   0.60963   0.62938   0.00000  Uiso   1.00
C425   C     0.67387   0.59237   0.60414   0.00000  Uiso   1.00
C426   C     0.61587   0.61005   0.57878   0.00000  Uiso   1.00
C427   C     0.50869   0.62735   0.53204   0.00000  Uiso   1.00
C428   C     0.80225   0.65726   0.65934   0.00000  Uiso   1.00
C429   C     0.83217   0.64279   0.62034   0.00000  Uiso   1.00
C430   C     0.85778   0.66004   0.58748   0.00000  Uiso   1.00
C431   C     0.88289   0.64234   0.55466   0.00000  Uiso   1.00
C432   C     0.84110   0.64310   0.72850   0.00000  Uiso   1.00
C433   C     0.87422   0.66060   0.78659   0.00000  Uiso   1.00
C434   C     0.90684   0.64316   0.84483   0.00000  Uiso   1.00
C435   C     0.73283   0.64335   0.62929   0.00000  Uiso   1.00
C436   C     0.67492   0.66105   0.60397   0.00000  Uiso   1.00
C437   C     0.61639   0.64383   0.57870   0.00000  Uiso   1.00
H438   H     0.80090   0.56893   0.65957   0.00000  Uiso   1.00
H439   H     0.85633   0.56526   0.58774   0.00000  Uiso   1.00
H440   H     0.87275   0.56583   0.78681   0.00000  Uiso   1.00
H441   H     0.67349   0.56628   0.60422   0.00000  Uiso   1.00
H442   H     0.91803   0.57606   0.50808   0.00000  Uiso   1.00
H443   H     0.95264   0.57725   0.92785   0.00000  Uiso   1.00
H444   H     0.53245   0.57821   0.54282   0.00000  Uiso   1.00
H445   H     0.80265   0.68351   0.65927   0.00000  Uiso   1.00
H446   H     0.85818   0.68613   0.58742   0.00000  Uiso   1.00
H447   H     0.87460   0.68669   0.78650   0.00000  Uiso   1.00
H448   H     0.67534   0.68714   0.60391   0.00000  Uiso   1.00
H449   H     0.91953   0.67416   0.50783   0.00000  Uiso   1.00
H450   H     0.95415   0.67534   0.92760   0.00000  Uiso   1.00
H451   H     0.53396   0.67631   0.54256   0.00000  Uiso   1.00
O452   O     0.95529   0.62477   0.46071   0.00000  Uiso   1.00
O453   O     0.00069   0.62632   0.01143   0.00000  Uiso   1.00
O454   O     0.44942   0.62758   0.50627   0.00000  Uiso   1.00
N455   N     0.91075   0.59879   0.51787   0.00000  Uiso   1.00
N456   N     0.94312   0.59990   0.91033   0.00000  Uiso   1.00
N457   N     0.55028   0.60080   0.55037   0.00000  Uiso   1.00
N458   N     0.91156   0.65158   0.51773   0.00000  Uiso   1.00
N459   N     0.94393   0.65268   0.91019   0.00000  Uiso   1.00
N460   N     0.55109   0.65358   0.55023   0.00000  Uiso   1.00
C461   C     0.35044   0.92960   0.12494   0.00000  Uiso   1.00
C462   C     0.39332   0.94338   0.19393   0.00000  Uiso   1.00
C463   C     0.42932   0.92557   0.25117   0.00000  Uiso   1.00
C464   C     0.46542   0.94268   0.30939   0.00000  Uiso   1.00
C465   C     0.53196   0.95895   0.41639   0.00000  Uiso   1.00
C466   C     0.28177   0.94374   0.09952   0.00000  Uiso   1.00
C467   C     0.22397   0.92622   0.07737   0.00000  Uiso   1.00
C468   C     0.16617   0.94363   0.05611   0.00000  Uiso   1.00
C469   C     0.05952   0.96045   0.01649   0.00000  Uiso   1.00
C470   C     0.37629   0.94422   0.08249   0.00000  Uiso   1.00
C471   C     0.39796   0.92711   0.04600   0.00000  Uiso   1.00
C472   C     0.41972   0.94493   0.01040   0.00000  Uiso   1.00
C473   C     0.45984   0.96251   0.94433   0.00000  Uiso   1.00
C474   C     0.35053   0.99167   0.12657   0.00000  Uiso   1.00
C475   C     0.39337   0.97710   0.19481   0.00000  Uiso   1.00
C476   C     0.42942   0.99424   0.25297   0.00000  Uiso   1.00
C477   C     0.46547   0.97646   0.31028   0.00000  Uiso   1.00
C478   C     0.28182   0.97745   0.10040   0.00000  Uiso   1.00
C479   C     0.22408   0.99489   0.07917   0.00000  Uiso   1.00
C480   C     0.16622   0.97741   0.05700   0.00000  Uiso   1.00
C481   C     0.37634   0.97794   0.08337   0.00000  Uiso   1.00
C482   C     0.39807   0.99579   0.04781   0.00000  Uiso   1.00
C483   C     0.41977   0.97871   0.01128   0.00000  Uiso   1.00
H484   H     0.35039   0.90335   0.12425   0.00000  Uiso   1.00
H485   H     0.42926   0.89947   0.25047   0.00000  Uiso   1.00
H486   H     0.22395   0.90013   0.07669   0.00000  Uiso   1.00
H487   H     0.39791   0.90102   0.04533   0.00000  Uiso   1.00
H488   H     0.51670   0.91004   0.39079   0.00000  Uiso   1.00
H489   H     0.08379   0.91142   0.02435   0.00000  Uiso   1.00
H490   H     0.45062   0.91330   0.95822   0.00000  Uiso   1.00
H491   H     0.35057   0.01792   0.12726   0.00000  Uiso   1.00
H492   H     0.42945   0.02033   0.25364   0.00000  Uiso   1.00
H493   H     0.22414   0.02098   0.07986   0.00000  Uiso   1.00
H494   H     0.39810   0.02188   0.04850   0.00000  Uiso   1.00
H495   H     0.51686   0.00814   0.39336   0.00000  Uiso   1.00
H496   H     0.08394   0.00951   0.02692   0.00000  Uiso   1.00
H497   H     0.45077   0.01140   0.96080   0.00000  Uiso   1.00
O498   O     0.56865   0.95861   0.47516   0.00000  Uiso   1.00
O499   O     0.00069   0.96042   0.99439   0.00000  Uiso   1.00
O500   O     0.48196   0.96288   0.90765   0.00000  Uiso   1.00
N501   N     0.50592   0.93280   0.37405   0.00000  Uiso   1.00
N502   N     0.10118   0.93409   0.03146   0.00000  Uiso   1.00
N503   N     0.44412   0.93585   0.96962   0.00000  Uiso   1.00
N504   N     0.50601   0.98558   0.37543   0.00000  Uiso   1.00
N505   N     0.10126   0.98687   0.03284   0.00000  Uiso   1.00
N506   N     0.44420   0.98863   0.97101   0.00000  Uiso   1.00
C507   C     0.82929   0.26227   0.17440   0.00000  Uiso   1.00
C508   C     0.75966   0.27612   0.14192   0.00000  Uiso   1.00
C509   C     0.70172   0.25835   0.11506   0.00000  Uiso   1.00
C510   C     0.64299   0.27552   0.08762   0.00000  Uiso   1.00
C511   C     0.53498   0.29189   0.03724   0.00000  Uiso   1.00
C512   C     0.86131   0.27652   0.13717   0.00000  Uiso   1.00
C513   C     0.88883   0.25910   0.10633   0.00000  Uiso   1.00
C514   C     0.91567   0.27661   0.07490   0.00000  Uiso   1.00
C515   C     0.96551   0.29360   0.01719   0.00000  Uiso   1.00
C516   C     0.86604   0.27671   0.24345   0.00000  Uiso   1.00
C517   C     0.89756   0.25946   0.30196   0.00000  Uiso   1.00
C518   C     0.92839   0.27713   0.36001   0.00000  Uiso   1.00
C519   C     0.98557   0.29443   0.46730   0.00000  Uiso   1.00
C520   C     0.82802   0.32434   0.17345   0.00000  Uiso   1.00
C521   C     0.75898   0.30983   0.14140   0.00000  Uiso   1.00
C522   C     0.70032   0.32703   0.11400   0.00000  Uiso   1.00
C523   C     0.64230   0.30930   0.08710   0.00000  Uiso   1.00
C524   C     0.86062   0.31024   0.13665   0.00000  Uiso   1.00
C525   C     0.88743   0.32778   0.10527   0.00000  Uiso   1.00
C526   C     0.91498   0.31038   0.07438   0.00000  Uiso   1.00
C527   C     0.86535   0.31043   0.24293   0.00000  Uiso   1.00
C528   C     0.89615   0.32813   0.30090   0.00000  Uiso   1.00
C529   C     0.92770   0.31091   0.35948   0.00000  Uiso   1.00
H530   H     0.82983   0.23602   0.17481   0.00000  Uiso   1.00
H531   H     0.70228   0.23226   0.11547   0.00000  Uiso   1.00
H532   H     0.88936   0.23301   0.10674   0.00000  Uiso   1.00
H533   H     0.89808   0.23336   0.30234   0.00000  Uiso   1.00
H534   H     0.56055   0.24296   0.04943   0.00000  Uiso   1.00
H535   H     0.95506   0.24453   0.03105   0.00000  Uiso   1.00
H536   H     0.97344   0.24529   0.44351   0.00000  Uiso   1.00
H537   H     0.82749   0.35060   0.17304   0.00000  Uiso   1.00
H538   H     0.69980   0.35312   0.11361   0.00000  Uiso   1.00
H539   H     0.88689   0.35387   0.10488   0.00000  Uiso   1.00
H540   H     0.89560   0.35423   0.30048   0.00000  Uiso   1.00
H541   H     0.55854   0.34106   0.04792   0.00000  Uiso   1.00
H542   H     0.95305   0.34263   0.02954   0.00000  Uiso   1.00
H543   H     0.97143   0.34338   0.44200   0.00000  Uiso   1.00
O544   O     0.47559   0.29161   0.00959   0.00000  Uiso   1.00
O545   O     0.99318   0.29366   0.98549   0.00000  Uiso   1.00
O546   O     0.01729   0.29466   0.52662   0.00000  Uiso   1.00
N547   N     0.57760   0.26570   0.05724   0.00000  Uiso   1.00
N548   N     0.94643   0.26717   0.04005   0.00000  Uiso   1.00
N549   N     0.96363   0.26788   0.42566   0.00000  Uiso   1.00
N550   N     0.57652   0.31849   0.05643   0.00000  Uiso   1.00
N551   N     0.94535   0.31995   0.03924   0.00000  Uiso   1.00
N552   N     0.96255   0.32066   0.42485   0.00000  Uiso   1.00
