data_job_03902
_audit_creation_date              2018-12-19
_audit_creation_method            'Materials Studio'
_symmetry_space_group_name_H-M    'P1'
_symmetry_Int_Tables_number       1
_symmetry_cell_setting            triclinic
loop_
_symmetry_equiv_pos_as_xyz
  x,y,z
_cell_length_a                    29.5798
_cell_length_b                    23.4009
_cell_length_c                    11.8393
_cell_angle_alpha                 90.0000
_cell_angle_beta                  90.0000
_cell_angle_gamma                 90.0000
loop_
_atom_site_label
_atom_site_type_symbol
_atom_site_fract_x
_atom_site_fract_y
_atom_site_fract_z
_atom_site_U_iso_or_equiv
_atom_site_adp_type
_atom_site_occupancy
C1     C     0.68522   0.13844   0.16552   0.00000  Uiso   1.00
C2     C     0.67643   0.20261   0.17010   0.00000  Uiso   1.00
C3     C     0.70688   0.24379   0.20651   0.00000  Uiso   1.00
C4     C     0.69239   0.30021   0.20428   0.00000  Uiso   1.00
C5     C     0.68533   0.39761   0.21711   0.00000  Uiso   1.00
C6     C     0.64797   0.11073   0.23573   0.00000  Uiso   1.00
C7     C     0.65450   0.07465   0.32732   0.00000  Uiso   1.00
C8     C     0.61605   0.05371   0.38032   0.00000  Uiso   1.00
C9     C     0.56481   0.00843   0.49499   0.00000  Uiso   1.00
C10    C     0.67650   0.12047   0.04365   0.00000  Uiso   1.00
C11    C     0.70701   0.09256   0.97375   0.00000  Uiso   1.00
C12    C     0.69257   0.07982   0.86504   0.00000  Uiso   1.00
C13    C     0.68562   0.04966   0.68150   0.00000  Uiso   1.00
C14    C     0.60531   0.16542   0.09679   0.00000  Uiso   1.00
C15    C     0.63302   0.21726   0.13277   0.00000  Uiso   1.00
C16    C     0.61847   0.27363   0.13047   0.00000  Uiso   1.00
C17    C     0.64890   0.31488   0.16687   0.00000  Uiso   1.00
C18    C     0.60457   0.12538   0.19840   0.00000  Uiso   1.00
C19    C     0.56609   0.10449   0.25127   0.00000  Uiso   1.00
C20    C     0.57256   0.06839   0.34292   0.00000  Uiso   1.00
C21    C     0.63309   0.13512   0.00632   0.00000  Uiso   1.00
C22    C     0.61860   0.12241   0.89770   0.00000  Uiso   1.00
C23    C     0.64908   0.09449   0.82765   0.00000  Uiso   1.00
H24    H     0.71901   0.12703   0.19459   0.00000  Uiso   1.00
H25    H     0.74047   0.23243   0.23541   0.00000  Uiso   1.00
H26    H     0.68810   0.06331   0.35618   0.00000  Uiso   1.00
H27    H     0.74059   0.08123   0.00267   0.00000  Uiso   1.00
H28    H     0.74511   0.35574   0.26424   0.00000  Uiso   1.00
H29    H     0.63468   0.99913   0.51887   0.00000  Uiso   1.00
H30    H     0.74539   0.03691   0.77342   0.00000  Uiso   1.00
H31    H     0.57152   0.17682   0.06772   0.00000  Uiso   1.00
H32    H     0.58488   0.28496   0.10157   0.00000  Uiso   1.00
H33    H     0.53251   0.11583   0.22235   0.00000  Uiso   1.00
H34    H     0.58501   0.13375   0.86884   0.00000  Uiso   1.00
H35    H     0.61884   0.39837   0.15562   0.00000  Uiso   1.00
H36    H     0.50840   0.04176   0.41025   0.00000  Uiso   1.00
H37    H     0.61911   0.07954   0.66480   0.00000  Uiso   1.00
O38    O     0.69342   0.44729   0.23452   0.00000  Uiso   1.00
O39    O     0.54854   0.97942   0.56857   0.00000  Uiso   1.00
O40    O     0.69378   0.02899   0.59056   0.00000  Uiso   1.00
N41    N     0.71356   0.35094   0.23401   0.00000  Uiso   1.00
N42    N     0.61032   0.01753   0.47208   0.00000  Uiso   1.00
N43    N     0.71381   0.05284   0.77516   0.00000  Uiso   1.00
N44    N     0.64561   0.37388   0.17556   0.00000  Uiso   1.00
N45    N     0.54237   0.04047   0.41363   0.00000  Uiso   1.00
N46    N     0.64586   0.07578   0.71671   0.00000  Uiso   1.00
C47    C     0.81478   0.36156   0.66552   0.00000  Uiso   1.00
C48    C     0.82357   0.29739   0.67010   0.00000  Uiso   1.00
C49    C     0.79312   0.25621   0.70651   0.00000  Uiso   1.00
C50    C     0.80761   0.19979   0.70428   0.00000  Uiso   1.00
C51    C     0.81467   0.10239   0.71711   0.00000  Uiso   1.00
C52    C     0.85203   0.38927   0.73573   0.00000  Uiso   1.00
C53    C     0.84550   0.42535   0.82732   0.00000  Uiso   1.00
C54    C     0.88395   0.44629   0.88032   0.00000  Uiso   1.00
C55    C     0.93519   0.49157   0.99499   0.00000  Uiso   1.00
C56    C     0.82350   0.37953   0.54365   0.00000  Uiso   1.00
C57    C     0.79299   0.40744   0.47375   0.00000  Uiso   1.00
C58    C     0.80743   0.42018   0.36504   0.00000  Uiso   1.00
C59    C     0.81438   0.45034   0.18150   0.00000  Uiso   1.00
C60    C     0.89469   0.33458   0.59679   0.00000  Uiso   1.00
C61    C     0.86698   0.28274   0.63277   0.00000  Uiso   1.00
C62    C     0.88153   0.22637   0.63047   0.00000  Uiso   1.00
C63    C     0.85110   0.18512   0.66687   0.00000  Uiso   1.00
C64    C     0.89543   0.37462   0.69840   0.00000  Uiso   1.00
C65    C     0.93391   0.39551   0.75127   0.00000  Uiso   1.00
C66    C     0.92744   0.43161   0.84292   0.00000  Uiso   1.00
C67    C     0.86691   0.36488   0.50632   0.00000  Uiso   1.00
C68    C     0.88140   0.37759   0.39770   0.00000  Uiso   1.00
C69    C     0.85092   0.40551   0.32765   0.00000  Uiso   1.00
H70    H     0.78099   0.37297   0.69459   0.00000  Uiso   1.00
H71    H     0.75953   0.26757   0.73541   0.00000  Uiso   1.00
H72    H     0.81190   0.43669   0.85618   0.00000  Uiso   1.00
H73    H     0.75941   0.41877   0.50267   0.00000  Uiso   1.00
H74    H     0.75489   0.14426   0.76424   0.00000  Uiso   1.00
H75    H     0.86532   0.50087   0.01887   0.00000  Uiso   1.00
H76    H     0.75461   0.46309   0.27342   0.00000  Uiso   1.00
H77    H     0.92848   0.32318   0.56772   0.00000  Uiso   1.00
H78    H     0.91512   0.21504   0.60157   0.00000  Uiso   1.00
H79    H     0.96749   0.38417   0.72235   0.00000  Uiso   1.00
H80    H     0.91499   0.36625   0.36884   0.00000  Uiso   1.00
H81    H     0.88116   0.10163   0.65562   0.00000  Uiso   1.00
H82    H     0.99160   0.45824   0.91025   0.00000  Uiso   1.00
H83    H     0.88089   0.42046   0.16480   0.00000  Uiso   1.00
O84    O     0.80658   0.05271   0.73452   0.00000  Uiso   1.00
O85    O     0.95146   0.52058   0.06857   0.00000  Uiso   1.00
O86    O     0.80622   0.47101   0.09056   0.00000  Uiso   1.00
N87    N     0.78644   0.14906   0.73401   0.00000  Uiso   1.00
N88    N     0.88968   0.48247   0.97208   0.00000  Uiso   1.00
N89    N     0.78619   0.44716   0.27516   0.00000  Uiso   1.00
N90    N     0.85439   0.12612   0.67556   0.00000  Uiso   1.00
N91    N     0.95763   0.45953   0.91363   0.00000  Uiso   1.00
N92    N     0.85414   0.42422   0.21671   0.00000  Uiso   1.00
C93    C     0.31478   0.13844   0.33448   0.00000  Uiso   1.00
C94    C     0.32357   0.20261   0.32990   0.00000  Uiso   1.00
C95    C     0.29312   0.24379   0.29349   0.00000  Uiso   1.00
C96    C     0.30761   0.30021   0.29572   0.00000  Uiso   1.00
C97    C     0.31467   0.39761   0.28289   0.00000  Uiso   1.00
C98    C     0.35203   0.11073   0.26427   0.00000  Uiso   1.00
C99    C     0.34550   0.07465   0.17268   0.00000  Uiso   1.00
C100   C     0.38395   0.05371   0.11968   0.00000  Uiso   1.00
C101   C     0.43519   0.00843   0.00501   0.00000  Uiso   1.00
C102   C     0.32350   0.12047   0.45635   0.00000  Uiso   1.00
C103   C     0.29299   0.09256   0.52625   0.00000  Uiso   1.00
C104   C     0.30743   0.07982   0.63496   0.00000  Uiso   1.00
C105   C     0.31438   0.04966   0.81850   0.00000  Uiso   1.00
C106   C     0.39469   0.16542   0.40321   0.00000  Uiso   1.00
C107   C     0.36698   0.21726   0.36723   0.00000  Uiso   1.00
C108   C     0.38153   0.27363   0.36953   0.00000  Uiso   1.00
C109   C     0.35110   0.31488   0.33313   0.00000  Uiso   1.00
C110   C     0.39543   0.12538   0.30160   0.00000  Uiso   1.00
C111   C     0.43391   0.10449   0.24873   0.00000  Uiso   1.00
C112   C     0.42744   0.06839   0.15708   0.00000  Uiso   1.00
C113   C     0.36691   0.13512   0.49368   0.00000  Uiso   1.00
C114   C     0.38140   0.12241   0.60230   0.00000  Uiso   1.00
C115   C     0.35092   0.09449   0.67235   0.00000  Uiso   1.00
H116   H     0.28099   0.12703   0.30541   0.00000  Uiso   1.00
H117   H     0.25953   0.23243   0.26459   0.00000  Uiso   1.00
H118   H     0.31190   0.06331   0.14382   0.00000  Uiso   1.00
H119   H     0.25941   0.08123   0.49733   0.00000  Uiso   1.00
H120   H     0.25489   0.35574   0.23576   0.00000  Uiso   1.00
H121   H     0.36532   0.99913   0.98113   0.00000  Uiso   1.00
H122   H     0.25461   0.03691   0.72658   0.00000  Uiso   1.00
H123   H     0.42848   0.17682   0.43228   0.00000  Uiso   1.00
H124   H     0.41512   0.28496   0.39843   0.00000  Uiso   1.00
H125   H     0.46749   0.11583   0.27765   0.00000  Uiso   1.00
H126   H     0.41499   0.13375   0.63116   0.00000  Uiso   1.00
H127   H     0.38116   0.39837   0.34438   0.00000  Uiso   1.00
H128   H     0.49160   0.04176   0.08975   0.00000  Uiso   1.00
H129   H     0.38089   0.07954   0.83520   0.00000  Uiso   1.00
O130   O     0.30658   0.44729   0.26548   0.00000  Uiso   1.00
O131   O     0.45146   0.97942   0.93143   0.00000  Uiso   1.00
O132   O     0.30622   0.02899   0.90944   0.00000  Uiso   1.00
N133   N     0.28644   0.35094   0.26599   0.00000  Uiso   1.00
N134   N     0.38968   0.01753   0.02792   0.00000  Uiso   1.00
N135   N     0.28619   0.05284   0.72484   0.00000  Uiso   1.00
N136   N     0.35439   0.37388   0.32444   0.00000  Uiso   1.00
N137   N     0.45763   0.04047   0.08637   0.00000  Uiso   1.00
N138   N     0.35414   0.07578   0.78329   0.00000  Uiso   1.00
C139   C     0.18522   0.36156   0.83448   0.00000  Uiso   1.00
C140   C     0.17643   0.29739   0.82990   0.00000  Uiso   1.00
C141   C     0.20688   0.25621   0.79349   0.00000  Uiso   1.00
C142   C     0.19239   0.19979   0.79572   0.00000  Uiso   1.00
C143   C     0.18533   0.10239   0.78289   0.00000  Uiso   1.00
C144   C     0.14797   0.38927   0.76427   0.00000  Uiso   1.00
C145   C     0.15450   0.42535   0.67268   0.00000  Uiso   1.00
C146   C     0.11605   0.44629   0.61968   0.00000  Uiso   1.00
C147   C     0.06481   0.49157   0.50501   0.00000  Uiso   1.00
C148   C     0.17650   0.37953   0.95635   0.00000  Uiso   1.00
C149   C     0.20701   0.40744   0.02625   0.00000  Uiso   1.00
C150   C     0.19257   0.42018   0.13496   0.00000  Uiso   1.00
C151   C     0.18562   0.45034   0.31850   0.00000  Uiso   1.00
C152   C     0.10531   0.33458   0.90321   0.00000  Uiso   1.00
C153   C     0.13302   0.28274   0.86723   0.00000  Uiso   1.00
C154   C     0.11847   0.22637   0.86953   0.00000  Uiso   1.00
C155   C     0.14890   0.18512   0.83313   0.00000  Uiso   1.00
C156   C     0.10457   0.37462   0.80160   0.00000  Uiso   1.00
C157   C     0.06609   0.39551   0.74873   0.00000  Uiso   1.00
C158   C     0.07256   0.43161   0.65708   0.00000  Uiso   1.00
C159   C     0.13309   0.36488   0.99368   0.00000  Uiso   1.00
C160   C     0.11860   0.37759   0.10230   0.00000  Uiso   1.00
C161   C     0.14908   0.40551   0.17235   0.00000  Uiso   1.00
H162   H     0.21901   0.37297   0.80541   0.00000  Uiso   1.00
H163   H     0.24047   0.26757   0.76459   0.00000  Uiso   1.00
H164   H     0.18810   0.43669   0.64382   0.00000  Uiso   1.00
H165   H     0.24059   0.41877   0.99733   0.00000  Uiso   1.00
H166   H     0.24511   0.14426   0.73576   0.00000  Uiso   1.00
H167   H     0.13468   0.50087   0.48113   0.00000  Uiso   1.00
H168   H     0.24539   0.46309   0.22658   0.00000  Uiso   1.00
H169   H     0.07152   0.32318   0.93228   0.00000  Uiso   1.00
H170   H     0.08488   0.21504   0.89843   0.00000  Uiso   1.00
H171   H     0.03251   0.38417   0.77765   0.00000  Uiso   1.00
H172   H     0.08501   0.36625   0.13116   0.00000  Uiso   1.00
H173   H     0.11884   0.10163   0.84438   0.00000  Uiso   1.00
H174   H     0.00840   0.45824   0.58975   0.00000  Uiso   1.00
H175   H     0.11911   0.42046   0.33520   0.00000  Uiso   1.00
O176   O     0.19342   0.05271   0.76548   0.00000  Uiso   1.00
O177   O     0.04854   0.52058   0.43143   0.00000  Uiso   1.00
O178   O     0.19378   0.47101   0.40944   0.00000  Uiso   1.00
N179   N     0.21356   0.14906   0.76599   0.00000  Uiso   1.00
N180   N     0.11032   0.48247   0.52792   0.00000  Uiso   1.00
N181   N     0.21381   0.44716   0.22484   0.00000  Uiso   1.00
N182   N     0.14561   0.12612   0.82444   0.00000  Uiso   1.00
N183   N     0.04237   0.45953   0.58637   0.00000  Uiso   1.00
N184   N     0.14586   0.42422   0.28329   0.00000  Uiso   1.00
C185   C     0.31478   0.86156   0.83448   0.00000  Uiso   1.00
C186   C     0.32357   0.79739   0.82990   0.00000  Uiso   1.00
C187   C     0.29312   0.75621   0.79349   0.00000  Uiso   1.00
C188   C     0.30761   0.69979   0.79572   0.00000  Uiso   1.00
C189   C     0.31467   0.60239   0.78289   0.00000  Uiso   1.00
C190   C     0.35203   0.88927   0.76427   0.00000  Uiso   1.00
C191   C     0.34550   0.92535   0.67268   0.00000  Uiso   1.00
C192   C     0.38395   0.94629   0.61968   0.00000  Uiso   1.00
C193   C     0.43519   0.99157   0.50501   0.00000  Uiso   1.00
C194   C     0.32350   0.87953   0.95635   0.00000  Uiso   1.00
C195   C     0.29299   0.90744   0.02625   0.00000  Uiso   1.00
C196   C     0.30743   0.92018   0.13496   0.00000  Uiso   1.00
C197   C     0.31438   0.95034   0.31850   0.00000  Uiso   1.00
C198   C     0.39469   0.83458   0.90321   0.00000  Uiso   1.00
C199   C     0.36698   0.78274   0.86723   0.00000  Uiso   1.00
C200   C     0.38153   0.72637   0.86953   0.00000  Uiso   1.00
C201   C     0.35110   0.68512   0.83313   0.00000  Uiso   1.00
C202   C     0.39543   0.87462   0.80160   0.00000  Uiso   1.00
C203   C     0.43391   0.89551   0.74873   0.00000  Uiso   1.00
C204   C     0.42744   0.93161   0.65708   0.00000  Uiso   1.00
C205   C     0.36691   0.86488   0.99368   0.00000  Uiso   1.00
C206   C     0.38140   0.87759   0.10230   0.00000  Uiso   1.00
C207   C     0.35092   0.90551   0.17235   0.00000  Uiso   1.00
H208   H     0.28099   0.87297   0.80541   0.00000  Uiso   1.00
H209   H     0.25953   0.76757   0.76459   0.00000  Uiso   1.00
H210   H     0.31190   0.93669   0.64382   0.00000  Uiso   1.00
H211   H     0.25941   0.91877   0.99733   0.00000  Uiso   1.00
H212   H     0.25489   0.64426   0.73576   0.00000  Uiso   1.00
H213   H     0.36532   0.00087   0.48113   0.00000  Uiso   1.00
H214   H     0.25461   0.96309   0.22658   0.00000  Uiso   1.00
H215   H     0.42848   0.82318   0.93228   0.00000  Uiso   1.00
H216   H     0.41512   0.71504   0.89843   0.00000  Uiso   1.00
H217   H     0.46749   0.88417   0.77765   0.00000  Uiso   1.00
H218   H     0.41499   0.86625   0.13116   0.00000  Uiso   1.00
H219   H     0.38116   0.60163   0.84438   0.00000  Uiso   1.00
H220   H     0.49160   0.95824   0.58975   0.00000  Uiso   1.00
H221   H     0.38089   0.92046   0.33520   0.00000  Uiso   1.00
O222   O     0.30658   0.55271   0.76548   0.00000  Uiso   1.00
O223   O     0.45146   0.02058   0.43143   0.00000  Uiso   1.00
O224   O     0.30622   0.97101   0.40944   0.00000  Uiso   1.00
N225   N     0.28644   0.64906   0.76599   0.00000  Uiso   1.00
N226   N     0.38968   0.98247   0.52792   0.00000  Uiso   1.00
N227   N     0.28619   0.94716   0.22484   0.00000  Uiso   1.00
N228   N     0.35439   0.62612   0.82444   0.00000  Uiso   1.00
N229   N     0.45763   0.95953   0.58637   0.00000  Uiso   1.00
N230   N     0.35414   0.92422   0.28329   0.00000  Uiso   1.00
C231   C     0.18522   0.63844   0.33448   0.00000  Uiso   1.00
C232   C     0.17643   0.70261   0.32990   0.00000  Uiso   1.00
C233   C     0.20688   0.74379   0.29349   0.00000  Uiso   1.00
C234   C     0.19239   0.80021   0.29572   0.00000  Uiso   1.00
C235   C     0.18533   0.89761   0.28289   0.00000  Uiso   1.00
C236   C     0.14797   0.61073   0.26427   0.00000  Uiso   1.00
C237   C     0.15450   0.57465   0.17268   0.00000  Uiso   1.00
C238   C     0.11605   0.55371   0.11968   0.00000  Uiso   1.00
C239   C     0.06481   0.50843   0.00501   0.00000  Uiso   1.00
C240   C     0.17650   0.62047   0.45635   0.00000  Uiso   1.00
C241   C     0.20701   0.59256   0.52625   0.00000  Uiso   1.00
C242   C     0.19257   0.57982   0.63496   0.00000  Uiso   1.00
C243   C     0.18562   0.54966   0.81850   0.00000  Uiso   1.00
C244   C     0.10531   0.66542   0.40321   0.00000  Uiso   1.00
C245   C     0.13302   0.71726   0.36723   0.00000  Uiso   1.00
C246   C     0.11847   0.77363   0.36953   0.00000  Uiso   1.00
C247   C     0.14890   0.81488   0.33313   0.00000  Uiso   1.00
C248   C     0.10457   0.62538   0.30160   0.00000  Uiso   1.00
C249   C     0.06609   0.60449   0.24873   0.00000  Uiso   1.00
C250   C     0.07256   0.56839   0.15708   0.00000  Uiso   1.00
C251   C     0.13309   0.63512   0.49368   0.00000  Uiso   1.00
C252   C     0.11860   0.62241   0.60230   0.00000  Uiso   1.00
C253   C     0.14908   0.59449   0.67235   0.00000  Uiso   1.00
H254   H     0.21901   0.62703   0.30541   0.00000  Uiso   1.00
H255   H     0.24047   0.73243   0.26459   0.00000  Uiso   1.00
H256   H     0.18810   0.56331   0.14382   0.00000  Uiso   1.00
H257   H     0.24059   0.58123   0.49733   0.00000  Uiso   1.00
H258   H     0.24511   0.85574   0.23576   0.00000  Uiso   1.00
H259   H     0.13468   0.49913   0.98113   0.00000  Uiso   1.00
H260   H     0.24539   0.53691   0.72658   0.00000  Uiso   1.00
H261   H     0.07152   0.67682   0.43228   0.00000  Uiso   1.00
H262   H     0.08488   0.78496   0.39843   0.00000  Uiso   1.00
H263   H     0.03251   0.61583   0.27765   0.00000  Uiso   1.00
H264   H     0.08501   0.63375   0.63116   0.00000  Uiso   1.00
H265   H     0.11884   0.89837   0.34438   0.00000  Uiso   1.00
H266   H     0.00840   0.54176   0.08975   0.00000  Uiso   1.00
H267   H     0.11911   0.57954   0.83520   0.00000  Uiso   1.00
O268   O     0.19342   0.94729   0.26548   0.00000  Uiso   1.00
O269   O     0.04854   0.47942   0.93143   0.00000  Uiso   1.00
O270   O     0.19378   0.52899   0.90944   0.00000  Uiso   1.00
N271   N     0.21356   0.85094   0.26599   0.00000  Uiso   1.00
N272   N     0.11032   0.51753   0.02792   0.00000  Uiso   1.00
N273   N     0.21381   0.55284   0.72484   0.00000  Uiso   1.00
N274   N     0.14561   0.87388   0.32444   0.00000  Uiso   1.00
N275   N     0.04237   0.54047   0.08637   0.00000  Uiso   1.00
N276   N     0.14586   0.57578   0.78329   0.00000  Uiso   1.00
C277   C     0.68522   0.86156   0.66552   0.00000  Uiso   1.00
C278   C     0.67643   0.79739   0.67010   0.00000  Uiso   1.00
C279   C     0.70688   0.75621   0.70651   0.00000  Uiso   1.00
C280   C     0.69239   0.69979   0.70428   0.00000  Uiso   1.00
C281   C     0.68533   0.60239   0.71711   0.00000  Uiso   1.00
C282   C     0.64797   0.88927   0.73573   0.00000  Uiso   1.00
C283   C     0.65450   0.92535   0.82732   0.00000  Uiso   1.00
C284   C     0.61605   0.94629   0.88032   0.00000  Uiso   1.00
C285   C     0.56481   0.99157   0.99499   0.00000  Uiso   1.00
C286   C     0.67650   0.87953   0.54365   0.00000  Uiso   1.00
C287   C     0.70701   0.90744   0.47375   0.00000  Uiso   1.00
C288   C     0.69257   0.92018   0.36504   0.00000  Uiso   1.00
C289   C     0.68562   0.95034   0.18150   0.00000  Uiso   1.00
C290   C     0.60531   0.83458   0.59679   0.00000  Uiso   1.00
C291   C     0.63302   0.78274   0.63277   0.00000  Uiso   1.00
C292   C     0.61847   0.72637   0.63047   0.00000  Uiso   1.00
C293   C     0.64890   0.68512   0.66687   0.00000  Uiso   1.00
C294   C     0.60457   0.87462   0.69840   0.00000  Uiso   1.00
C295   C     0.56609   0.89551   0.75127   0.00000  Uiso   1.00
C296   C     0.57256   0.93161   0.84292   0.00000  Uiso   1.00
C297   C     0.63309   0.86488   0.50632   0.00000  Uiso   1.00
C298   C     0.61860   0.87759   0.39770   0.00000  Uiso   1.00
C299   C     0.64908   0.90551   0.32765   0.00000  Uiso   1.00
H300   H     0.71901   0.87297   0.69459   0.00000  Uiso   1.00
H301   H     0.74047   0.76757   0.73541   0.00000  Uiso   1.00
H302   H     0.68810   0.93669   0.85618   0.00000  Uiso   1.00
H303   H     0.74059   0.91877   0.50267   0.00000  Uiso   1.00
H304   H     0.74511   0.64426   0.76424   0.00000  Uiso   1.00
H305   H     0.63468   0.00087   0.01887   0.00000  Uiso   1.00
H306   H     0.74539   0.96309   0.27342   0.00000  Uiso   1.00
H307   H     0.57152   0.82318   0.56772   0.00000  Uiso   1.00
H308   H     0.58488   0.71504   0.60157   0.00000  Uiso   1.00
H309   H     0.53251   0.88417   0.72235   0.00000  Uiso   1.00
H310   H     0.58501   0.86625   0.36884   0.00000  Uiso   1.00
H311   H     0.61884   0.60163   0.65562   0.00000  Uiso   1.00
H312   H     0.50840   0.95824   0.91025   0.00000  Uiso   1.00
H313   H     0.61911   0.92046   0.16480   0.00000  Uiso   1.00
O314   O     0.69342   0.55271   0.73452   0.00000  Uiso   1.00
O315   O     0.54854   0.02058   0.06857   0.00000  Uiso   1.00
O316   O     0.69378   0.97101   0.09056   0.00000  Uiso   1.00
N317   N     0.71356   0.64906   0.73401   0.00000  Uiso   1.00
N318   N     0.61032   0.98247   0.97208   0.00000  Uiso   1.00
N319   N     0.71381   0.94716   0.27516   0.00000  Uiso   1.00
N320   N     0.64561   0.62612   0.67556   0.00000  Uiso   1.00
N321   N     0.54237   0.95953   0.91363   0.00000  Uiso   1.00
N322   N     0.64586   0.92422   0.21671   0.00000  Uiso   1.00
C323   C     0.81478   0.63844   0.16552   0.00000  Uiso   1.00
C324   C     0.82357   0.70261   0.17010   0.00000  Uiso   1.00
C325   C     0.79312   0.74379   0.20651   0.00000  Uiso   1.00
C326   C     0.80761   0.80021   0.20428   0.00000  Uiso   1.00
C327   C     0.81467   0.89761   0.21711   0.00000  Uiso   1.00
C328   C     0.85203   0.61073   0.23573   0.00000  Uiso   1.00
C329   C     0.84550   0.57465   0.32732   0.00000  Uiso   1.00
C330   C     0.88395   0.55371   0.38032   0.00000  Uiso   1.00
C331   C     0.93519   0.50843   0.49499   0.00000  Uiso   1.00
C332   C     0.82350   0.62047   0.04365   0.00000  Uiso   1.00
C333   C     0.79299   0.59256   0.97375   0.00000  Uiso   1.00
C334   C     0.80743   0.57982   0.86504   0.00000  Uiso   1.00
C335   C     0.81438   0.54966   0.68150   0.00000  Uiso   1.00
C336   C     0.89469   0.66542   0.09679   0.00000  Uiso   1.00
C337   C     0.86698   0.71726   0.13277   0.00000  Uiso   1.00
C338   C     0.88153   0.77363   0.13047   0.00000  Uiso   1.00
C339   C     0.85110   0.81488   0.16687   0.00000  Uiso   1.00
C340   C     0.89543   0.62538   0.19840   0.00000  Uiso   1.00
C341   C     0.93391   0.60449   0.25127   0.00000  Uiso   1.00
C342   C     0.92744   0.56839   0.34292   0.00000  Uiso   1.00
C343   C     0.86691   0.63512   0.00632   0.00000  Uiso   1.00
C344   C     0.88140   0.62241   0.89770   0.00000  Uiso   1.00
C345   C     0.85092   0.59449   0.82765   0.00000  Uiso   1.00
H346   H     0.78099   0.62703   0.19459   0.00000  Uiso   1.00
H347   H     0.75953   0.73243   0.23541   0.00000  Uiso   1.00
H348   H     0.81190   0.56331   0.35618   0.00000  Uiso   1.00
H349   H     0.75941   0.58123   0.00267   0.00000  Uiso   1.00
H350   H     0.75489   0.85574   0.26424   0.00000  Uiso   1.00
H351   H     0.86532   0.49913   0.51887   0.00000  Uiso   1.00
H352   H     0.75461   0.53691   0.77342   0.00000  Uiso   1.00
H353   H     0.92848   0.67682   0.06772   0.00000  Uiso   1.00
H354   H     0.91512   0.78496   0.10157   0.00000  Uiso   1.00
H355   H     0.96749   0.61583   0.22235   0.00000  Uiso   1.00
H356   H     0.91499   0.63375   0.86884   0.00000  Uiso   1.00
H357   H     0.88116   0.89837   0.15562   0.00000  Uiso   1.00
H358   H     0.99160   0.54176   0.41025   0.00000  Uiso   1.00
H359   H     0.88089   0.57954   0.66480   0.00000  Uiso   1.00
O360   O     0.80658   0.94729   0.23452   0.00000  Uiso   1.00
O361   O     0.95146   0.47942   0.56857   0.00000  Uiso   1.00
O362   O     0.80622   0.52899   0.59056   0.00000  Uiso   1.00
N363   N     0.78644   0.85094   0.23401   0.00000  Uiso   1.00
N364   N     0.88968   0.51753   0.47208   0.00000  Uiso   1.00
N365   N     0.78619   0.55284   0.77516   0.00000  Uiso   1.00
N366   N     0.85439   0.87388   0.17556   0.00000  Uiso   1.00
N367   N     0.95763   0.54047   0.41363   0.00000  Uiso   1.00
N368   N     0.85414   0.57578   0.71671   0.00000  Uiso   1.00
