data_job_02543
_audit_creation_date              2018-12-19
_audit_creation_method            'Materials Studio'
_symmetry_space_group_name_H-M    'P1'
_symmetry_Int_Tables_number       1
_symmetry_cell_setting            triclinic
loop_
_symmetry_equiv_pos_as_xyz
  x,y,z
_cell_length_a                    29.3645
_cell_length_b                    11.8930
_cell_length_c                    23.0852
_cell_angle_alpha                 90.0000
_cell_angle_beta                  90.0000
_cell_angle_gamma                 90.0000
loop_
_atom_site_label
_atom_site_type_symbol
_atom_site_fract_x
_atom_site_fract_y
_atom_site_fract_z
_atom_site_U_iso_or_equiv
_atom_site_adp_type
_atom_site_occupancy
C1     C     0.10045   0.91638   0.40852   0.00000  Uiso   1.00
C2     C     0.13745   0.92331   0.36230   0.00000  Uiso   1.00
C3     C     0.14843   0.83928   0.32301   0.00000  Uiso   1.00
C4     C     0.18336   0.86195   0.28419   0.00000  Uiso   1.00
C5     C     0.23731   0.85702   0.21237   0.00000  Uiso   1.00
C6     C     0.12407   0.93966   0.46611   0.00000  Uiso   1.00
C7     C     0.12379   0.86937   0.51410   0.00000  Uiso   1.00
C8     C     0.14745   0.90581   0.56267   0.00000  Uiso   1.00
C9     C     0.18060   0.92629   0.65204   0.00000  Uiso   1.00
C10    C     0.06896   0.01618   0.39779   0.00000  Uiso   1.00
C11    C     0.02234   0.01023   0.38834   0.00000  Uiso   1.00
C12    C     0.99960   0.11110   0.37940   0.00000  Uiso   1.00
C13    C     0.94718   0.25038   0.36267   0.00000  Uiso   1.00
C14    C     0.14294   0.10609   0.40946   0.00000  Uiso   1.00
C15    C     0.16053   0.02636   0.36281   0.00000  Uiso   1.00
C16    C     0.19544   0.04917   0.32404   0.00000  Uiso   1.00
C17    C     0.20648   0.96518   0.28470   0.00000  Uiso   1.00
C18    C     0.14714   0.04269   0.46663   0.00000  Uiso   1.00
C19    C     0.17081   0.07925   0.51514   0.00000  Uiso   1.00
C20    C     0.17057   0.00904   0.56319   0.00000  Uiso   1.00
C21    C     0.09203   0.11922   0.39829   0.00000  Uiso   1.00
C22    C     0.06936   0.22012   0.38937   0.00000  Uiso   1.00
C23    C     0.02272   0.21433   0.37991   0.00000  Uiso   1.00
H24    H     0.08248   0.83616   0.40813   0.00000  Uiso   1.00
H25    H     0.13057   0.75954   0.32263   0.00000  Uiso   1.00
H26    H     0.10593   0.78964   0.51370   0.00000  Uiso   1.00
H27    H     0.00449   0.93048   0.38795   0.00000  Uiso   1.00
H28    H     0.19407   0.72003   0.22808   0.00000  Uiso   1.00
H29    H     0.14210   0.78350   0.63096   0.00000  Uiso   1.00
H30    H     0.92821   0.08049   0.36580   0.00000  Uiso   1.00
H31    H     0.16091   0.18631   0.40986   0.00000  Uiso   1.00
H32    H     0.21330   0.12891   0.32445   0.00000  Uiso   1.00
H33    H     0.18866   0.15900   0.51552   0.00000  Uiso   1.00
H34    H     0.08723   0.29984   0.38977   0.00000  Uiso   1.00
H35    H     0.26122   0.01981   0.22956   0.00000  Uiso   1.00
H36    H     0.20925   0.08329   0.63244   0.00000  Uiso   1.00
H37    H     0.99536   0.38027   0.36728   0.00000  Uiso   1.00
O38    O     0.26070   0.82583   0.17262   0.00000  Uiso   1.00
O39    O     0.19252   0.90911   0.70119   0.00000  Uiso   1.00
O40    O     0.91189   0.29875   0.35330   0.00000  Uiso   1.00
N41    N     0.20268   0.79847   0.24014   0.00000  Uiso   1.00
N42    N     0.15410   0.85780   0.61681   0.00000  Uiso   1.00
N43    N     0.95412   0.13546   0.36892   0.00000  Uiso   1.00
N44    N     0.23881   0.95978   0.24094   0.00000  Uiso   1.00
N45    N     0.19023   0.01911   0.61760   0.00000  Uiso   1.00
N46    N     0.99025   0.29678   0.36971   0.00000  Uiso   1.00
C47    C     0.39955   0.08362   0.90852   0.00000  Uiso   1.00
C48    C     0.36255   0.07669   0.86230   0.00000  Uiso   1.00
C49    C     0.35157   0.16072   0.82301   0.00000  Uiso   1.00
C50    C     0.31664   0.13805   0.78419   0.00000  Uiso   1.00
C51    C     0.26269   0.14298   0.71237   0.00000  Uiso   1.00
C52    C     0.37593   0.06034   0.96611   0.00000  Uiso   1.00
C53    C     0.37621   0.13063   0.01410   0.00000  Uiso   1.00
C54    C     0.35255   0.09419   0.06267   0.00000  Uiso   1.00
C55    C     0.31940   0.07371   0.15204   0.00000  Uiso   1.00
C56    C     0.43104   0.98382   0.89779   0.00000  Uiso   1.00
C57    C     0.47766   0.98977   0.88834   0.00000  Uiso   1.00
C58    C     0.50040   0.88890   0.87940   0.00000  Uiso   1.00
C59    C     0.55282   0.74962   0.86267   0.00000  Uiso   1.00
C60    C     0.35706   0.89391   0.90946   0.00000  Uiso   1.00
C61    C     0.33947   0.97364   0.86281   0.00000  Uiso   1.00
C62    C     0.30456   0.95083   0.82404   0.00000  Uiso   1.00
C63    C     0.29352   0.03482   0.78470   0.00000  Uiso   1.00
C64    C     0.35286   0.95731   0.96663   0.00000  Uiso   1.00
C65    C     0.32919   0.92075   0.01514   0.00000  Uiso   1.00
C66    C     0.32943   0.99096   0.06319   0.00000  Uiso   1.00
C67    C     0.40797   0.88078   0.89829   0.00000  Uiso   1.00
C68    C     0.43064   0.77988   0.88937   0.00000  Uiso   1.00
C69    C     0.47728   0.78567   0.87991   0.00000  Uiso   1.00
H70    H     0.41752   0.16384   0.90813   0.00000  Uiso   1.00
H71    H     0.36943   0.24046   0.82263   0.00000  Uiso   1.00
H72    H     0.39407   0.21036   0.01370   0.00000  Uiso   1.00
H73    H     0.49551   0.06952   0.88795   0.00000  Uiso   1.00
H74    H     0.30593   0.27997   0.72808   0.00000  Uiso   1.00
H75    H     0.35790   0.21650   0.13096   0.00000  Uiso   1.00
H76    H     0.57179   0.91951   0.86580   0.00000  Uiso   1.00
H77    H     0.33909   0.81369   0.90986   0.00000  Uiso   1.00
H78    H     0.28670   0.87109   0.82445   0.00000  Uiso   1.00
H79    H     0.31134   0.84100   0.01552   0.00000  Uiso   1.00
H80    H     0.41277   0.70016   0.88977   0.00000  Uiso   1.00
H81    H     0.23878   0.98019   0.72956   0.00000  Uiso   1.00
H82    H     0.29075   0.91671   0.13244   0.00000  Uiso   1.00
H83    H     0.50464   0.61973   0.86728   0.00000  Uiso   1.00
O84    O     0.23930   0.17417   0.67262   0.00000  Uiso   1.00
O85    O     0.30748   0.09089   0.20119   0.00000  Uiso   1.00
O86    O     0.58811   0.70125   0.85330   0.00000  Uiso   1.00
N87    N     0.29732   0.20153   0.74014   0.00000  Uiso   1.00
N88    N     0.34590   0.14220   0.11681   0.00000  Uiso   1.00
N89    N     0.54588   0.86454   0.86892   0.00000  Uiso   1.00
N90    N     0.26119   0.04022   0.74094   0.00000  Uiso   1.00
N91    N     0.30977   0.98089   0.11760   0.00000  Uiso   1.00
N92    N     0.50975   0.70322   0.86971   0.00000  Uiso   1.00
C93    C     0.89955   0.41638   0.09148   0.00000  Uiso   1.00
C94    C     0.86255   0.42331   0.13770   0.00000  Uiso   1.00
C95    C     0.85157   0.33928   0.17699   0.00000  Uiso   1.00
C96    C     0.81664   0.36195   0.21581   0.00000  Uiso   1.00
C97    C     0.76269   0.35702   0.28763   0.00000  Uiso   1.00
C98    C     0.87593   0.43966   0.03389   0.00000  Uiso   1.00
C99    C     0.87621   0.36937   0.98590   0.00000  Uiso   1.00
C100   C     0.85255   0.40581   0.93733   0.00000  Uiso   1.00
C101   C     0.81940   0.42629   0.84796   0.00000  Uiso   1.00
C102   C     0.93104   0.51618   0.10221   0.00000  Uiso   1.00
C103   C     0.97766   0.51023   0.11166   0.00000  Uiso   1.00
C104   C     0.00040   0.61110   0.12060   0.00000  Uiso   1.00
C105   C     0.05282   0.75038   0.13733   0.00000  Uiso   1.00
C106   C     0.85706   0.60609   0.09054   0.00000  Uiso   1.00
C107   C     0.83947   0.52636   0.13719   0.00000  Uiso   1.00
C108   C     0.80456   0.54917   0.17596   0.00000  Uiso   1.00
C109   C     0.79352   0.46518   0.21530   0.00000  Uiso   1.00
C110   C     0.85286   0.54269   0.03337   0.00000  Uiso   1.00
C111   C     0.82919   0.57925   0.98486   0.00000  Uiso   1.00
C112   C     0.82943   0.50904   0.93681   0.00000  Uiso   1.00
C113   C     0.90797   0.61922   0.10171   0.00000  Uiso   1.00
C114   C     0.93064   0.72012   0.11063   0.00000  Uiso   1.00
C115   C     0.97728   0.71433   0.12009   0.00000  Uiso   1.00
H116   H     0.91752   0.33616   0.09187   0.00000  Uiso   1.00
H117   H     0.86943   0.25954   0.17737   0.00000  Uiso   1.00
H118   H     0.89407   0.28964   0.98630   0.00000  Uiso   1.00
H119   H     0.99551   0.43048   0.11205   0.00000  Uiso   1.00
H120   H     0.80593   0.22003   0.27192   0.00000  Uiso   1.00
H121   H     0.85790   0.28350   0.86904   0.00000  Uiso   1.00
H122   H     0.07179   0.58049   0.13420   0.00000  Uiso   1.00
H123   H     0.83909   0.68631   0.09014   0.00000  Uiso   1.00
H124   H     0.78670   0.62891   0.17555   0.00000  Uiso   1.00
H125   H     0.81134   0.65900   0.98448   0.00000  Uiso   1.00
H126   H     0.91277   0.79984   0.11023   0.00000  Uiso   1.00
H127   H     0.73878   0.51981   0.27044   0.00000  Uiso   1.00
H128   H     0.79075   0.58329   0.86756   0.00000  Uiso   1.00
H129   H     0.00464   0.88027   0.13272   0.00000  Uiso   1.00
O130   O     0.73930   0.32583   0.32738   0.00000  Uiso   1.00
O131   O     0.80748   0.40911   0.79881   0.00000  Uiso   1.00
O132   O     0.08811   0.79875   0.14670   0.00000  Uiso   1.00
N133   N     0.79732   0.29847   0.25986   0.00000  Uiso   1.00
N134   N     0.84590   0.35780   0.88319   0.00000  Uiso   1.00
N135   N     0.04588   0.63546   0.13108   0.00000  Uiso   1.00
N136   N     0.76119   0.45978   0.25906   0.00000  Uiso   1.00
N137   N     0.80977   0.51911   0.88240   0.00000  Uiso   1.00
N138   N     0.00975   0.79678   0.13029   0.00000  Uiso   1.00
C139   C     0.60045   0.58362   0.59148   0.00000  Uiso   1.00
C140   C     0.63745   0.57669   0.63770   0.00000  Uiso   1.00
C141   C     0.64843   0.66072   0.67699   0.00000  Uiso   1.00
C142   C     0.68336   0.63805   0.71581   0.00000  Uiso   1.00
C143   C     0.73731   0.64298   0.78763   0.00000  Uiso   1.00
C144   C     0.62407   0.56034   0.53389   0.00000  Uiso   1.00
C145   C     0.62379   0.63063   0.48590   0.00000  Uiso   1.00
C146   C     0.64745   0.59419   0.43733   0.00000  Uiso   1.00
C147   C     0.68060   0.57371   0.34796   0.00000  Uiso   1.00
C148   C     0.56896   0.48382   0.60221   0.00000  Uiso   1.00
C149   C     0.52234   0.48977   0.61166   0.00000  Uiso   1.00
C150   C     0.49960   0.38890   0.62060   0.00000  Uiso   1.00
C151   C     0.44718   0.24962   0.63733   0.00000  Uiso   1.00
C152   C     0.64294   0.39391   0.59054   0.00000  Uiso   1.00
C153   C     0.66053   0.47364   0.63719   0.00000  Uiso   1.00
C154   C     0.69544   0.45083   0.67596   0.00000  Uiso   1.00
C155   C     0.70648   0.53482   0.71530   0.00000  Uiso   1.00
C156   C     0.64714   0.45731   0.53337   0.00000  Uiso   1.00
C157   C     0.67081   0.42075   0.48486   0.00000  Uiso   1.00
C158   C     0.67057   0.49096   0.43681   0.00000  Uiso   1.00
C159   C     0.59203   0.38078   0.60171   0.00000  Uiso   1.00
C160   C     0.56936   0.27988   0.61063   0.00000  Uiso   1.00
C161   C     0.52272   0.28567   0.62009   0.00000  Uiso   1.00
H162   H     0.58248   0.66384   0.59187   0.00000  Uiso   1.00
H163   H     0.63057   0.74046   0.67737   0.00000  Uiso   1.00
H164   H     0.60593   0.71036   0.48630   0.00000  Uiso   1.00
H165   H     0.50449   0.56952   0.61205   0.00000  Uiso   1.00
H166   H     0.69407   0.77997   0.77192   0.00000  Uiso   1.00
H167   H     0.64210   0.71650   0.36904   0.00000  Uiso   1.00
H168   H     0.42821   0.41951   0.63420   0.00000  Uiso   1.00
H169   H     0.66091   0.31369   0.59014   0.00000  Uiso   1.00
H170   H     0.71330   0.37109   0.67555   0.00000  Uiso   1.00
H171   H     0.68866   0.34100   0.48448   0.00000  Uiso   1.00
H172   H     0.58723   0.20016   0.61023   0.00000  Uiso   1.00
H173   H     0.76122   0.48019   0.77044   0.00000  Uiso   1.00
H174   H     0.70925   0.41671   0.36756   0.00000  Uiso   1.00
H175   H     0.49536   0.11973   0.63272   0.00000  Uiso   1.00
O176   O     0.76070   0.67417   0.82738   0.00000  Uiso   1.00
O177   O     0.69252   0.59089   0.29881   0.00000  Uiso   1.00
O178   O     0.41189   0.20125   0.64670   0.00000  Uiso   1.00
N179   N     0.70268   0.70153   0.75986   0.00000  Uiso   1.00
N180   N     0.65410   0.64220   0.38319   0.00000  Uiso   1.00
N181   N     0.45412   0.36454   0.63108   0.00000  Uiso   1.00
N182   N     0.73881   0.54022   0.75906   0.00000  Uiso   1.00
N183   N     0.69023   0.48089   0.38240   0.00000  Uiso   1.00
N184   N     0.49025   0.20322   0.63029   0.00000  Uiso   1.00
C185   C     0.89955   0.08362   0.59148   0.00000  Uiso   1.00
C186   C     0.86255   0.07669   0.63770   0.00000  Uiso   1.00
C187   C     0.85157   0.16072   0.67699   0.00000  Uiso   1.00
C188   C     0.81664   0.13805   0.71581   0.00000  Uiso   1.00
C189   C     0.76269   0.14298   0.78763   0.00000  Uiso   1.00
C190   C     0.87593   0.06034   0.53389   0.00000  Uiso   1.00
C191   C     0.87621   0.13063   0.48590   0.00000  Uiso   1.00
C192   C     0.85255   0.09419   0.43733   0.00000  Uiso   1.00
C193   C     0.81940   0.07371   0.34796   0.00000  Uiso   1.00
C194   C     0.93104   0.98382   0.60221   0.00000  Uiso   1.00
C195   C     0.97766   0.98977   0.61166   0.00000  Uiso   1.00
C196   C     0.00040   0.88890   0.62060   0.00000  Uiso   1.00
C197   C     0.05282   0.74962   0.63733   0.00000  Uiso   1.00
C198   C     0.85706   0.89391   0.59054   0.00000  Uiso   1.00
C199   C     0.83947   0.97364   0.63719   0.00000  Uiso   1.00
C200   C     0.80456   0.95083   0.67596   0.00000  Uiso   1.00
C201   C     0.79352   0.03482   0.71530   0.00000  Uiso   1.00
C202   C     0.85286   0.95731   0.53337   0.00000  Uiso   1.00
C203   C     0.82919   0.92075   0.48486   0.00000  Uiso   1.00
C204   C     0.82943   0.99096   0.43681   0.00000  Uiso   1.00
C205   C     0.90797   0.88078   0.60171   0.00000  Uiso   1.00
C206   C     0.93064   0.77988   0.61063   0.00000  Uiso   1.00
C207   C     0.97728   0.78567   0.62009   0.00000  Uiso   1.00
H208   H     0.91752   0.16384   0.59187   0.00000  Uiso   1.00
H209   H     0.86943   0.24046   0.67737   0.00000  Uiso   1.00
H210   H     0.89407   0.21036   0.48630   0.00000  Uiso   1.00
H211   H     0.99551   0.06952   0.61205   0.00000  Uiso   1.00
H212   H     0.80593   0.27997   0.77192   0.00000  Uiso   1.00
H213   H     0.85790   0.21650   0.36904   0.00000  Uiso   1.00
H214   H     0.07179   0.91951   0.63420   0.00000  Uiso   1.00
H215   H     0.83909   0.81369   0.59014   0.00000  Uiso   1.00
H216   H     0.78670   0.87109   0.67555   0.00000  Uiso   1.00
H217   H     0.81134   0.84100   0.48448   0.00000  Uiso   1.00
H218   H     0.91277   0.70016   0.61023   0.00000  Uiso   1.00
H219   H     0.73878   0.98019   0.77044   0.00000  Uiso   1.00
H220   H     0.79075   0.91671   0.36756   0.00000  Uiso   1.00
H221   H     0.00464   0.61973   0.63272   0.00000  Uiso   1.00
O222   O     0.73930   0.17417   0.82738   0.00000  Uiso   1.00
O223   O     0.80748   0.09089   0.29881   0.00000  Uiso   1.00
O224   O     0.08811   0.70125   0.64670   0.00000  Uiso   1.00
N225   N     0.79732   0.20153   0.75986   0.00000  Uiso   1.00
N226   N     0.84590   0.14220   0.38319   0.00000  Uiso   1.00
N227   N     0.04588   0.86454   0.63108   0.00000  Uiso   1.00
N228   N     0.76119   0.04022   0.75906   0.00000  Uiso   1.00
N229   N     0.80977   0.98089   0.38240   0.00000  Uiso   1.00
N230   N     0.00975   0.70322   0.63029   0.00000  Uiso   1.00
C231   C     0.60045   0.91638   0.09148   0.00000  Uiso   1.00
C232   C     0.63745   0.92331   0.13770   0.00000  Uiso   1.00
C233   C     0.64843   0.83928   0.17699   0.00000  Uiso   1.00
C234   C     0.68336   0.86195   0.21581   0.00000  Uiso   1.00
C235   C     0.73731   0.85702   0.28763   0.00000  Uiso   1.00
C236   C     0.62407   0.93966   0.03389   0.00000  Uiso   1.00
C237   C     0.62379   0.86937   0.98590   0.00000  Uiso   1.00
C238   C     0.64745   0.90581   0.93733   0.00000  Uiso   1.00
C239   C     0.68060   0.92629   0.84796   0.00000  Uiso   1.00
C240   C     0.56896   0.01618   0.10221   0.00000  Uiso   1.00
C241   C     0.52234   0.01023   0.11166   0.00000  Uiso   1.00
C242   C     0.49960   0.11110   0.12060   0.00000  Uiso   1.00
C243   C     0.44718   0.25038   0.13733   0.00000  Uiso   1.00
C244   C     0.64294   0.10609   0.09054   0.00000  Uiso   1.00
C245   C     0.66053   0.02636   0.13719   0.00000  Uiso   1.00
C246   C     0.69544   0.04917   0.17596   0.00000  Uiso   1.00
C247   C     0.70648   0.96518   0.21530   0.00000  Uiso   1.00
C248   C     0.64714   0.04269   0.03337   0.00000  Uiso   1.00
C249   C     0.67081   0.07925   0.98486   0.00000  Uiso   1.00
C250   C     0.67057   0.00904   0.93681   0.00000  Uiso   1.00
C251   C     0.59203   0.11922   0.10171   0.00000  Uiso   1.00
C252   C     0.56936   0.22012   0.11063   0.00000  Uiso   1.00
C253   C     0.52272   0.21433   0.12009   0.00000  Uiso   1.00
H254   H     0.58248   0.83616   0.09187   0.00000  Uiso   1.00
H255   H     0.63057   0.75954   0.17737   0.00000  Uiso   1.00
H256   H     0.60593   0.78964   0.98630   0.00000  Uiso   1.00
H257   H     0.50449   0.93048   0.11205   0.00000  Uiso   1.00
H258   H     0.69407   0.72003   0.27192   0.00000  Uiso   1.00
H259   H     0.64210   0.78350   0.86904   0.00000  Uiso   1.00
H260   H     0.42821   0.08049   0.13420   0.00000  Uiso   1.00
H261   H     0.66091   0.18631   0.09014   0.00000  Uiso   1.00
H262   H     0.71330   0.12891   0.17555   0.00000  Uiso   1.00
H263   H     0.68866   0.15900   0.98448   0.00000  Uiso   1.00
H264   H     0.58723   0.29984   0.11023   0.00000  Uiso   1.00
H265   H     0.76122   0.01981   0.27044   0.00000  Uiso   1.00
H266   H     0.70925   0.08329   0.86756   0.00000  Uiso   1.00
H267   H     0.49536   0.38027   0.13272   0.00000  Uiso   1.00
O268   O     0.76070   0.82583   0.32738   0.00000  Uiso   1.00
O269   O     0.69252   0.90911   0.79881   0.00000  Uiso   1.00
O270   O     0.41189   0.29875   0.14670   0.00000  Uiso   1.00
N271   N     0.70268   0.79847   0.25986   0.00000  Uiso   1.00
N272   N     0.65410   0.85780   0.88319   0.00000  Uiso   1.00
N273   N     0.45412   0.13546   0.13108   0.00000  Uiso   1.00
N274   N     0.73881   0.95978   0.25906   0.00000  Uiso   1.00
N275   N     0.69023   0.01911   0.88240   0.00000  Uiso   1.00
N276   N     0.49025   0.29678   0.13029   0.00000  Uiso   1.00
C277   C     0.10045   0.58362   0.90852   0.00000  Uiso   1.00
C278   C     0.13745   0.57669   0.86230   0.00000  Uiso   1.00
C279   C     0.14843   0.66072   0.82301   0.00000  Uiso   1.00
C280   C     0.18336   0.63805   0.78419   0.00000  Uiso   1.00
C281   C     0.23731   0.64298   0.71237   0.00000  Uiso   1.00
C282   C     0.12407   0.56034   0.96611   0.00000  Uiso   1.00
C283   C     0.12379   0.63063   0.01410   0.00000  Uiso   1.00
C284   C     0.14745   0.59419   0.06267   0.00000  Uiso   1.00
C285   C     0.18060   0.57371   0.15204   0.00000  Uiso   1.00
C286   C     0.06896   0.48382   0.89779   0.00000  Uiso   1.00
C287   C     0.02234   0.48977   0.88834   0.00000  Uiso   1.00
C288   C     0.99960   0.38890   0.87940   0.00000  Uiso   1.00
C289   C     0.94718   0.24962   0.86267   0.00000  Uiso   1.00
C290   C     0.14294   0.39391   0.90946   0.00000  Uiso   1.00
C291   C     0.16053   0.47364   0.86281   0.00000  Uiso   1.00
C292   C     0.19544   0.45083   0.82404   0.00000  Uiso   1.00
C293   C     0.20648   0.53482   0.78470   0.00000  Uiso   1.00
C294   C     0.14714   0.45731   0.96663   0.00000  Uiso   1.00
C295   C     0.17081   0.42075   0.01514   0.00000  Uiso   1.00
C296   C     0.17057   0.49096   0.06319   0.00000  Uiso   1.00
C297   C     0.09203   0.38078   0.89829   0.00000  Uiso   1.00
C298   C     0.06936   0.27988   0.88937   0.00000  Uiso   1.00
C299   C     0.02272   0.28567   0.87991   0.00000  Uiso   1.00
H300   H     0.08248   0.66384   0.90813   0.00000  Uiso   1.00
H301   H     0.13057   0.74046   0.82263   0.00000  Uiso   1.00
H302   H     0.10593   0.71036   0.01370   0.00000  Uiso   1.00
H303   H     0.00449   0.56952   0.88795   0.00000  Uiso   1.00
H304   H     0.19407   0.77997   0.72808   0.00000  Uiso   1.00
H305   H     0.14210   0.71650   0.13096   0.00000  Uiso   1.00
H306   H     0.92821   0.41951   0.86580   0.00000  Uiso   1.00
H307   H     0.16091   0.31369   0.90986   0.00000  Uiso   1.00
H308   H     0.21330   0.37109   0.82445   0.00000  Uiso   1.00
H309   H     0.18866   0.34100   0.01552   0.00000  Uiso   1.00
H310   H     0.08723   0.20016   0.88977   0.00000  Uiso   1.00
H311   H     0.26122   0.48019   0.72956   0.00000  Uiso   1.00
H312   H     0.20925   0.41671   0.13244   0.00000  Uiso   1.00
H313   H     0.99536   0.11973   0.86728   0.00000  Uiso   1.00
O314   O     0.26070   0.67417   0.67262   0.00000  Uiso   1.00
O315   O     0.19252   0.59089   0.20119   0.00000  Uiso   1.00
O316   O     0.91189   0.20125   0.85330   0.00000  Uiso   1.00
N317   N     0.20268   0.70153   0.74014   0.00000  Uiso   1.00
N318   N     0.15410   0.64220   0.11681   0.00000  Uiso   1.00
N319   N     0.95412   0.36454   0.86892   0.00000  Uiso   1.00
N320   N     0.23881   0.54022   0.74094   0.00000  Uiso   1.00
N321   N     0.19023   0.48089   0.11760   0.00000  Uiso   1.00
N322   N     0.99025   0.20322   0.86971   0.00000  Uiso   1.00
C323   C     0.39955   0.41638   0.40852   0.00000  Uiso   1.00
C324   C     0.36255   0.42331   0.36230   0.00000  Uiso   1.00
C325   C     0.35157   0.33928   0.32301   0.00000  Uiso   1.00
C326   C     0.31664   0.36195   0.28419   0.00000  Uiso   1.00
C327   C     0.26269   0.35702   0.21237   0.00000  Uiso   1.00
C328   C     0.37593   0.43966   0.46611   0.00000  Uiso   1.00
C329   C     0.37621   0.36937   0.51410   0.00000  Uiso   1.00
C330   C     0.35255   0.40581   0.56267   0.00000  Uiso   1.00
C331   C     0.31940   0.42629   0.65204   0.00000  Uiso   1.00
C332   C     0.43104   0.51618   0.39779   0.00000  Uiso   1.00
C333   C     0.47766   0.51023   0.38834   0.00000  Uiso   1.00
C334   C     0.50040   0.61110   0.37940   0.00000  Uiso   1.00
C335   C     0.55282   0.75038   0.36267   0.00000  Uiso   1.00
C336   C     0.35706   0.60609   0.40946   0.00000  Uiso   1.00
C337   C     0.33947   0.52636   0.36281   0.00000  Uiso   1.00
C338   C     0.30456   0.54917   0.32404   0.00000  Uiso   1.00
C339   C     0.29352   0.46518   0.28470   0.00000  Uiso   1.00
C340   C     0.35286   0.54269   0.46663   0.00000  Uiso   1.00
C341   C     0.32919   0.57925   0.51514   0.00000  Uiso   1.00
C342   C     0.32943   0.50904   0.56319   0.00000  Uiso   1.00
C343   C     0.40797   0.61922   0.39829   0.00000  Uiso   1.00
C344   C     0.43064   0.72012   0.38937   0.00000  Uiso   1.00
C345   C     0.47728   0.71433   0.37991   0.00000  Uiso   1.00
H346   H     0.41752   0.33616   0.40813   0.00000  Uiso   1.00
H347   H     0.36943   0.25954   0.32263   0.00000  Uiso   1.00
H348   H     0.39407   0.28964   0.51370   0.00000  Uiso   1.00
H349   H     0.49551   0.43048   0.38795   0.00000  Uiso   1.00
H350   H     0.30593   0.22003   0.22808   0.00000  Uiso   1.00
H351   H     0.35790   0.28350   0.63096   0.00000  Uiso   1.00
H352   H     0.57179   0.58049   0.36580   0.00000  Uiso   1.00
H353   H     0.33909   0.68631   0.40986   0.00000  Uiso   1.00
H354   H     0.28670   0.62891   0.32445   0.00000  Uiso   1.00
H355   H     0.31134   0.65900   0.51552   0.00000  Uiso   1.00
H356   H     0.41277   0.79984   0.38977   0.00000  Uiso   1.00
H357   H     0.23878   0.51981   0.22956   0.00000  Uiso   1.00
H358   H     0.29075   0.58329   0.63244   0.00000  Uiso   1.00
H359   H     0.50464   0.88027   0.36728   0.00000  Uiso   1.00
O360   O     0.23930   0.32583   0.17262   0.00000  Uiso   1.00
O361   O     0.30748   0.40911   0.70119   0.00000  Uiso   1.00
O362   O     0.58811   0.79875   0.35330   0.00000  Uiso   1.00
N363   N     0.29732   0.29847   0.24014   0.00000  Uiso   1.00
N364   N     0.34590   0.35780   0.61681   0.00000  Uiso   1.00
N365   N     0.54588   0.63546   0.36892   0.00000  Uiso   1.00
N366   N     0.26119   0.45978   0.24094   0.00000  Uiso   1.00
N367   N     0.30977   0.51911   0.61760   0.00000  Uiso   1.00
N368   N     0.50975   0.79678   0.36971   0.00000  Uiso   1.00
