data_job_01538
_audit_creation_date              2018-12-19
_audit_creation_method            'Materials Studio'
_symmetry_space_group_name_H-M    'P1'
_symmetry_Int_Tables_number       1
_symmetry_cell_setting            triclinic
loop_
_symmetry_equiv_pos_as_xyz
  x,y,z
_cell_length_a                    13.9557
_cell_length_b                    20.6938
_cell_length_c                    22.4348
_cell_angle_alpha                 90.0000
_cell_angle_beta                  56.2705
_cell_angle_gamma                 90.0000
loop_
_atom_site_label
_atom_site_type_symbol
_atom_site_fract_x
_atom_site_fract_y
_atom_site_fract_z
_atom_site_U_iso_or_equiv
_atom_site_adp_type
_atom_site_occupancy
C1     C     0.37514   0.30143   0.66747   0.00000  Uiso   1.00
C2     C     0.30692   0.31370   0.74802   0.00000  Uiso   1.00
C3     C     0.31930   0.28018   0.79694   0.00000  Uiso   1.00
C4     C     0.24878   0.29871   0.86827   0.00000  Uiso   1.00
C5     C     0.15499   0.31009   0.99006   0.00000  Uiso   1.00
C6     C     0.28613   0.28832   0.64970   0.00000  Uiso   1.00
C7     C     0.28104   0.23347   0.61596   0.00000  Uiso   1.00
C8     C     0.19303   0.23065   0.60452   0.00000  Uiso   1.00
C9     C     0.06701   0.20265   0.57363   0.00000  Uiso   1.00
C10    C     0.43145   0.36567   0.63190   0.00000  Uiso   1.00
C11    C     0.54854   0.37587   0.58316   0.00000  Uiso   1.00
C12    C     0.58287   0.43817   0.55672   0.00000  Uiso   1.00
C13    C     0.68248   0.53027   0.49819   0.00000  Uiso   1.00
C14    C     0.22790   0.39394   0.70716   0.00000  Uiso   1.00
C15    C     0.22695   0.36394   0.76957   0.00000  Uiso   1.00
C16    C     0.15640   0.38253   0.84085   0.00000  Uiso   1.00
C17    C     0.16867   0.34905   0.88987   0.00000  Uiso   1.00
C18    C     0.20616   0.33856   0.67126   0.00000  Uiso   1.00
C19    C     0.11814   0.33582   0.65987   0.00000  Uiso   1.00
C20    C     0.11291   0.28098   0.62612   0.00000  Uiso   1.00
C21    C     0.35148   0.41592   0.65345   0.00000  Uiso   1.00
C22    C     0.38564   0.47821   0.62708   0.00000  Uiso   1.00
C23    C     0.50276   0.48850   0.57832   0.00000  Uiso   1.00
H24    H     0.43740   0.26231   0.65069   0.00000  Uiso   1.00
H25    H     0.38119   0.24130   0.78023   0.00000  Uiso   1.00
H26    H     0.34295   0.19460   0.59927   0.00000  Uiso   1.00
H27    H     0.61040   0.33697   0.56649   0.00000  Uiso   1.00
H28    H     0.28358   0.24014   0.93337   0.00000  Uiso   1.00
H29    H     0.20297   0.14169   0.55179   0.00000  Uiso   1.00
H30    H     0.76695   0.44191   0.48266   0.00000  Uiso   1.00
H31    H     0.16563   0.43306   0.72394   0.00000  Uiso   1.00
H32    H     0.09452   0.42141   0.85751   0.00000  Uiso   1.00
H33    H     0.05627   0.37471   0.67655   0.00000  Uiso   1.00
H34    H     0.32373   0.51708   0.64377   0.00000  Uiso   1.00
H35    H     0.05090   0.38633   0.99610   0.00000  Uiso   1.00
H36    H     0.97029   0.28787   0.61451   0.00000  Uiso   1.00
H37    H     0.53427   0.58809   0.54538   0.00000  Uiso   1.00
O38    O     0.12533   0.30248   0.05128   0.00000  Uiso   1.00
O39    O     0.01959   0.17331   0.55064   0.00000  Uiso   1.00
O40    O     0.75951   0.56719   0.45995   0.00000  Uiso   1.00
N41    N     0.23860   0.27615   0.92980   0.00000  Uiso   1.00
N42    N     0.16321   0.18410   0.57305   0.00000  Uiso   1.00
N43    N     0.69049   0.46477   0.50841   0.00000  Uiso   1.00
N44    N     0.11339   0.35481   0.96355   0.00000  Uiso   1.00
N45    N     0.03801   0.26276   0.60680   0.00000  Uiso   1.00
N46    N     0.56528   0.54344   0.54216   0.00000  Uiso   1.00
C47    C     0.87514   0.80143   0.66747   0.00000  Uiso   1.00
C48    C     0.80692   0.81370   0.74802   0.00000  Uiso   1.00
C49    C     0.81930   0.78018   0.79694   0.00000  Uiso   1.00
C50    C     0.74878   0.79871   0.86827   0.00000  Uiso   1.00
C51    C     0.65499   0.81009   0.99006   0.00000  Uiso   1.00
C52    C     0.78613   0.78832   0.64970   0.00000  Uiso   1.00
C53    C     0.78104   0.73347   0.61596   0.00000  Uiso   1.00
C54    C     0.69303   0.73065   0.60452   0.00000  Uiso   1.00
C55    C     0.56701   0.70265   0.57363   0.00000  Uiso   1.00
C56    C     0.93145   0.86567   0.63190   0.00000  Uiso   1.00
C57    C     0.04854   0.87587   0.58316   0.00000  Uiso   1.00
C58    C     0.08287   0.93817   0.55672   0.00000  Uiso   1.00
C59    C     0.18248   0.03027   0.49819   0.00000  Uiso   1.00
C60    C     0.72790   0.89394   0.70716   0.00000  Uiso   1.00
C61    C     0.72695   0.86394   0.76957   0.00000  Uiso   1.00
C62    C     0.65640   0.88253   0.84085   0.00000  Uiso   1.00
C63    C     0.66867   0.84905   0.88987   0.00000  Uiso   1.00
C64    C     0.70616   0.83856   0.67126   0.00000  Uiso   1.00
C65    C     0.61814   0.83582   0.65987   0.00000  Uiso   1.00
C66    C     0.61291   0.78098   0.62612   0.00000  Uiso   1.00
C67    C     0.85148   0.91592   0.65345   0.00000  Uiso   1.00
C68    C     0.88564   0.97821   0.62708   0.00000  Uiso   1.00
C69    C     0.00276   0.98850   0.57832   0.00000  Uiso   1.00
H70    H     0.93740   0.76231   0.65069   0.00000  Uiso   1.00
H71    H     0.88119   0.74130   0.78023   0.00000  Uiso   1.00
H72    H     0.84295   0.69460   0.59927   0.00000  Uiso   1.00
H73    H     0.11040   0.83697   0.56649   0.00000  Uiso   1.00
H74    H     0.78358   0.74014   0.93337   0.00000  Uiso   1.00
H75    H     0.70297   0.64169   0.55179   0.00000  Uiso   1.00
H76    H     0.26695   0.94191   0.48266   0.00000  Uiso   1.00
H77    H     0.66563   0.93306   0.72394   0.00000  Uiso   1.00
H78    H     0.59452   0.92141   0.85751   0.00000  Uiso   1.00
H79    H     0.55627   0.87471   0.67655   0.00000  Uiso   1.00
H80    H     0.82373   0.01708   0.64377   0.00000  Uiso   1.00
H81    H     0.55090   0.88633   0.99610   0.00000  Uiso   1.00
H82    H     0.47029   0.78787   0.61451   0.00000  Uiso   1.00
H83    H     0.03427   0.08809   0.54538   0.00000  Uiso   1.00
O84    O     0.62533   0.80248   0.05128   0.00000  Uiso   1.00
O85    O     0.51959   0.67331   0.55064   0.00000  Uiso   1.00
O86    O     0.25951   0.06719   0.45995   0.00000  Uiso   1.00
N87    N     0.73860   0.77615   0.92980   0.00000  Uiso   1.00
N88    N     0.66321   0.68410   0.57305   0.00000  Uiso   1.00
N89    N     0.19049   0.96477   0.50841   0.00000  Uiso   1.00
N90    N     0.61339   0.85481   0.96355   0.00000  Uiso   1.00
N91    N     0.53801   0.76276   0.60680   0.00000  Uiso   1.00
N92    N     0.06528   0.04344   0.54216   0.00000  Uiso   1.00
C93    C     0.62486   0.30143   0.83253   0.00000  Uiso   1.00
C94    C     0.69308   0.31370   0.75198   0.00000  Uiso   1.00
C95    C     0.68070   0.28018   0.70306   0.00000  Uiso   1.00
C96    C     0.75122   0.29871   0.63173   0.00000  Uiso   1.00
C97    C     0.84501   0.31009   0.50994   0.00000  Uiso   1.00
C98    C     0.71387   0.28832   0.85030   0.00000  Uiso   1.00
C99    C     0.71896   0.23347   0.88404   0.00000  Uiso   1.00
C100   C     0.80697   0.23065   0.89548   0.00000  Uiso   1.00
C101   C     0.93299   0.20265   0.92637   0.00000  Uiso   1.00
C102   C     0.56855   0.36567   0.86810   0.00000  Uiso   1.00
C103   C     0.45146   0.37587   0.91684   0.00000  Uiso   1.00
C104   C     0.41713   0.43817   0.94328   0.00000  Uiso   1.00
C105   C     0.31752   0.53027   0.00181   0.00000  Uiso   1.00
C106   C     0.77210   0.39394   0.79284   0.00000  Uiso   1.00
C107   C     0.77305   0.36394   0.73043   0.00000  Uiso   1.00
C108   C     0.84360   0.38253   0.65915   0.00000  Uiso   1.00
C109   C     0.83133   0.34905   0.61013   0.00000  Uiso   1.00
C110   C     0.79384   0.33856   0.82874   0.00000  Uiso   1.00
C111   C     0.88186   0.33582   0.84013   0.00000  Uiso   1.00
C112   C     0.88709   0.28098   0.87388   0.00000  Uiso   1.00
C113   C     0.64852   0.41592   0.84655   0.00000  Uiso   1.00
C114   C     0.61436   0.47821   0.87292   0.00000  Uiso   1.00
C115   C     0.49724   0.48850   0.92168   0.00000  Uiso   1.00
H116   H     0.56260   0.26231   0.84931   0.00000  Uiso   1.00
H117   H     0.61881   0.24130   0.71977   0.00000  Uiso   1.00
H118   H     0.65705   0.19460   0.90073   0.00000  Uiso   1.00
H119   H     0.38960   0.33697   0.93351   0.00000  Uiso   1.00
H120   H     0.71642   0.24014   0.56663   0.00000  Uiso   1.00
H121   H     0.79703   0.14169   0.94821   0.00000  Uiso   1.00
H122   H     0.23305   0.44191   0.01734   0.00000  Uiso   1.00
H123   H     0.83437   0.43306   0.77606   0.00000  Uiso   1.00
H124   H     0.90548   0.42141   0.64249   0.00000  Uiso   1.00
H125   H     0.94373   0.37471   0.82345   0.00000  Uiso   1.00
H126   H     0.67627   0.51708   0.85623   0.00000  Uiso   1.00
H127   H     0.94910   0.38633   0.50390   0.00000  Uiso   1.00
H128   H     0.02971   0.28787   0.88549   0.00000  Uiso   1.00
H129   H     0.46573   0.58809   0.95462   0.00000  Uiso   1.00
O130   O     0.87467   0.30248   0.44872   0.00000  Uiso   1.00
O131   O     0.98041   0.17331   0.94936   0.00000  Uiso   1.00
O132   O     0.24049   0.56719   0.04005   0.00000  Uiso   1.00
N133   N     0.76140   0.27615   0.57020   0.00000  Uiso   1.00
N134   N     0.83679   0.18410   0.92695   0.00000  Uiso   1.00
N135   N     0.30951   0.46477   0.99159   0.00000  Uiso   1.00
N136   N     0.88661   0.35481   0.53645   0.00000  Uiso   1.00
N137   N     0.96199   0.26276   0.89320   0.00000  Uiso   1.00
N138   N     0.43472   0.54344   0.95784   0.00000  Uiso   1.00
C139   C     0.12486   0.80143   0.83253   0.00000  Uiso   1.00
C140   C     0.19308   0.81370   0.75198   0.00000  Uiso   1.00
C141   C     0.18070   0.78018   0.70306   0.00000  Uiso   1.00
C142   C     0.25122   0.79871   0.63173   0.00000  Uiso   1.00
C143   C     0.34501   0.81009   0.50994   0.00000  Uiso   1.00
C144   C     0.21387   0.78832   0.85030   0.00000  Uiso   1.00
C145   C     0.21896   0.73347   0.88404   0.00000  Uiso   1.00
C146   C     0.30697   0.73065   0.89548   0.00000  Uiso   1.00
C147   C     0.43299   0.70265   0.92637   0.00000  Uiso   1.00
C148   C     0.06855   0.86567   0.86810   0.00000  Uiso   1.00
C149   C     0.95146   0.87587   0.91684   0.00000  Uiso   1.00
C150   C     0.91713   0.93817   0.94328   0.00000  Uiso   1.00
C151   C     0.81752   0.03027   0.00181   0.00000  Uiso   1.00
C152   C     0.27210   0.89394   0.79284   0.00000  Uiso   1.00
C153   C     0.27305   0.86394   0.73043   0.00000  Uiso   1.00
C154   C     0.34360   0.88253   0.65915   0.00000  Uiso   1.00
C155   C     0.33133   0.84905   0.61013   0.00000  Uiso   1.00
C156   C     0.29384   0.83856   0.82874   0.00000  Uiso   1.00
C157   C     0.38186   0.83582   0.84013   0.00000  Uiso   1.00
C158   C     0.38709   0.78098   0.87388   0.00000  Uiso   1.00
C159   C     0.14852   0.91592   0.84655   0.00000  Uiso   1.00
C160   C     0.11436   0.97821   0.87292   0.00000  Uiso   1.00
C161   C     0.99724   0.98850   0.92168   0.00000  Uiso   1.00
H162   H     0.06260   0.76231   0.84931   0.00000  Uiso   1.00
H163   H     0.11881   0.74130   0.71977   0.00000  Uiso   1.00
H164   H     0.15705   0.69460   0.90073   0.00000  Uiso   1.00
H165   H     0.88960   0.83697   0.93351   0.00000  Uiso   1.00
H166   H     0.21642   0.74014   0.56663   0.00000  Uiso   1.00
H167   H     0.29703   0.64169   0.94821   0.00000  Uiso   1.00
H168   H     0.73305   0.94191   0.01734   0.00000  Uiso   1.00
H169   H     0.33437   0.93306   0.77606   0.00000  Uiso   1.00
H170   H     0.40548   0.92141   0.64249   0.00000  Uiso   1.00
H171   H     0.44373   0.87471   0.82345   0.00000  Uiso   1.00
H172   H     0.17627   0.01708   0.85623   0.00000  Uiso   1.00
H173   H     0.44910   0.88633   0.50390   0.00000  Uiso   1.00
H174   H     0.52971   0.78787   0.88549   0.00000  Uiso   1.00
H175   H     0.96573   0.08809   0.95462   0.00000  Uiso   1.00
O176   O     0.37467   0.80248   0.44872   0.00000  Uiso   1.00
O177   O     0.48041   0.67331   0.94936   0.00000  Uiso   1.00
O178   O     0.74049   0.06719   0.04005   0.00000  Uiso   1.00
N179   N     0.26140   0.77615   0.57020   0.00000  Uiso   1.00
N180   N     0.33679   0.68410   0.92695   0.00000  Uiso   1.00
N181   N     0.80951   0.96477   0.99159   0.00000  Uiso   1.00
N182   N     0.38661   0.85481   0.53645   0.00000  Uiso   1.00
N183   N     0.46199   0.76276   0.89320   0.00000  Uiso   1.00
N184   N     0.93472   0.04344   0.95784   0.00000  Uiso   1.00
C185   C     0.62486   0.69857   0.33253   0.00000  Uiso   1.00
C186   C     0.69308   0.68630   0.25198   0.00000  Uiso   1.00
C187   C     0.68070   0.71982   0.20306   0.00000  Uiso   1.00
C188   C     0.75122   0.70129   0.13173   0.00000  Uiso   1.00
C189   C     0.84501   0.68991   0.00994   0.00000  Uiso   1.00
C190   C     0.71387   0.71168   0.35030   0.00000  Uiso   1.00
C191   C     0.71896   0.76653   0.38404   0.00000  Uiso   1.00
C192   C     0.80697   0.76935   0.39548   0.00000  Uiso   1.00
C193   C     0.93299   0.79735   0.42637   0.00000  Uiso   1.00
C194   C     0.56855   0.63433   0.36810   0.00000  Uiso   1.00
C195   C     0.45146   0.62413   0.41684   0.00000  Uiso   1.00
C196   C     0.41713   0.56183   0.44328   0.00000  Uiso   1.00
C197   C     0.31752   0.46973   0.50181   0.00000  Uiso   1.00
C198   C     0.77210   0.60606   0.29284   0.00000  Uiso   1.00
C199   C     0.77305   0.63606   0.23043   0.00000  Uiso   1.00
C200   C     0.84360   0.61747   0.15915   0.00000  Uiso   1.00
C201   C     0.83133   0.65095   0.11013   0.00000  Uiso   1.00
C202   C     0.79384   0.66144   0.32874   0.00000  Uiso   1.00
C203   C     0.88186   0.66418   0.34013   0.00000  Uiso   1.00
C204   C     0.88709   0.71902   0.37388   0.00000  Uiso   1.00
C205   C     0.64852   0.58408   0.34655   0.00000  Uiso   1.00
C206   C     0.61436   0.52179   0.37292   0.00000  Uiso   1.00
C207   C     0.49724   0.51150   0.42168   0.00000  Uiso   1.00
H208   H     0.56260   0.73769   0.34931   0.00000  Uiso   1.00
H209   H     0.61881   0.75870   0.21977   0.00000  Uiso   1.00
H210   H     0.65705   0.80540   0.40073   0.00000  Uiso   1.00
H211   H     0.38960   0.66303   0.43351   0.00000  Uiso   1.00
H212   H     0.71642   0.75986   0.06663   0.00000  Uiso   1.00
H213   H     0.79703   0.85831   0.44821   0.00000  Uiso   1.00
H214   H     0.23305   0.55809   0.51734   0.00000  Uiso   1.00
H215   H     0.83437   0.56694   0.27606   0.00000  Uiso   1.00
H216   H     0.90548   0.57859   0.14249   0.00000  Uiso   1.00
H217   H     0.94373   0.62529   0.32345   0.00000  Uiso   1.00
H218   H     0.67627   0.48292   0.35623   0.00000  Uiso   1.00
H219   H     0.94910   0.61367   0.00390   0.00000  Uiso   1.00
H220   H     0.02971   0.71213   0.38549   0.00000  Uiso   1.00
H221   H     0.46573   0.41191   0.45462   0.00000  Uiso   1.00
O222   O     0.87467   0.69752   0.94872   0.00000  Uiso   1.00
O223   O     0.98041   0.82669   0.44936   0.00000  Uiso   1.00
O224   O     0.24049   0.43281   0.54005   0.00000  Uiso   1.00
N225   N     0.76140   0.72385   0.07020   0.00000  Uiso   1.00
N226   N     0.83679   0.81590   0.42695   0.00000  Uiso   1.00
N227   N     0.30951   0.53523   0.49159   0.00000  Uiso   1.00
N228   N     0.88661   0.64519   0.03645   0.00000  Uiso   1.00
N229   N     0.96199   0.73724   0.39320   0.00000  Uiso   1.00
N230   N     0.43472   0.45656   0.45784   0.00000  Uiso   1.00
C231   C     0.12486   0.19857   0.33253   0.00000  Uiso   1.00
C232   C     0.19308   0.18630   0.25198   0.00000  Uiso   1.00
C233   C     0.18070   0.21982   0.20306   0.00000  Uiso   1.00
C234   C     0.25122   0.20129   0.13173   0.00000  Uiso   1.00
C235   C     0.34501   0.18991   0.00994   0.00000  Uiso   1.00
C236   C     0.21387   0.21168   0.35030   0.00000  Uiso   1.00
C237   C     0.21896   0.26653   0.38404   0.00000  Uiso   1.00
C238   C     0.30697   0.26935   0.39548   0.00000  Uiso   1.00
C239   C     0.43299   0.29735   0.42637   0.00000  Uiso   1.00
C240   C     0.06855   0.13433   0.36810   0.00000  Uiso   1.00
C241   C     0.95146   0.12413   0.41684   0.00000  Uiso   1.00
C242   C     0.91713   0.06183   0.44328   0.00000  Uiso   1.00
C243   C     0.81752   0.96973   0.50181   0.00000  Uiso   1.00
C244   C     0.27210   0.10606   0.29284   0.00000  Uiso   1.00
C245   C     0.27305   0.13606   0.23043   0.00000  Uiso   1.00
C246   C     0.34360   0.11747   0.15915   0.00000  Uiso   1.00
C247   C     0.33133   0.15095   0.11013   0.00000  Uiso   1.00
C248   C     0.29384   0.16144   0.32874   0.00000  Uiso   1.00
C249   C     0.38186   0.16418   0.34013   0.00000  Uiso   1.00
C250   C     0.38709   0.21902   0.37388   0.00000  Uiso   1.00
C251   C     0.14852   0.08408   0.34655   0.00000  Uiso   1.00
C252   C     0.11436   0.02179   0.37292   0.00000  Uiso   1.00
C253   C     0.99724   0.01150   0.42168   0.00000  Uiso   1.00
H254   H     0.06260   0.23769   0.34931   0.00000  Uiso   1.00
H255   H     0.11881   0.25870   0.21977   0.00000  Uiso   1.00
H256   H     0.15705   0.30540   0.40073   0.00000  Uiso   1.00
H257   H     0.88960   0.16303   0.43351   0.00000  Uiso   1.00
H258   H     0.21642   0.25986   0.06663   0.00000  Uiso   1.00
H259   H     0.29703   0.35831   0.44821   0.00000  Uiso   1.00
H260   H     0.73305   0.05809   0.51734   0.00000  Uiso   1.00
H261   H     0.33437   0.06694   0.27606   0.00000  Uiso   1.00
H262   H     0.40548   0.07859   0.14249   0.00000  Uiso   1.00
H263   H     0.44373   0.12529   0.32345   0.00000  Uiso   1.00
H264   H     0.17627   0.98292   0.35623   0.00000  Uiso   1.00
H265   H     0.44910   0.11367   0.00390   0.00000  Uiso   1.00
H266   H     0.52971   0.21213   0.38549   0.00000  Uiso   1.00
H267   H     0.96573   0.91191   0.45462   0.00000  Uiso   1.00
O268   O     0.37467   0.19752   0.94872   0.00000  Uiso   1.00
O269   O     0.48041   0.32669   0.44936   0.00000  Uiso   1.00
O270   O     0.74049   0.93281   0.54005   0.00000  Uiso   1.00
N271   N     0.26140   0.22385   0.07020   0.00000  Uiso   1.00
N272   N     0.33679   0.31590   0.42695   0.00000  Uiso   1.00
N273   N     0.80951   0.03523   0.49159   0.00000  Uiso   1.00
N274   N     0.38661   0.14519   0.03645   0.00000  Uiso   1.00
N275   N     0.46199   0.23724   0.39320   0.00000  Uiso   1.00
N276   N     0.93472   0.95656   0.45784   0.00000  Uiso   1.00
C277   C     0.37514   0.69857   0.16747   0.00000  Uiso   1.00
C278   C     0.30692   0.68630   0.24802   0.00000  Uiso   1.00
C279   C     0.31930   0.71982   0.29694   0.00000  Uiso   1.00
C280   C     0.24878   0.70129   0.36827   0.00000  Uiso   1.00
C281   C     0.15499   0.68991   0.49006   0.00000  Uiso   1.00
C282   C     0.28613   0.71168   0.14970   0.00000  Uiso   1.00
C283   C     0.28104   0.76653   0.11596   0.00000  Uiso   1.00
C284   C     0.19303   0.76935   0.10452   0.00000  Uiso   1.00
C285   C     0.06701   0.79735   0.07363   0.00000  Uiso   1.00
C286   C     0.43145   0.63433   0.13190   0.00000  Uiso   1.00
C287   C     0.54854   0.62413   0.08316   0.00000  Uiso   1.00
C288   C     0.58287   0.56183   0.05672   0.00000  Uiso   1.00
C289   C     0.68248   0.46973   0.99819   0.00000  Uiso   1.00
C290   C     0.22790   0.60606   0.20716   0.00000  Uiso   1.00
C291   C     0.22695   0.63606   0.26957   0.00000  Uiso   1.00
C292   C     0.15640   0.61747   0.34085   0.00000  Uiso   1.00
C293   C     0.16867   0.65095   0.38987   0.00000  Uiso   1.00
C294   C     0.20616   0.66144   0.17126   0.00000  Uiso   1.00
C295   C     0.11814   0.66418   0.15987   0.00000  Uiso   1.00
C296   C     0.11291   0.71902   0.12612   0.00000  Uiso   1.00
C297   C     0.35148   0.58408   0.15345   0.00000  Uiso   1.00
C298   C     0.38564   0.52179   0.12708   0.00000  Uiso   1.00
C299   C     0.50276   0.51150   0.07832   0.00000  Uiso   1.00
H300   H     0.43740   0.73769   0.15069   0.00000  Uiso   1.00
H301   H     0.38119   0.75870   0.28023   0.00000  Uiso   1.00
H302   H     0.34295   0.80540   0.09927   0.00000  Uiso   1.00
H303   H     0.61040   0.66303   0.06649   0.00000  Uiso   1.00
H304   H     0.28358   0.75986   0.43337   0.00000  Uiso   1.00
H305   H     0.20297   0.85831   0.05179   0.00000  Uiso   1.00
H306   H     0.76695   0.55809   0.98266   0.00000  Uiso   1.00
H307   H     0.16563   0.56694   0.22394   0.00000  Uiso   1.00
H308   H     0.09452   0.57859   0.35751   0.00000  Uiso   1.00
H309   H     0.05627   0.62529   0.17655   0.00000  Uiso   1.00
H310   H     0.32373   0.48292   0.14377   0.00000  Uiso   1.00
H311   H     0.05090   0.61367   0.49610   0.00000  Uiso   1.00
H312   H     0.97029   0.71213   0.11451   0.00000  Uiso   1.00
H313   H     0.53427   0.41191   0.04538   0.00000  Uiso   1.00
O314   O     0.12533   0.69752   0.55128   0.00000  Uiso   1.00
O315   O     0.01959   0.82669   0.05064   0.00000  Uiso   1.00
O316   O     0.75951   0.43281   0.95995   0.00000  Uiso   1.00
N317   N     0.23860   0.72385   0.42980   0.00000  Uiso   1.00
N318   N     0.16321   0.81590   0.07305   0.00000  Uiso   1.00
N319   N     0.69049   0.53523   0.00841   0.00000  Uiso   1.00
N320   N     0.11339   0.64519   0.46355   0.00000  Uiso   1.00
N321   N     0.03801   0.73724   0.10680   0.00000  Uiso   1.00
N322   N     0.56528   0.45656   0.04216   0.00000  Uiso   1.00
C323   C     0.87514   0.19857   0.16747   0.00000  Uiso   1.00
C324   C     0.80692   0.18630   0.24802   0.00000  Uiso   1.00
C325   C     0.81930   0.21982   0.29694   0.00000  Uiso   1.00
C326   C     0.74878   0.20129   0.36827   0.00000  Uiso   1.00
C327   C     0.65499   0.18991   0.49006   0.00000  Uiso   1.00
C328   C     0.78613   0.21168   0.14970   0.00000  Uiso   1.00
C329   C     0.78104   0.26653   0.11596   0.00000  Uiso   1.00
C330   C     0.69303   0.26935   0.10452   0.00000  Uiso   1.00
C331   C     0.56701   0.29735   0.07363   0.00000  Uiso   1.00
C332   C     0.93145   0.13433   0.13190   0.00000  Uiso   1.00
C333   C     0.04854   0.12413   0.08316   0.00000  Uiso   1.00
C334   C     0.08287   0.06183   0.05672   0.00000  Uiso   1.00
C335   C     0.18248   0.96973   0.99819   0.00000  Uiso   1.00
C336   C     0.72790   0.10606   0.20716   0.00000  Uiso   1.00
C337   C     0.72695   0.13606   0.26957   0.00000  Uiso   1.00
C338   C     0.65640   0.11747   0.34085   0.00000  Uiso   1.00
C339   C     0.66867   0.15095   0.38987   0.00000  Uiso   1.00
C340   C     0.70616   0.16144   0.17126   0.00000  Uiso   1.00
C341   C     0.61814   0.16418   0.15987   0.00000  Uiso   1.00
C342   C     0.61291   0.21902   0.12612   0.00000  Uiso   1.00
C343   C     0.85148   0.08408   0.15345   0.00000  Uiso   1.00
C344   C     0.88564   0.02179   0.12708   0.00000  Uiso   1.00
C345   C     0.00276   0.01150   0.07832   0.00000  Uiso   1.00
H346   H     0.93740   0.23769   0.15069   0.00000  Uiso   1.00
H347   H     0.88119   0.25870   0.28023   0.00000  Uiso   1.00
H348   H     0.84295   0.30540   0.09927   0.00000  Uiso   1.00
H349   H     0.11040   0.16303   0.06649   0.00000  Uiso   1.00
H350   H     0.78358   0.25986   0.43337   0.00000  Uiso   1.00
H351   H     0.70297   0.35831   0.05179   0.00000  Uiso   1.00
H352   H     0.26695   0.05809   0.98266   0.00000  Uiso   1.00
H353   H     0.66563   0.06694   0.22394   0.00000  Uiso   1.00
H354   H     0.59452   0.07859   0.35751   0.00000  Uiso   1.00
H355   H     0.55627   0.12529   0.17655   0.00000  Uiso   1.00
H356   H     0.82373   0.98292   0.14377   0.00000  Uiso   1.00
H357   H     0.55090   0.11367   0.49610   0.00000  Uiso   1.00
H358   H     0.47029   0.21213   0.11451   0.00000  Uiso   1.00
H359   H     0.03427   0.91191   0.04538   0.00000  Uiso   1.00
O360   O     0.62533   0.19752   0.55128   0.00000  Uiso   1.00
O361   O     0.51959   0.32669   0.05064   0.00000  Uiso   1.00
O362   O     0.25951   0.93281   0.95995   0.00000  Uiso   1.00
N363   N     0.73860   0.22385   0.42980   0.00000  Uiso   1.00
N364   N     0.66321   0.31590   0.07305   0.00000  Uiso   1.00
N365   N     0.19049   0.03523   0.00841   0.00000  Uiso   1.00
N366   N     0.61339   0.14519   0.46355   0.00000  Uiso   1.00
N367   N     0.53801   0.23724   0.10680   0.00000  Uiso   1.00
N368   N     0.06528   0.95656   0.04216   0.00000  Uiso   1.00
