data_job_00319
_audit_creation_date              2018-12-19
_audit_creation_method            'Materials Studio'
_symmetry_space_group_name_H-M    'P1'
_symmetry_Int_Tables_number       1
_symmetry_cell_setting            triclinic
loop_
_symmetry_equiv_pos_as_xyz
  x,y,z
_cell_length_a                    16.6495
_cell_length_b                    14.5420
_cell_length_c                    28.3402
_cell_angle_alpha                 90.0000
_cell_angle_beta                  137.3778
_cell_angle_gamma                 90.0000
loop_
_atom_site_label
_atom_site_type_symbol
_atom_site_fract_x
_atom_site_fract_y
_atom_site_fract_z
_atom_site_U_iso_or_equiv
_atom_site_adp_type
_atom_site_occupancy
C1     C     0.72858   0.28084   0.72762   0.00000  Uiso   1.00
C2     C     0.70957   0.31743   0.66954   0.00000  Uiso   1.00
C3     C     0.74045   0.27249   0.64148   0.00000  Uiso   1.00
C4     C     0.71568   0.31750   0.58870   0.00000  Uiso   1.00
C5     C     0.69438   0.36113   0.50217   0.00000  Uiso   1.00
C6     C     0.80156   0.35356   0.78485   0.00000  Uiso   1.00
C7     C     0.90978   0.33900   0.85374   0.00000  Uiso   1.00
C8     C     0.96244   0.41442   0.89804   0.00000  Uiso   1.00
C9     C     0.08392   0.51413   0.99054   0.00000  Uiso   1.00
C10    C     0.60684   0.28107   0.69843   0.00000  Uiso   1.00
C11    C     0.55135   0.20555   0.69467   0.00000  Uiso   1.00
C12    C     0.44007   0.21994   0.66621   0.00000  Uiso   1.00
C13    C     0.25922   0.20709   0.62453   0.00000  Uiso   1.00
C14    C     0.62966   0.44068   0.68379   0.00000  Uiso   1.00
C15    C     0.65584   0.40425   0.64574   0.00000  Uiso   1.00
C16    C     0.63100   0.44934   0.59299   0.00000  Uiso   1.00
C17    C     0.66184   0.40447   0.56485   0.00000  Uiso   1.00
C18    C     0.74783   0.44038   0.76105   0.00000  Uiso   1.00
C19    C     0.80034   0.51584   0.80526   0.00000  Uiso   1.00
C20    C     0.90861   0.50140   0.87419   0.00000  Uiso   1.00
C21    C     0.55311   0.36788   0.67462   0.00000  Uiso   1.00
C22    C     0.44190   0.38239   0.64618   0.00000  Uiso   1.00
C23    C     0.38625   0.30691   0.64237   0.00000  Uiso   1.00
H24    H     0.77042   0.21325   0.74615   0.00000  Uiso   1.00
H25    H     0.78204   0.20531   0.65992   0.00000  Uiso   1.00
H26    H     0.95134   0.27180   0.87215   0.00000  Uiso   1.00
H27    H     0.59296   0.13838   0.71309   0.00000  Uiso   1.00
H28    H     0.77127   0.23480   0.55383   0.00000  Uiso   1.00
H29    H     0.12822   0.37500   0.00134   0.00000  Uiso   1.00
H30    H     0.37251   0.09365   0.66594   0.00000  Uiso   1.00
H31    H     0.58783   0.50828   0.66526   0.00000  Uiso   1.00
H32    H     0.58942   0.51652   0.57458   0.00000  Uiso   1.00
H33    H     0.75873   0.58301   0.78682   0.00000  Uiso   1.00
H34    H     0.40035   0.44959   0.62776   0.00000  Uiso   1.00
H35    H     0.61494   0.48740   0.48457   0.00000  Uiso   1.00
H36    H     0.97189   0.62760   0.93208   0.00000  Uiso   1.00
H37    H     0.21618   0.34624   0.59668   0.00000  Uiso   1.00
O38    O     0.69749   0.36121   0.46102   0.00000  Uiso   1.00
O39    O     0.16578   0.54514   0.04814   0.00000  Uiso   1.00
O40    O     0.17430   0.17601   0.60811   0.00000  Uiso   1.00
N41    N     0.73424   0.29311   0.54996   0.00000  Uiso   1.00
N42    N     0.06798   0.42419   0.96836   0.00000  Uiso   1.00
N43    N     0.36146   0.16115   0.65481   0.00000  Uiso   1.00
N44    N     0.65012   0.42903   0.51269   0.00000  Uiso   1.00
N45    N     0.98385   0.56011   0.93109   0.00000  Uiso   1.00
N46    N     0.27734   0.29707   0.61754   0.00000  Uiso   1.00
C47    C     0.22858   0.78084   0.72762   0.00000  Uiso   1.00
C48    C     0.20957   0.81743   0.66954   0.00000  Uiso   1.00
C49    C     0.24045   0.77249   0.64148   0.00000  Uiso   1.00
C50    C     0.21568   0.81750   0.58870   0.00000  Uiso   1.00
C51    C     0.19438   0.86113   0.50217   0.00000  Uiso   1.00
C52    C     0.30156   0.85356   0.78485   0.00000  Uiso   1.00
C53    C     0.40978   0.83900   0.85374   0.00000  Uiso   1.00
C54    C     0.46244   0.91442   0.89804   0.00000  Uiso   1.00
C55    C     0.58392   0.01413   0.99054   0.00000  Uiso   1.00
C56    C     0.10684   0.78107   0.69843   0.00000  Uiso   1.00
C57    C     0.05135   0.70555   0.69467   0.00000  Uiso   1.00
C58    C     0.94007   0.71994   0.66621   0.00000  Uiso   1.00
C59    C     0.75922   0.70709   0.62453   0.00000  Uiso   1.00
C60    C     0.12966   0.94068   0.68379   0.00000  Uiso   1.00
C61    C     0.15584   0.90425   0.64574   0.00000  Uiso   1.00
C62    C     0.13100   0.94934   0.59299   0.00000  Uiso   1.00
C63    C     0.16184   0.90447   0.56485   0.00000  Uiso   1.00
C64    C     0.24783   0.94038   0.76105   0.00000  Uiso   1.00
C65    C     0.30034   0.01584   0.80526   0.00000  Uiso   1.00
C66    C     0.40861   0.00140   0.87419   0.00000  Uiso   1.00
C67    C     0.05311   0.86788   0.67462   0.00000  Uiso   1.00
C68    C     0.94190   0.88239   0.64618   0.00000  Uiso   1.00
C69    C     0.88625   0.80691   0.64237   0.00000  Uiso   1.00
H70    H     0.27042   0.71325   0.74615   0.00000  Uiso   1.00
H71    H     0.28204   0.70531   0.65992   0.00000  Uiso   1.00
H72    H     0.45134   0.77180   0.87215   0.00000  Uiso   1.00
H73    H     0.09296   0.63838   0.71309   0.00000  Uiso   1.00
H74    H     0.27127   0.73480   0.55383   0.00000  Uiso   1.00
H75    H     0.62822   0.87500   0.00134   0.00000  Uiso   1.00
H76    H     0.87251   0.59365   0.66594   0.00000  Uiso   1.00
H77    H     0.08783   0.00828   0.66526   0.00000  Uiso   1.00
H78    H     0.08942   0.01652   0.57458   0.00000  Uiso   1.00
H79    H     0.25873   0.08301   0.78682   0.00000  Uiso   1.00
H80    H     0.90035   0.94959   0.62776   0.00000  Uiso   1.00
H81    H     0.11494   0.98740   0.48457   0.00000  Uiso   1.00
H82    H     0.47189   0.12760   0.93208   0.00000  Uiso   1.00
H83    H     0.71618   0.84624   0.59668   0.00000  Uiso   1.00
O84    O     0.19749   0.86121   0.46102   0.00000  Uiso   1.00
O85    O     0.66578   0.04514   0.04814   0.00000  Uiso   1.00
O86    O     0.67430   0.67601   0.60811   0.00000  Uiso   1.00
N87    N     0.23424   0.79311   0.54996   0.00000  Uiso   1.00
N88    N     0.56798   0.92419   0.96836   0.00000  Uiso   1.00
N89    N     0.86146   0.66115   0.65481   0.00000  Uiso   1.00
N90    N     0.15012   0.92903   0.51269   0.00000  Uiso   1.00
N91    N     0.48385   0.06011   0.93109   0.00000  Uiso   1.00
N92    N     0.77734   0.79707   0.61754   0.00000  Uiso   1.00
C93    C     0.27142   0.28084   0.77238   0.00000  Uiso   1.00
C94    C     0.29043   0.31743   0.83046   0.00000  Uiso   1.00
C95    C     0.25955   0.27249   0.85852   0.00000  Uiso   1.00
C96    C     0.28432   0.31750   0.91130   0.00000  Uiso   1.00
C97    C     0.30562   0.36113   0.99783   0.00000  Uiso   1.00
C98    C     0.19844   0.35356   0.71515   0.00000  Uiso   1.00
C99    C     0.09022   0.33900   0.64626   0.00000  Uiso   1.00
C100   C     0.03756   0.41442   0.60196   0.00000  Uiso   1.00
C101   C     0.91608   0.51413   0.50946   0.00000  Uiso   1.00
C102   C     0.39316   0.28107   0.80157   0.00000  Uiso   1.00
C103   C     0.44865   0.20555   0.80533   0.00000  Uiso   1.00
C104   C     0.55993   0.21994   0.83379   0.00000  Uiso   1.00
C105   C     0.74078   0.20709   0.87547   0.00000  Uiso   1.00
C106   C     0.37034   0.44068   0.81621   0.00000  Uiso   1.00
C107   C     0.34416   0.40425   0.85426   0.00000  Uiso   1.00
C108   C     0.36900   0.44934   0.90701   0.00000  Uiso   1.00
C109   C     0.33816   0.40447   0.93515   0.00000  Uiso   1.00
C110   C     0.25217   0.44038   0.73895   0.00000  Uiso   1.00
C111   C     0.19966   0.51584   0.69474   0.00000  Uiso   1.00
C112   C     0.09139   0.50140   0.62581   0.00000  Uiso   1.00
C113   C     0.44689   0.36788   0.82538   0.00000  Uiso   1.00
C114   C     0.55810   0.38239   0.85382   0.00000  Uiso   1.00
C115   C     0.61375   0.30691   0.85763   0.00000  Uiso   1.00
H116   H     0.22958   0.21325   0.75385   0.00000  Uiso   1.00
H117   H     0.21796   0.20531   0.84008   0.00000  Uiso   1.00
H118   H     0.04866   0.27180   0.62785   0.00000  Uiso   1.00
H119   H     0.40704   0.13838   0.78691   0.00000  Uiso   1.00
H120   H     0.22873   0.23480   0.94617   0.00000  Uiso   1.00
H121   H     0.87178   0.37500   0.49866   0.00000  Uiso   1.00
H122   H     0.62749   0.09365   0.83406   0.00000  Uiso   1.00
H123   H     0.41217   0.50828   0.83474   0.00000  Uiso   1.00
H124   H     0.41058   0.51652   0.92542   0.00000  Uiso   1.00
H125   H     0.24127   0.58301   0.71318   0.00000  Uiso   1.00
H126   H     0.59965   0.44959   0.87224   0.00000  Uiso   1.00
H127   H     0.38506   0.48740   0.01543   0.00000  Uiso   1.00
H128   H     0.02811   0.62760   0.56792   0.00000  Uiso   1.00
H129   H     0.78382   0.34624   0.90332   0.00000  Uiso   1.00
O130   O     0.30251   0.36121   0.03898   0.00000  Uiso   1.00
O131   O     0.83422   0.54514   0.45186   0.00000  Uiso   1.00
O132   O     0.82570   0.17601   0.89189   0.00000  Uiso   1.00
N133   N     0.26576   0.29311   0.95004   0.00000  Uiso   1.00
N134   N     0.93202   0.42419   0.53164   0.00000  Uiso   1.00
N135   N     0.63854   0.16115   0.84519   0.00000  Uiso   1.00
N136   N     0.34988   0.42903   0.98731   0.00000  Uiso   1.00
N137   N     0.01615   0.56011   0.56891   0.00000  Uiso   1.00
N138   N     0.72266   0.29707   0.88246   0.00000  Uiso   1.00
C139   C     0.77142   0.78084   0.77238   0.00000  Uiso   1.00
C140   C     0.79043   0.81743   0.83046   0.00000  Uiso   1.00
C141   C     0.75955   0.77249   0.85852   0.00000  Uiso   1.00
C142   C     0.78432   0.81750   0.91130   0.00000  Uiso   1.00
C143   C     0.80562   0.86113   0.99783   0.00000  Uiso   1.00
C144   C     0.69844   0.85356   0.71515   0.00000  Uiso   1.00
C145   C     0.59022   0.83900   0.64626   0.00000  Uiso   1.00
C146   C     0.53756   0.91442   0.60196   0.00000  Uiso   1.00
C147   C     0.41608   0.01413   0.50946   0.00000  Uiso   1.00
C148   C     0.89316   0.78107   0.80157   0.00000  Uiso   1.00
C149   C     0.94865   0.70555   0.80533   0.00000  Uiso   1.00
C150   C     0.05993   0.71994   0.83379   0.00000  Uiso   1.00
C151   C     0.24078   0.70709   0.87547   0.00000  Uiso   1.00
C152   C     0.87034   0.94068   0.81621   0.00000  Uiso   1.00
C153   C     0.84416   0.90425   0.85426   0.00000  Uiso   1.00
C154   C     0.86900   0.94934   0.90701   0.00000  Uiso   1.00
C155   C     0.83816   0.90447   0.93515   0.00000  Uiso   1.00
C156   C     0.75217   0.94038   0.73895   0.00000  Uiso   1.00
C157   C     0.69966   0.01584   0.69474   0.00000  Uiso   1.00
C158   C     0.59139   0.00140   0.62581   0.00000  Uiso   1.00
C159   C     0.94689   0.86788   0.82538   0.00000  Uiso   1.00
C160   C     0.05810   0.88239   0.85382   0.00000  Uiso   1.00
C161   C     0.11375   0.80691   0.85763   0.00000  Uiso   1.00
H162   H     0.72958   0.71325   0.75385   0.00000  Uiso   1.00
H163   H     0.71796   0.70531   0.84008   0.00000  Uiso   1.00
H164   H     0.54866   0.77180   0.62785   0.00000  Uiso   1.00
H165   H     0.90704   0.63838   0.78691   0.00000  Uiso   1.00
H166   H     0.72873   0.73480   0.94617   0.00000  Uiso   1.00
H167   H     0.37178   0.87500   0.49866   0.00000  Uiso   1.00
H168   H     0.12749   0.59365   0.83406   0.00000  Uiso   1.00
H169   H     0.91217   0.00828   0.83474   0.00000  Uiso   1.00
H170   H     0.91058   0.01652   0.92542   0.00000  Uiso   1.00
H171   H     0.74127   0.08301   0.71318   0.00000  Uiso   1.00
H172   H     0.09965   0.94959   0.87224   0.00000  Uiso   1.00
H173   H     0.88506   0.98740   0.01543   0.00000  Uiso   1.00
H174   H     0.52811   0.12760   0.56792   0.00000  Uiso   1.00
H175   H     0.28382   0.84624   0.90332   0.00000  Uiso   1.00
O176   O     0.80251   0.86121   0.03898   0.00000  Uiso   1.00
O177   O     0.33422   0.04514   0.45186   0.00000  Uiso   1.00
O178   O     0.32570   0.67601   0.89189   0.00000  Uiso   1.00
N179   N     0.76576   0.79311   0.95004   0.00000  Uiso   1.00
N180   N     0.43202   0.92419   0.53164   0.00000  Uiso   1.00
N181   N     0.13854   0.66115   0.84519   0.00000  Uiso   1.00
N182   N     0.84988   0.92903   0.98731   0.00000  Uiso   1.00
N183   N     0.51615   0.06011   0.56891   0.00000  Uiso   1.00
N184   N     0.22266   0.79707   0.88246   0.00000  Uiso   1.00
C185   C     0.27142   0.71916   0.27238   0.00000  Uiso   1.00
C186   C     0.29043   0.68257   0.33046   0.00000  Uiso   1.00
C187   C     0.25955   0.72751   0.35852   0.00000  Uiso   1.00
C188   C     0.28432   0.68250   0.41130   0.00000  Uiso   1.00
C189   C     0.30562   0.63887   0.49783   0.00000  Uiso   1.00
C190   C     0.19844   0.64644   0.21515   0.00000  Uiso   1.00
C191   C     0.09022   0.66100   0.14626   0.00000  Uiso   1.00
C192   C     0.03756   0.58558   0.10196   0.00000  Uiso   1.00
C193   C     0.91608   0.48587   0.00946   0.00000  Uiso   1.00
C194   C     0.39316   0.71893   0.30157   0.00000  Uiso   1.00
C195   C     0.44865   0.79445   0.30533   0.00000  Uiso   1.00
C196   C     0.55993   0.78006   0.33379   0.00000  Uiso   1.00
C197   C     0.74078   0.79291   0.37547   0.00000  Uiso   1.00
C198   C     0.37034   0.55932   0.31621   0.00000  Uiso   1.00
C199   C     0.34416   0.59575   0.35426   0.00000  Uiso   1.00
C200   C     0.36900   0.55066   0.40701   0.00000  Uiso   1.00
C201   C     0.33816   0.59553   0.43515   0.00000  Uiso   1.00
C202   C     0.25217   0.55962   0.23895   0.00000  Uiso   1.00
C203   C     0.19966   0.48416   0.19474   0.00000  Uiso   1.00
C204   C     0.09139   0.49860   0.12581   0.00000  Uiso   1.00
C205   C     0.44689   0.63212   0.32538   0.00000  Uiso   1.00
C206   C     0.55810   0.61761   0.35382   0.00000  Uiso   1.00
C207   C     0.61375   0.69309   0.35763   0.00000  Uiso   1.00
H208   H     0.22958   0.78675   0.25385   0.00000  Uiso   1.00
H209   H     0.21796   0.79469   0.34008   0.00000  Uiso   1.00
H210   H     0.04866   0.72820   0.12785   0.00000  Uiso   1.00
H211   H     0.40704   0.86162   0.28691   0.00000  Uiso   1.00
H212   H     0.22873   0.76520   0.44617   0.00000  Uiso   1.00
H213   H     0.87178   0.62500   0.99866   0.00000  Uiso   1.00
H214   H     0.62749   0.90635   0.33406   0.00000  Uiso   1.00
H215   H     0.41217   0.49172   0.33474   0.00000  Uiso   1.00
H216   H     0.41058   0.48348   0.42542   0.00000  Uiso   1.00
H217   H     0.24127   0.41699   0.21318   0.00000  Uiso   1.00
H218   H     0.59965   0.55041   0.37224   0.00000  Uiso   1.00
H219   H     0.38506   0.51260   0.51543   0.00000  Uiso   1.00
H220   H     0.02811   0.37240   0.06792   0.00000  Uiso   1.00
H221   H     0.78382   0.65376   0.40332   0.00000  Uiso   1.00
O222   O     0.30251   0.63879   0.53898   0.00000  Uiso   1.00
O223   O     0.83422   0.45486   0.95186   0.00000  Uiso   1.00
O224   O     0.82570   0.82399   0.39189   0.00000  Uiso   1.00
N225   N     0.26576   0.70689   0.45004   0.00000  Uiso   1.00
N226   N     0.93202   0.57581   0.03164   0.00000  Uiso   1.00
N227   N     0.63854   0.83885   0.34519   0.00000  Uiso   1.00
N228   N     0.34988   0.57097   0.48731   0.00000  Uiso   1.00
N229   N     0.01615   0.43989   0.06891   0.00000  Uiso   1.00
N230   N     0.72266   0.70293   0.38246   0.00000  Uiso   1.00
C231   C     0.77142   0.21916   0.27238   0.00000  Uiso   1.00
C232   C     0.79043   0.18257   0.33046   0.00000  Uiso   1.00
C233   C     0.75955   0.22751   0.35852   0.00000  Uiso   1.00
C234   C     0.78432   0.18250   0.41130   0.00000  Uiso   1.00
C235   C     0.80562   0.13887   0.49783   0.00000  Uiso   1.00
C236   C     0.69844   0.14644   0.21515   0.00000  Uiso   1.00
C237   C     0.59022   0.16100   0.14626   0.00000  Uiso   1.00
C238   C     0.53756   0.08558   0.10196   0.00000  Uiso   1.00
C239   C     0.41608   0.98587   0.00946   0.00000  Uiso   1.00
C240   C     0.89316   0.21893   0.30157   0.00000  Uiso   1.00
C241   C     0.94865   0.29445   0.30533   0.00000  Uiso   1.00
C242   C     0.05993   0.28006   0.33379   0.00000  Uiso   1.00
C243   C     0.24078   0.29291   0.37547   0.00000  Uiso   1.00
C244   C     0.87034   0.05932   0.31621   0.00000  Uiso   1.00
C245   C     0.84416   0.09575   0.35426   0.00000  Uiso   1.00
C246   C     0.86900   0.05066   0.40701   0.00000  Uiso   1.00
C247   C     0.83816   0.09553   0.43515   0.00000  Uiso   1.00
C248   C     0.75217   0.05962   0.23895   0.00000  Uiso   1.00
C249   C     0.69966   0.98416   0.19474   0.00000  Uiso   1.00
C250   C     0.59139   0.99860   0.12581   0.00000  Uiso   1.00
C251   C     0.94689   0.13212   0.32538   0.00000  Uiso   1.00
C252   C     0.05810   0.11761   0.35382   0.00000  Uiso   1.00
C253   C     0.11375   0.19309   0.35763   0.00000  Uiso   1.00
H254   H     0.72958   0.28675   0.25385   0.00000  Uiso   1.00
H255   H     0.71796   0.29469   0.34008   0.00000  Uiso   1.00
H256   H     0.54866   0.22820   0.12785   0.00000  Uiso   1.00
H257   H     0.90704   0.36162   0.28691   0.00000  Uiso   1.00
H258   H     0.72873   0.26520   0.44617   0.00000  Uiso   1.00
H259   H     0.37178   0.12500   0.99866   0.00000  Uiso   1.00
H260   H     0.12749   0.40635   0.33406   0.00000  Uiso   1.00
H261   H     0.91217   0.99172   0.33474   0.00000  Uiso   1.00
H262   H     0.91058   0.98348   0.42542   0.00000  Uiso   1.00
H263   H     0.74127   0.91699   0.21318   0.00000  Uiso   1.00
H264   H     0.09965   0.05041   0.37224   0.00000  Uiso   1.00
H265   H     0.88506   0.01260   0.51543   0.00000  Uiso   1.00
H266   H     0.52811   0.87240   0.06792   0.00000  Uiso   1.00
H267   H     0.28382   0.15376   0.40332   0.00000  Uiso   1.00
O268   O     0.80251   0.13879   0.53898   0.00000  Uiso   1.00
O269   O     0.33422   0.95486   0.95186   0.00000  Uiso   1.00
O270   O     0.32570   0.32399   0.39189   0.00000  Uiso   1.00
N271   N     0.76576   0.20689   0.45004   0.00000  Uiso   1.00
N272   N     0.43202   0.07581   0.03164   0.00000  Uiso   1.00
N273   N     0.13854   0.33885   0.34519   0.00000  Uiso   1.00
N274   N     0.84988   0.07097   0.48731   0.00000  Uiso   1.00
N275   N     0.51615   0.93989   0.06891   0.00000  Uiso   1.00
N276   N     0.22266   0.20293   0.38246   0.00000  Uiso   1.00
C277   C     0.72858   0.71916   0.22762   0.00000  Uiso   1.00
C278   C     0.70957   0.68257   0.16954   0.00000  Uiso   1.00
C279   C     0.74045   0.72751   0.14148   0.00000  Uiso   1.00
C280   C     0.71568   0.68250   0.08870   0.00000  Uiso   1.00
C281   C     0.69438   0.63887   0.00217   0.00000  Uiso   1.00
C282   C     0.80156   0.64644   0.28485   0.00000  Uiso   1.00
C283   C     0.90978   0.66100   0.35374   0.00000  Uiso   1.00
C284   C     0.96244   0.58558   0.39804   0.00000  Uiso   1.00
C285   C     0.08392   0.48587   0.49054   0.00000  Uiso   1.00
C286   C     0.60684   0.71893   0.19843   0.00000  Uiso   1.00
C287   C     0.55135   0.79445   0.19467   0.00000  Uiso   1.00
C288   C     0.44007   0.78006   0.16621   0.00000  Uiso   1.00
C289   C     0.25922   0.79291   0.12453   0.00000  Uiso   1.00
C290   C     0.62966   0.55932   0.18379   0.00000  Uiso   1.00
C291   C     0.65584   0.59575   0.14574   0.00000  Uiso   1.00
C292   C     0.63100   0.55066   0.09299   0.00000  Uiso   1.00
C293   C     0.66184   0.59553   0.06485   0.00000  Uiso   1.00
C294   C     0.74783   0.55962   0.26105   0.00000  Uiso   1.00
C295   C     0.80034   0.48416   0.30526   0.00000  Uiso   1.00
C296   C     0.90861   0.49860   0.37419   0.00000  Uiso   1.00
C297   C     0.55311   0.63212   0.17462   0.00000  Uiso   1.00
C298   C     0.44190   0.61761   0.14618   0.00000  Uiso   1.00
C299   C     0.38625   0.69309   0.14237   0.00000  Uiso   1.00
H300   H     0.77042   0.78675   0.24615   0.00000  Uiso   1.00
H301   H     0.78204   0.79469   0.15992   0.00000  Uiso   1.00
H302   H     0.95134   0.72820   0.37215   0.00000  Uiso   1.00
H303   H     0.59296   0.86162   0.21309   0.00000  Uiso   1.00
H304   H     0.77127   0.76520   0.05383   0.00000  Uiso   1.00
H305   H     0.12822   0.62500   0.50134   0.00000  Uiso   1.00
H306   H     0.37251   0.90635   0.16594   0.00000  Uiso   1.00
H307   H     0.58783   0.49172   0.16526   0.00000  Uiso   1.00
H308   H     0.58942   0.48348   0.07458   0.00000  Uiso   1.00
H309   H     0.75873   0.41699   0.28682   0.00000  Uiso   1.00
H310   H     0.40035   0.55041   0.12776   0.00000  Uiso   1.00
H311   H     0.61494   0.51260   0.98457   0.00000  Uiso   1.00
H312   H     0.97189   0.37240   0.43208   0.00000  Uiso   1.00
H313   H     0.21618   0.65376   0.09668   0.00000  Uiso   1.00
O314   O     0.69749   0.63879   0.96102   0.00000  Uiso   1.00
O315   O     0.16578   0.45486   0.54814   0.00000  Uiso   1.00
O316   O     0.17430   0.82399   0.10811   0.00000  Uiso   1.00
N317   N     0.73424   0.70689   0.04996   0.00000  Uiso   1.00
N318   N     0.06798   0.57581   0.46836   0.00000  Uiso   1.00
N319   N     0.36146   0.83885   0.15481   0.00000  Uiso   1.00
N320   N     0.65012   0.57097   0.01269   0.00000  Uiso   1.00
N321   N     0.98385   0.43989   0.43109   0.00000  Uiso   1.00
N322   N     0.27734   0.70293   0.11754   0.00000  Uiso   1.00
C323   C     0.22858   0.21916   0.22762   0.00000  Uiso   1.00
C324   C     0.20957   0.18257   0.16954   0.00000  Uiso   1.00
C325   C     0.24045   0.22751   0.14148   0.00000  Uiso   1.00
C326   C     0.21568   0.18250   0.08870   0.00000  Uiso   1.00
C327   C     0.19438   0.13887   0.00217   0.00000  Uiso   1.00
C328   C     0.30156   0.14644   0.28485   0.00000  Uiso   1.00
C329   C     0.40978   0.16100   0.35374   0.00000  Uiso   1.00
C330   C     0.46244   0.08558   0.39804   0.00000  Uiso   1.00
C331   C     0.58392   0.98587   0.49054   0.00000  Uiso   1.00
C332   C     0.10684   0.21893   0.19843   0.00000  Uiso   1.00
C333   C     0.05135   0.29445   0.19467   0.00000  Uiso   1.00
C334   C     0.94007   0.28006   0.16621   0.00000  Uiso   1.00
C335   C     0.75922   0.29291   0.12453   0.00000  Uiso   1.00
C336   C     0.12966   0.05932   0.18379   0.00000  Uiso   1.00
C337   C     0.15584   0.09575   0.14574   0.00000  Uiso   1.00
C338   C     0.13100   0.05066   0.09299   0.00000  Uiso   1.00
C339   C     0.16184   0.09553   0.06485   0.00000  Uiso   1.00
C340   C     0.24783   0.05962   0.26105   0.00000  Uiso   1.00
C341   C     0.30034   0.98416   0.30526   0.00000  Uiso   1.00
C342   C     0.40861   0.99860   0.37419   0.00000  Uiso   1.00
C343   C     0.05311   0.13212   0.17462   0.00000  Uiso   1.00
C344   C     0.94190   0.11761   0.14618   0.00000  Uiso   1.00
C345   C     0.88625   0.19309   0.14237   0.00000  Uiso   1.00
H346   H     0.27042   0.28675   0.24615   0.00000  Uiso   1.00
H347   H     0.28204   0.29469   0.15992   0.00000  Uiso   1.00
H348   H     0.45134   0.22820   0.37215   0.00000  Uiso   1.00
H349   H     0.09296   0.36162   0.21309   0.00000  Uiso   1.00
H350   H     0.27127   0.26520   0.05383   0.00000  Uiso   1.00
H351   H     0.62822   0.12500   0.50134   0.00000  Uiso   1.00
H352   H     0.87251   0.40635   0.16594   0.00000  Uiso   1.00
H353   H     0.08783   0.99172   0.16526   0.00000  Uiso   1.00
H354   H     0.08942   0.98348   0.07458   0.00000  Uiso   1.00
H355   H     0.25873   0.91699   0.28682   0.00000  Uiso   1.00
H356   H     0.90035   0.05041   0.12776   0.00000  Uiso   1.00
H357   H     0.11494   0.01260   0.98457   0.00000  Uiso   1.00
H358   H     0.47189   0.87240   0.43208   0.00000  Uiso   1.00
H359   H     0.71618   0.15376   0.09668   0.00000  Uiso   1.00
O360   O     0.19749   0.13879   0.96102   0.00000  Uiso   1.00
O361   O     0.66578   0.95486   0.54814   0.00000  Uiso   1.00
O362   O     0.67430   0.32399   0.10811   0.00000  Uiso   1.00
N363   N     0.23424   0.20689   0.04996   0.00000  Uiso   1.00
N364   N     0.56798   0.07581   0.46836   0.00000  Uiso   1.00
N365   N     0.86146   0.33885   0.15481   0.00000  Uiso   1.00
N366   N     0.15012   0.07097   0.01269   0.00000  Uiso   1.00
N367   N     0.48385   0.93989   0.43109   0.00000  Uiso   1.00
N368   N     0.77734   0.20293   0.11754   0.00000  Uiso   1.00
