data_job_05560
_audit_creation_date              2018-12-19
_audit_creation_method            'Materials Studio'
_symmetry_space_group_name_H-M    'P1'
_symmetry_Int_Tables_number       1
_symmetry_cell_setting            triclinic
loop_
_symmetry_equiv_pos_as_xyz
  x,y,z
_cell_length_a                    21.5504
_cell_length_b                    12.7141
_cell_length_c                    19.4398
_cell_angle_alpha                 90.0000
_cell_angle_beta                  90.0000
_cell_angle_gamma                 90.0000
loop_
_atom_site_label
_atom_site_type_symbol
_atom_site_fract_x
_atom_site_fract_y
_atom_site_fract_z
_atom_site_U_iso_or_equiv
_atom_site_adp_type
_atom_site_occupancy
C1     C     0.60685   0.32319   0.06093   0.00000  Uiso   1.00
C2     C     0.65356   0.23828   0.08064   0.00000  Uiso   1.00
C3     C     0.70846   0.21630   0.04620   0.00000  Uiso   1.00
C4     C     0.74484   0.13554   0.07234   0.00000  Uiso   1.00
C5     C     0.82008   0.01228   0.09402   0.00000  Uiso   1.00
C6     C     0.54489   0.26702   0.05164   0.00000  Uiso   1.00
C7     C     0.50842   0.26923   0.99282   0.00000  Uiso   1.00
C8     C     0.45333   0.21267   0.99456   0.00000  Uiso   1.00
C9     C     0.35984   0.13410   0.97124   0.00000  Uiso   1.00
C10    C     0.59949   0.39275   0.12430   0.00000  Uiso   1.00
C11    C     0.60890   0.50068   0.12658   0.00000  Uiso   1.00
C12    C     0.59976   0.54999   0.18950   0.00000  Uiso   1.00
C13    C     0.59104   0.66664   0.27900   0.00000  Uiso   1.00
C14    C     0.57386   0.21885   0.16862   0.00000  Uiso   1.00
C15    C     0.63564   0.18160   0.13913   0.00000  Uiso   1.00
C16    C     0.67195   0.10086   0.16534   0.00000  Uiso   1.00
C17    C     0.72689   0.07877   0.13094   0.00000  Uiso   1.00
C18    C     0.52697   0.21035   0.11013   0.00000  Uiso   1.00
C19    C     0.47192   0.15378   0.11196   0.00000  Uiso   1.00
C20    C     0.43537   0.15589   0.05316   0.00000  Uiso   1.00
C21    C     0.58157   0.33608   0.18280   0.00000  Uiso   1.00
C22    C     0.57241   0.38524   0.24572   0.00000  Uiso   1.00
C23    C     0.58181   0.49321   0.24809   0.00000  Uiso   1.00
H24    H     0.62080   0.36731   0.01539   0.00000  Uiso   1.00
H25    H     0.72230   0.26017   0.00093   0.00000  Uiso   1.00
H26    H     0.52230   0.31310   0.94757   0.00000  Uiso   1.00
H27    H     0.62277   0.54451   0.08131   0.00000  Uiso   1.00
H28    H     0.82693   0.11637   0.01067   0.00000  Uiso   1.00
H29    H     0.40519   0.22800   0.89816   0.00000  Uiso   1.00
H30    H     0.61706   0.71598   0.18018   0.00000  Uiso   1.00
H31    H     0.55991   0.17472   0.21415   0.00000  Uiso   1.00
H32    H     0.65807   0.05702   0.21060   0.00000  Uiso   1.00
H33    H     0.45807   0.10994   0.15723   0.00000  Uiso   1.00
H34    H     0.55854   0.34135   0.29097   0.00000  Uiso   1.00
H35    H     0.77479   0.95148   0.18085   0.00000  Uiso   1.00
H36    H     0.35306   0.06311   0.06834   0.00000  Uiso   1.00
H37    H     0.56492   0.55109   0.35035   0.00000  Uiso   1.00
O38    O     0.86653   0.95994   0.08982   0.00000  Uiso   1.00
O39    O     0.31322   0.10641   0.94222   0.00000  Uiso   1.00
O40    O     0.59119   0.74663   0.31221   0.00000  Uiso   1.00
N41    N     0.80119   0.09373   0.05122   0.00000  Uiso   1.00
N42    N     0.40690   0.19808   0.94602   0.00000  Uiso   1.00
N43    N     0.60496   0.65431   0.20968   0.00000  Uiso   1.00
N44    N     0.77314   0.00500   0.14279   0.00000  Uiso   1.00
N45    N     0.37885   0.10935   0.03759   0.00000  Uiso   1.00
N46    N     0.57691   0.56558   0.30125   0.00000  Uiso   1.00
C47    C     0.10685   0.82319   0.06093   0.00000  Uiso   1.00
C48    C     0.15356   0.73828   0.08064   0.00000  Uiso   1.00
C49    C     0.20846   0.71630   0.04620   0.00000  Uiso   1.00
C50    C     0.24484   0.63554   0.07234   0.00000  Uiso   1.00
C51    C     0.32008   0.51228   0.09402   0.00000  Uiso   1.00
C52    C     0.04489   0.76702   0.05164   0.00000  Uiso   1.00
C53    C     0.00842   0.76923   0.99282   0.00000  Uiso   1.00
C54    C     0.95333   0.71267   0.99456   0.00000  Uiso   1.00
C55    C     0.85984   0.63410   0.97124   0.00000  Uiso   1.00
C56    C     0.09949   0.89275   0.12430   0.00000  Uiso   1.00
C57    C     0.10890   0.00068   0.12658   0.00000  Uiso   1.00
C58    C     0.09976   0.04999   0.18950   0.00000  Uiso   1.00
C59    C     0.09104   0.16664   0.27900   0.00000  Uiso   1.00
C60    C     0.07386   0.71885   0.16862   0.00000  Uiso   1.00
C61    C     0.13564   0.68160   0.13913   0.00000  Uiso   1.00
C62    C     0.17195   0.60086   0.16534   0.00000  Uiso   1.00
C63    C     0.22689   0.57877   0.13094   0.00000  Uiso   1.00
C64    C     0.02697   0.71035   0.11013   0.00000  Uiso   1.00
C65    C     0.97192   0.65378   0.11196   0.00000  Uiso   1.00
C66    C     0.93537   0.65589   0.05316   0.00000  Uiso   1.00
C67    C     0.08157   0.83608   0.18280   0.00000  Uiso   1.00
C68    C     0.07241   0.88524   0.24572   0.00000  Uiso   1.00
C69    C     0.08181   0.99321   0.24809   0.00000  Uiso   1.00
H70    H     0.12080   0.86731   0.01539   0.00000  Uiso   1.00
H71    H     0.22230   0.76017   0.00093   0.00000  Uiso   1.00
H72    H     0.02230   0.81310   0.94757   0.00000  Uiso   1.00
H73    H     0.12277   0.04451   0.08131   0.00000  Uiso   1.00
H74    H     0.32693   0.61637   0.01067   0.00000  Uiso   1.00
H75    H     0.90519   0.72800   0.89816   0.00000  Uiso   1.00
H76    H     0.11706   0.21598   0.18018   0.00000  Uiso   1.00
H77    H     0.05991   0.67472   0.21415   0.00000  Uiso   1.00
H78    H     0.15807   0.55702   0.21060   0.00000  Uiso   1.00
H79    H     0.95807   0.60994   0.15723   0.00000  Uiso   1.00
H80    H     0.05854   0.84135   0.29097   0.00000  Uiso   1.00
H81    H     0.27479   0.45148   0.18085   0.00000  Uiso   1.00
H82    H     0.85306   0.56311   0.06834   0.00000  Uiso   1.00
H83    H     0.06492   0.05109   0.35035   0.00000  Uiso   1.00
O84    O     0.36653   0.45994   0.08982   0.00000  Uiso   1.00
O85    O     0.81322   0.60641   0.94222   0.00000  Uiso   1.00
O86    O     0.09119   0.24663   0.31221   0.00000  Uiso   1.00
N87    N     0.30119   0.59373   0.05122   0.00000  Uiso   1.00
N88    N     0.90690   0.69808   0.94602   0.00000  Uiso   1.00
N89    N     0.10496   0.15431   0.20968   0.00000  Uiso   1.00
N90    N     0.27314   0.50500   0.14279   0.00000  Uiso   1.00
N91    N     0.87885   0.60935   0.03759   0.00000  Uiso   1.00
N92    N     0.07691   0.06558   0.30125   0.00000  Uiso   1.00
C93    C     0.39315   0.67681   0.56093   0.00000  Uiso   1.00
C94    C     0.34644   0.76172   0.58064   0.00000  Uiso   1.00
C95    C     0.29154   0.78370   0.54620   0.00000  Uiso   1.00
C96    C     0.25516   0.86446   0.57234   0.00000  Uiso   1.00
C97    C     0.17992   0.98772   0.59402   0.00000  Uiso   1.00
C98    C     0.45511   0.73298   0.55164   0.00000  Uiso   1.00
C99    C     0.49158   0.73077   0.49282   0.00000  Uiso   1.00
C100   C     0.54667   0.78733   0.49456   0.00000  Uiso   1.00
C101   C     0.64016   0.86590   0.47124   0.00000  Uiso   1.00
C102   C     0.40051   0.60725   0.62430   0.00000  Uiso   1.00
C103   C     0.39110   0.49932   0.62658   0.00000  Uiso   1.00
C104   C     0.40024   0.45001   0.68950   0.00000  Uiso   1.00
C105   C     0.40896   0.33336   0.77900   0.00000  Uiso   1.00
C106   C     0.42614   0.78115   0.66862   0.00000  Uiso   1.00
C107   C     0.36436   0.81840   0.63913   0.00000  Uiso   1.00
C108   C     0.32805   0.89914   0.66534   0.00000  Uiso   1.00
C109   C     0.27311   0.92123   0.63094   0.00000  Uiso   1.00
C110   C     0.47303   0.78965   0.61013   0.00000  Uiso   1.00
C111   C     0.52808   0.84622   0.61196   0.00000  Uiso   1.00
C112   C     0.56463   0.84411   0.55316   0.00000  Uiso   1.00
C113   C     0.41843   0.66392   0.68280   0.00000  Uiso   1.00
C114   C     0.42759   0.61476   0.74572   0.00000  Uiso   1.00
C115   C     0.41819   0.50679   0.74809   0.00000  Uiso   1.00
H116   H     0.37920   0.63269   0.51539   0.00000  Uiso   1.00
H117   H     0.27770   0.73983   0.50093   0.00000  Uiso   1.00
H118   H     0.47770   0.68690   0.44757   0.00000  Uiso   1.00
H119   H     0.37723   0.45549   0.58131   0.00000  Uiso   1.00
H120   H     0.17307   0.88363   0.51067   0.00000  Uiso   1.00
H121   H     0.59481   0.77200   0.39816   0.00000  Uiso   1.00
H122   H     0.38294   0.28402   0.68018   0.00000  Uiso   1.00
H123   H     0.44009   0.82528   0.71415   0.00000  Uiso   1.00
H124   H     0.34193   0.94298   0.71060   0.00000  Uiso   1.00
H125   H     0.54193   0.89006   0.65723   0.00000  Uiso   1.00
H126   H     0.44146   0.65865   0.79097   0.00000  Uiso   1.00
H127   H     0.22521   0.04852   0.68085   0.00000  Uiso   1.00
H128   H     0.64694   0.93689   0.56834   0.00000  Uiso   1.00
H129   H     0.43508   0.44891   0.85035   0.00000  Uiso   1.00
O130   O     0.13347   0.04006   0.58982   0.00000  Uiso   1.00
O131   O     0.68678   0.89359   0.44222   0.00000  Uiso   1.00
O132   O     0.40881   0.25337   0.81221   0.00000  Uiso   1.00
N133   N     0.19881   0.90627   0.55122   0.00000  Uiso   1.00
N134   N     0.59310   0.80192   0.44602   0.00000  Uiso   1.00
N135   N     0.39504   0.34569   0.70968   0.00000  Uiso   1.00
N136   N     0.22686   0.99500   0.64279   0.00000  Uiso   1.00
N137   N     0.62115   0.89065   0.53759   0.00000  Uiso   1.00
N138   N     0.42309   0.43442   0.80125   0.00000  Uiso   1.00
C139   C     0.89315   0.17681   0.56093   0.00000  Uiso   1.00
C140   C     0.84644   0.26172   0.58064   0.00000  Uiso   1.00
C141   C     0.79154   0.28370   0.54620   0.00000  Uiso   1.00
C142   C     0.75516   0.36446   0.57234   0.00000  Uiso   1.00
C143   C     0.67992   0.48772   0.59402   0.00000  Uiso   1.00
C144   C     0.95511   0.23298   0.55164   0.00000  Uiso   1.00
C145   C     0.99158   0.23077   0.49282   0.00000  Uiso   1.00
C146   C     0.04667   0.28733   0.49456   0.00000  Uiso   1.00
C147   C     0.14016   0.36590   0.47124   0.00000  Uiso   1.00
C148   C     0.90051   0.10725   0.62430   0.00000  Uiso   1.00
C149   C     0.89110   0.99932   0.62658   0.00000  Uiso   1.00
C150   C     0.90024   0.95001   0.68950   0.00000  Uiso   1.00
C151   C     0.90896   0.83336   0.77900   0.00000  Uiso   1.00
C152   C     0.92614   0.28115   0.66862   0.00000  Uiso   1.00
C153   C     0.86436   0.31840   0.63913   0.00000  Uiso   1.00
C154   C     0.82805   0.39914   0.66534   0.00000  Uiso   1.00
C155   C     0.77311   0.42123   0.63094   0.00000  Uiso   1.00
C156   C     0.97303   0.28965   0.61013   0.00000  Uiso   1.00
C157   C     0.02808   0.34622   0.61196   0.00000  Uiso   1.00
C158   C     0.06463   0.34411   0.55316   0.00000  Uiso   1.00
C159   C     0.91843   0.16392   0.68280   0.00000  Uiso   1.00
C160   C     0.92759   0.11476   0.74572   0.00000  Uiso   1.00
C161   C     0.91819   0.00679   0.74809   0.00000  Uiso   1.00
H162   H     0.87920   0.13269   0.51539   0.00000  Uiso   1.00
H163   H     0.77770   0.23983   0.50093   0.00000  Uiso   1.00
H164   H     0.97770   0.18690   0.44757   0.00000  Uiso   1.00
H165   H     0.87723   0.95549   0.58131   0.00000  Uiso   1.00
H166   H     0.67307   0.38363   0.51067   0.00000  Uiso   1.00
H167   H     0.09481   0.27200   0.39816   0.00000  Uiso   1.00
H168   H     0.88294   0.78402   0.68018   0.00000  Uiso   1.00
H169   H     0.94009   0.32528   0.71415   0.00000  Uiso   1.00
H170   H     0.84193   0.44298   0.71060   0.00000  Uiso   1.00
H171   H     0.04193   0.39006   0.65723   0.00000  Uiso   1.00
H172   H     0.94146   0.15865   0.79097   0.00000  Uiso   1.00
H173   H     0.72521   0.54852   0.68085   0.00000  Uiso   1.00
H174   H     0.14694   0.43689   0.56834   0.00000  Uiso   1.00
H175   H     0.93508   0.94891   0.85035   0.00000  Uiso   1.00
O176   O     0.63347   0.54006   0.58982   0.00000  Uiso   1.00
O177   O     0.18678   0.39359   0.44222   0.00000  Uiso   1.00
O178   O     0.90881   0.75337   0.81221   0.00000  Uiso   1.00
N179   N     0.69881   0.40627   0.55122   0.00000  Uiso   1.00
N180   N     0.09310   0.30192   0.44602   0.00000  Uiso   1.00
N181   N     0.89504   0.84569   0.70968   0.00000  Uiso   1.00
N182   N     0.72686   0.49500   0.64279   0.00000  Uiso   1.00
N183   N     0.12115   0.39065   0.53759   0.00000  Uiso   1.00
N184   N     0.92309   0.93442   0.80125   0.00000  Uiso   1.00
C185   C     0.39315   0.32319   0.43907   0.00000  Uiso   1.00
C186   C     0.34644   0.23828   0.41936   0.00000  Uiso   1.00
C187   C     0.29154   0.21630   0.45380   0.00000  Uiso   1.00
C188   C     0.25516   0.13554   0.42766   0.00000  Uiso   1.00
C189   C     0.17992   0.01228   0.40598   0.00000  Uiso   1.00
C190   C     0.45511   0.26702   0.44836   0.00000  Uiso   1.00
C191   C     0.49158   0.26923   0.50718   0.00000  Uiso   1.00
C192   C     0.54667   0.21267   0.50544   0.00000  Uiso   1.00
C193   C     0.64016   0.13410   0.52876   0.00000  Uiso   1.00
C194   C     0.40051   0.39275   0.37570   0.00000  Uiso   1.00
C195   C     0.39110   0.50068   0.37342   0.00000  Uiso   1.00
C196   C     0.40024   0.54999   0.31050   0.00000  Uiso   1.00
C197   C     0.40896   0.66664   0.22100   0.00000  Uiso   1.00
C198   C     0.42614   0.21885   0.33138   0.00000  Uiso   1.00
C199   C     0.36436   0.18160   0.36087   0.00000  Uiso   1.00
C200   C     0.32805   0.10086   0.33466   0.00000  Uiso   1.00
C201   C     0.27311   0.07877   0.36906   0.00000  Uiso   1.00
C202   C     0.47303   0.21035   0.38987   0.00000  Uiso   1.00
C203   C     0.52808   0.15378   0.38804   0.00000  Uiso   1.00
C204   C     0.56463   0.15589   0.44684   0.00000  Uiso   1.00
C205   C     0.41843   0.33608   0.31720   0.00000  Uiso   1.00
C206   C     0.42759   0.38524   0.25428   0.00000  Uiso   1.00
C207   C     0.41819   0.49321   0.25191   0.00000  Uiso   1.00
H208   H     0.37920   0.36731   0.48461   0.00000  Uiso   1.00
H209   H     0.27770   0.26017   0.49907   0.00000  Uiso   1.00
H210   H     0.47770   0.31310   0.55243   0.00000  Uiso   1.00
H211   H     0.37723   0.54451   0.41869   0.00000  Uiso   1.00
H212   H     0.17307   0.11637   0.48933   0.00000  Uiso   1.00
H213   H     0.59481   0.22800   0.60184   0.00000  Uiso   1.00
H214   H     0.38294   0.71598   0.31982   0.00000  Uiso   1.00
H215   H     0.44009   0.17472   0.28585   0.00000  Uiso   1.00
H216   H     0.34193   0.05702   0.28940   0.00000  Uiso   1.00
H217   H     0.54193   0.10994   0.34277   0.00000  Uiso   1.00
H218   H     0.44146   0.34135   0.20903   0.00000  Uiso   1.00
H219   H     0.22521   0.95148   0.31915   0.00000  Uiso   1.00
H220   H     0.64694   0.06311   0.43166   0.00000  Uiso   1.00
H221   H     0.43508   0.55109   0.14965   0.00000  Uiso   1.00
O222   O     0.13347   0.95994   0.41018   0.00000  Uiso   1.00
O223   O     0.68678   0.10641   0.55778   0.00000  Uiso   1.00
O224   O     0.40881   0.74663   0.18779   0.00000  Uiso   1.00
N225   N     0.19881   0.09373   0.44878   0.00000  Uiso   1.00
N226   N     0.59310   0.19808   0.55398   0.00000  Uiso   1.00
N227   N     0.39504   0.65431   0.29032   0.00000  Uiso   1.00
N228   N     0.22686   0.00500   0.35721   0.00000  Uiso   1.00
N229   N     0.62115   0.10935   0.46241   0.00000  Uiso   1.00
N230   N     0.42309   0.56558   0.19875   0.00000  Uiso   1.00
C231   C     0.89315   0.82319   0.43907   0.00000  Uiso   1.00
C232   C     0.84644   0.73828   0.41936   0.00000  Uiso   1.00
C233   C     0.79154   0.71630   0.45380   0.00000  Uiso   1.00
C234   C     0.75516   0.63554   0.42766   0.00000  Uiso   1.00
C235   C     0.67992   0.51228   0.40598   0.00000  Uiso   1.00
C236   C     0.95511   0.76702   0.44836   0.00000  Uiso   1.00
C237   C     0.99158   0.76923   0.50718   0.00000  Uiso   1.00
C238   C     0.04667   0.71267   0.50544   0.00000  Uiso   1.00
C239   C     0.14016   0.63410   0.52876   0.00000  Uiso   1.00
C240   C     0.90051   0.89275   0.37570   0.00000  Uiso   1.00
C241   C     0.89110   0.00068   0.37342   0.00000  Uiso   1.00
C242   C     0.90024   0.04999   0.31050   0.00000  Uiso   1.00
C243   C     0.90896   0.16664   0.22100   0.00000  Uiso   1.00
C244   C     0.92614   0.71885   0.33138   0.00000  Uiso   1.00
C245   C     0.86436   0.68160   0.36087   0.00000  Uiso   1.00
C246   C     0.82805   0.60086   0.33466   0.00000  Uiso   1.00
C247   C     0.77311   0.57877   0.36906   0.00000  Uiso   1.00
C248   C     0.97303   0.71035   0.38987   0.00000  Uiso   1.00
C249   C     0.02808   0.65378   0.38804   0.00000  Uiso   1.00
C250   C     0.06463   0.65589   0.44684   0.00000  Uiso   1.00
C251   C     0.91843   0.83608   0.31720   0.00000  Uiso   1.00
C252   C     0.92759   0.88524   0.25428   0.00000  Uiso   1.00
C253   C     0.91819   0.99321   0.25191   0.00000  Uiso   1.00
H254   H     0.87920   0.86731   0.48461   0.00000  Uiso   1.00
H255   H     0.77770   0.76017   0.49907   0.00000  Uiso   1.00
H256   H     0.97770   0.81310   0.55243   0.00000  Uiso   1.00
H257   H     0.87723   0.04451   0.41869   0.00000  Uiso   1.00
H258   H     0.67307   0.61637   0.48933   0.00000  Uiso   1.00
H259   H     0.09481   0.72800   0.60184   0.00000  Uiso   1.00
H260   H     0.88294   0.21598   0.31982   0.00000  Uiso   1.00
H261   H     0.94009   0.67472   0.28585   0.00000  Uiso   1.00
H262   H     0.84193   0.55702   0.28940   0.00000  Uiso   1.00
H263   H     0.04193   0.60994   0.34277   0.00000  Uiso   1.00
H264   H     0.94146   0.84135   0.20903   0.00000  Uiso   1.00
H265   H     0.72521   0.45148   0.31915   0.00000  Uiso   1.00
H266   H     0.14694   0.56311   0.43166   0.00000  Uiso   1.00
H267   H     0.93508   0.05109   0.14965   0.00000  Uiso   1.00
O268   O     0.63347   0.45994   0.41018   0.00000  Uiso   1.00
O269   O     0.18678   0.60641   0.55778   0.00000  Uiso   1.00
O270   O     0.90881   0.24663   0.18779   0.00000  Uiso   1.00
N271   N     0.69881   0.59373   0.44878   0.00000  Uiso   1.00
N272   N     0.09310   0.69808   0.55398   0.00000  Uiso   1.00
N273   N     0.89504   0.15431   0.29032   0.00000  Uiso   1.00
N274   N     0.72686   0.50500   0.35721   0.00000  Uiso   1.00
N275   N     0.12115   0.60935   0.46241   0.00000  Uiso   1.00
N276   N     0.92309   0.06558   0.19875   0.00000  Uiso   1.00
C277   C     0.60685   0.67681   0.93907   0.00000  Uiso   1.00
C278   C     0.65356   0.76172   0.91936   0.00000  Uiso   1.00
C279   C     0.70846   0.78370   0.95380   0.00000  Uiso   1.00
C280   C     0.74484   0.86446   0.92766   0.00000  Uiso   1.00
C281   C     0.82008   0.98772   0.90598   0.00000  Uiso   1.00
C282   C     0.54489   0.73298   0.94836   0.00000  Uiso   1.00
C283   C     0.50842   0.73077   0.00718   0.00000  Uiso   1.00
C284   C     0.45333   0.78733   0.00544   0.00000  Uiso   1.00
C285   C     0.35984   0.86590   0.02876   0.00000  Uiso   1.00
C286   C     0.59949   0.60725   0.87570   0.00000  Uiso   1.00
C287   C     0.60890   0.49932   0.87342   0.00000  Uiso   1.00
C288   C     0.59976   0.45001   0.81050   0.00000  Uiso   1.00
C289   C     0.59104   0.33336   0.72100   0.00000  Uiso   1.00
C290   C     0.57386   0.78115   0.83138   0.00000  Uiso   1.00
C291   C     0.63564   0.81840   0.86087   0.00000  Uiso   1.00
C292   C     0.67195   0.89914   0.83466   0.00000  Uiso   1.00
C293   C     0.72689   0.92123   0.86906   0.00000  Uiso   1.00
C294   C     0.52697   0.78965   0.88987   0.00000  Uiso   1.00
C295   C     0.47192   0.84622   0.88804   0.00000  Uiso   1.00
C296   C     0.43537   0.84411   0.94684   0.00000  Uiso   1.00
C297   C     0.58157   0.66392   0.81720   0.00000  Uiso   1.00
C298   C     0.57241   0.61476   0.75428   0.00000  Uiso   1.00
C299   C     0.58181   0.50679   0.75191   0.00000  Uiso   1.00
H300   H     0.62080   0.63269   0.98461   0.00000  Uiso   1.00
H301   H     0.72230   0.73983   0.99907   0.00000  Uiso   1.00
H302   H     0.52230   0.68690   0.05243   0.00000  Uiso   1.00
H303   H     0.62277   0.45549   0.91869   0.00000  Uiso   1.00
H304   H     0.82693   0.88363   0.98933   0.00000  Uiso   1.00
H305   H     0.40519   0.77200   0.10184   0.00000  Uiso   1.00
H306   H     0.61706   0.28402   0.81982   0.00000  Uiso   1.00
H307   H     0.55991   0.82528   0.78585   0.00000  Uiso   1.00
H308   H     0.65807   0.94298   0.78940   0.00000  Uiso   1.00
H309   H     0.45807   0.89006   0.84277   0.00000  Uiso   1.00
H310   H     0.55854   0.65865   0.70903   0.00000  Uiso   1.00
H311   H     0.77479   0.04852   0.81915   0.00000  Uiso   1.00
H312   H     0.35306   0.93689   0.93166   0.00000  Uiso   1.00
H313   H     0.56492   0.44891   0.64965   0.00000  Uiso   1.00
O314   O     0.86653   0.04006   0.91018   0.00000  Uiso   1.00
O315   O     0.31322   0.89359   0.05778   0.00000  Uiso   1.00
O316   O     0.59119   0.25337   0.68779   0.00000  Uiso   1.00
N317   N     0.80119   0.90627   0.94878   0.00000  Uiso   1.00
N318   N     0.40690   0.80192   0.05398   0.00000  Uiso   1.00
N319   N     0.60496   0.34569   0.79032   0.00000  Uiso   1.00
N320   N     0.77314   0.99500   0.85721   0.00000  Uiso   1.00
N321   N     0.37885   0.89065   0.96241   0.00000  Uiso   1.00
N322   N     0.57691   0.43442   0.69875   0.00000  Uiso   1.00
C323   C     0.10685   0.17681   0.93907   0.00000  Uiso   1.00
C324   C     0.15356   0.26172   0.91936   0.00000  Uiso   1.00
C325   C     0.20846   0.28370   0.95380   0.00000  Uiso   1.00
C326   C     0.24484   0.36446   0.92766   0.00000  Uiso   1.00
C327   C     0.32008   0.48772   0.90598   0.00000  Uiso   1.00
C328   C     0.04489   0.23298   0.94836   0.00000  Uiso   1.00
C329   C     0.00842   0.23077   0.00718   0.00000  Uiso   1.00
C330   C     0.95333   0.28733   0.00544   0.00000  Uiso   1.00
C331   C     0.85984   0.36590   0.02876   0.00000  Uiso   1.00
C332   C     0.09949   0.10725   0.87570   0.00000  Uiso   1.00
C333   C     0.10890   0.99932   0.87342   0.00000  Uiso   1.00
C334   C     0.09976   0.95001   0.81050   0.00000  Uiso   1.00
C335   C     0.09104   0.83336   0.72100   0.00000  Uiso   1.00
C336   C     0.07386   0.28115   0.83138   0.00000  Uiso   1.00
C337   C     0.13564   0.31840   0.86087   0.00000  Uiso   1.00
C338   C     0.17195   0.39914   0.83466   0.00000  Uiso   1.00
C339   C     0.22689   0.42123   0.86906   0.00000  Uiso   1.00
C340   C     0.02697   0.28965   0.88987   0.00000  Uiso   1.00
C341   C     0.97192   0.34622   0.88804   0.00000  Uiso   1.00
C342   C     0.93537   0.34411   0.94684   0.00000  Uiso   1.00
C343   C     0.08157   0.16392   0.81720   0.00000  Uiso   1.00
C344   C     0.07241   0.11476   0.75428   0.00000  Uiso   1.00
C345   C     0.08181   0.00679   0.75191   0.00000  Uiso   1.00
H346   H     0.12080   0.13269   0.98461   0.00000  Uiso   1.00
H347   H     0.22230   0.23983   0.99907   0.00000  Uiso   1.00
H348   H     0.02230   0.18690   0.05243   0.00000  Uiso   1.00
H349   H     0.12277   0.95549   0.91869   0.00000  Uiso   1.00
H350   H     0.32693   0.38363   0.98933   0.00000  Uiso   1.00
H351   H     0.90519   0.27200   0.10184   0.00000  Uiso   1.00
H352   H     0.11706   0.78402   0.81982   0.00000  Uiso   1.00
H353   H     0.05991   0.32528   0.78585   0.00000  Uiso   1.00
H354   H     0.15807   0.44298   0.78940   0.00000  Uiso   1.00
H355   H     0.95807   0.39006   0.84277   0.00000  Uiso   1.00
H356   H     0.05854   0.15865   0.70903   0.00000  Uiso   1.00
H357   H     0.27479   0.54852   0.81915   0.00000  Uiso   1.00
H358   H     0.85306   0.43689   0.93166   0.00000  Uiso   1.00
H359   H     0.06492   0.94891   0.64965   0.00000  Uiso   1.00
O360   O     0.36653   0.54006   0.91018   0.00000  Uiso   1.00
O361   O     0.81322   0.39359   0.05778   0.00000  Uiso   1.00
O362   O     0.09119   0.75337   0.68779   0.00000  Uiso   1.00
N363   N     0.30119   0.40627   0.94878   0.00000  Uiso   1.00
N364   N     0.90690   0.30192   0.05398   0.00000  Uiso   1.00
N365   N     0.10496   0.84569   0.79032   0.00000  Uiso   1.00
N366   N     0.27314   0.49500   0.85721   0.00000  Uiso   1.00
N367   N     0.87885   0.39065   0.96241   0.00000  Uiso   1.00
N368   N     0.07691   0.93442   0.69875   0.00000  Uiso   1.00
