data_job_06642
_audit_creation_date              2018-12-19
_audit_creation_method            'Materials Studio'
_symmetry_space_group_name_H-M    'P1'
_symmetry_Int_Tables_number       1
_symmetry_cell_setting            triclinic
loop_
_symmetry_equiv_pos_as_xyz
  x,y,z
_cell_length_a                    18.8992
_cell_length_b                    22.3462
_cell_length_c                    23.2100
_cell_angle_alpha                 65.2151
_cell_angle_beta                  86.3778
_cell_angle_gamma                 113.9061
loop_
_atom_site_label
_atom_site_type_symbol
_atom_site_fract_x
_atom_site_fract_y
_atom_site_fract_z
_atom_site_U_iso_or_equiv
_atom_site_adp_type
_atom_site_occupancy
C1     C     0.55236   0.67687   0.15204   0.00000  Uiso   1.00
C2     C     0.59891   0.76046   0.12939   0.00000  Uiso   1.00
C3     C     0.56777   0.81013   0.10954   0.00000  Uiso   1.00
C4     C     0.62015   0.88436   0.09061   0.00000  Uiso   1.00
C5     C     0.68019   0.01056   0.05527   0.00000  Uiso   1.00
C6     C     0.59891   0.66318   0.10711   0.00000  Uiso   1.00
C7     C     0.56777   0.63105   0.06854   0.00000  Uiso   1.00
C8     C     0.62015   0.62339   0.03086   0.00000  Uiso   1.00
C9     C     0.68017   0.59850   0.96096   0.00000  Uiso   1.00
C10    C     0.56093   0.63679   0.22076   0.00000  Uiso   1.00
C11    C     0.49785   0.58247   0.27775   0.00000  Uiso   1.00
C12    C     0.51825   0.55257   0.33576   0.00000  Uiso   1.00
C13    C     0.51931   0.48672   0.44233   0.00000  Uiso   1.00
C14    C     0.70075   0.72036   0.15371   0.00000  Uiso   1.00
C15    C     0.67951   0.78408   0.13030   0.00000  Uiso   1.00
C16    C     0.73195   0.85825   0.11139   0.00000  Uiso   1.00
C17    C     0.70089   0.90803   0.09152   0.00000  Uiso   1.00
C18    C     0.67951   0.68680   0.10801   0.00000  Uiso   1.00
C19    C     0.73195   0.67917   0.07039   0.00000  Uiso   1.00
C20    C     0.70089   0.64705   0.03177   0.00000  Uiso   1.00
C21    C     0.64153   0.66042   0.22167   0.00000  Uiso   1.00
C22    C     0.66203   0.63059   0.27960   0.00000  Uiso   1.00
C23    C     0.59900   0.57624   0.33667   0.00000  Uiso   1.00
H24    H     0.48961   0.65848   0.15133   0.00000  Uiso   1.00
H25    H     0.50539   0.79183   0.10884   0.00000  Uiso   1.00
H26    H     0.50539   0.61277   0.06785   0.00000  Uiso   1.00
H27    H     0.43549   0.56420   0.27703   0.00000  Uiso   1.00
H28    H     0.55845   0.95010   0.06211   0.00000  Uiso   1.00
H29    H     0.55844   0.57252   0.97569   0.00000  Uiso   1.00
H30    H     0.41103   0.47009   0.41679   0.00000  Uiso   1.00
H31    H     0.76350   0.73876   0.15442   0.00000  Uiso   1.00
H32    H     0.79432   0.87652   0.11210   0.00000  Uiso   1.00
H33    H     0.79432   0.69746   0.07111   0.00000  Uiso   1.00
H34    H     0.72441   0.64889   0.28029   0.00000  Uiso   1.00
H35    H     0.79296   0.01883   0.06475   0.00000  Uiso   1.00
H36    H     0.79294   0.64125   0.97834   0.00000  Uiso   1.00
H37    H     0.64554   0.53883   0.41944   0.00000  Uiso   1.00
O38    O     0.69104   0.07364   0.03551   0.00000  Uiso   1.00
O39    O     0.69102   0.57826   0.92215   0.00000  Uiso   1.00
O40    O     0.49763   0.44389   0.50086   0.00000  Uiso   1.00
N41    N     0.60941   0.94737   0.06855   0.00000  Uiso   1.00
N42    N     0.60940   0.59436   0.98775   0.00000  Uiso   1.00
N43    N     0.47159   0.49859   0.40014   0.00000  Uiso   1.00
N44    N     0.73559   0.98435   0.06997   0.00000  Uiso   1.00
N45    N     0.73558   0.63135   0.98917   0.00000  Uiso   1.00
N46    N     0.59777   0.53557   0.40156   0.00000  Uiso   1.00
C47    C     0.09069   0.08493   0.12088   0.00000  Uiso   1.00
C48    C     0.12852   0.05543   0.08667   0.00000  Uiso   1.00
C49    C     0.21040   0.07964   0.06620   0.00000  Uiso   1.00
C50    C     0.23287   0.04562   0.03584   0.00000  Uiso   1.00
C51    C     0.30035   0.00839   0.98414   0.00000  Uiso   1.00
C52    C     0.04025   0.11166   0.07835   0.00000  Uiso   1.00
C53    C     0.04790   0.18314   0.05090   0.00000  Uiso   1.00
C54    C     0.99605   0.19645   0.01354   0.00000  Uiso   1.00
C55    C     0.92646   0.24650   0.94898   0.00000  Uiso   1.00
C56    C     0.03086   0.01682   0.18559   0.00000  Uiso   1.00
C57    C     0.03059   0.00855   0.24831   0.00000  Uiso   1.00
C58    C     0.97082   0.94202   0.30125   0.00000  Uiso   1.00
C59    C     0.88665   0.84481   0.40319   0.00000  Uiso   1.00
C60    C     0.98500   0.98148   0.10336   0.00000  Uiso   1.00
C61    C     0.07111   0.99924   0.07715   0.00000  Uiso   1.00
C62    C     0.09347   0.96518   0.04682   0.00000  Uiso   1.00
C63    C     0.17536   0.98933   0.02631   0.00000  Uiso   1.00
C64    C     0.98285   0.05547   0.06884   0.00000  Uiso   1.00
C65    C     0.93097   0.06868   0.03152   0.00000  Uiso   1.00
C66    C     0.93854   0.14016   0.00401   0.00000  Uiso   1.00
C67    C     0.97345   0.96062   0.17608   0.00000  Uiso   1.00
C68    C     0.91367   0.89409   0.22893   0.00000  Uiso   1.00
C69    C     0.91332   0.88573   0.29171   0.00000  Uiso   1.00
H70    H     0.13537   0.12868   0.12828   0.00000  Uiso   1.00
H71    H     0.25480   0.12313   0.07357   0.00000  Uiso   1.00
H72    H     0.09232   0.22661   0.05828   0.00000  Uiso   1.00
H73    H     0.07503   0.05205   0.25565   0.00000  Uiso   1.00
H74    H     0.36190   0.09221   0.00869   0.00000  Uiso   1.00
H75    H     0.01929   0.31040   0.97646   0.00000  Uiso   1.00
H76    H     0.98280   0.94231   0.39268   0.00000  Uiso   1.00
H77    H     0.94030   0.93773   0.09595   0.00000  Uiso   1.00
H78    H     0.04903   0.92169   0.03946   0.00000  Uiso   1.00
H79    H     0.88655   0.02518   0.02417   0.00000  Uiso   1.00
H80    H     0.86925   0.85062   0.22155   0.00000  Uiso   1.00
H81    H     0.19488   0.92872   0.98100   0.00000  Uiso   1.00
H82    H     0.85227   0.14691   0.94878   0.00000  Uiso   1.00
H83    H     0.81579   0.77882   0.36499   0.00000  Uiso   1.00
O84    O     0.35344   0.00338   0.95825   0.00000  Uiso   1.00
O85    O     0.90394   0.28963   0.91598   0.00000  Uiso   1.00
O86    O     0.85608   0.80671   0.46204   0.00000  Uiso   1.00
N87    N     0.30767   0.05592   0.00993   0.00000  Uiso   1.00
N88    N     0.98736   0.25992   0.97980   0.00000  Uiso   1.00
N89    N     0.95324   0.91580   0.36892   0.00000  Uiso   1.00
N90    N     0.21780   0.96795   0.99504   0.00000  Uiso   1.00
N91    N     0.89749   0.17195   0.96490   0.00000  Uiso   1.00
N92    N     0.86337   0.82782   0.35403   0.00000  Uiso   1.00
C93    C     0.13486   0.73170   0.16374   0.00000  Uiso   1.00
C94    C     0.08736   0.73858   0.11272   0.00000  Uiso   1.00
C95    C     0.11041   0.74607   0.05108   0.00000  Uiso   1.00
C96    C     0.05862   0.75156   0.01164   0.00000  Uiso   1.00
C97    C     0.99587   0.76257   0.92913   0.00000  Uiso   1.00
C98    C     0.14811   0.79498   0.17886   0.00000  Uiso   1.00
C99    C     0.22225   0.84989   0.17284   0.00000  Uiso   1.00
C100   C     0.22159   0.90284   0.18908   0.00000  Uiso   1.00
C101   C     0.25316   0.00139   0.20930   0.00000  Uiso   1.00
C102   C     0.07799   0.65909   0.22676   0.00000  Uiso   1.00
C103   C     0.09317   0.59975   0.26102   0.00000  Uiso   1.00
C104   C     0.03348   0.53830   0.31759   0.00000  Uiso   1.00
C105   C     0.95617   0.42585   0.41218   0.00000  Uiso   1.00
C106   C     0.00189   0.72810   0.20331   0.00000  Uiso   1.00
C107   C     0.01514   0.73663   0.13421   0.00000  Uiso   1.00
C108   C     0.96329   0.74209   0.09485   0.00000  Uiso   1.00
C109   C     0.98626   0.74960   0.03316   0.00000  Uiso   1.00
C110   C     0.07589   0.79303   0.20035   0.00000  Uiso   1.00
C111   C     0.07513   0.84591   0.21661   0.00000  Uiso   1.00
C112   C     0.14924   0.90089   0.21061   0.00000  Uiso   1.00
C113   C     0.00577   0.65713   0.24825   0.00000  Uiso   1.00
C114   C     0.94605   0.59577   0.30478   0.00000  Uiso   1.00
C115   C     0.96113   0.53634   0.33912   0.00000  Uiso   1.00
H116   H     0.19109   0.73322   0.14701   0.00000  Uiso   1.00
H117   H     0.16631   0.74759   0.03447   0.00000  Uiso   1.00
H118   H     0.27812   0.85138   0.15621   0.00000  Uiso   1.00
H119   H     0.14906   0.60128   0.24437   0.00000  Uiso   1.00
H120   H     0.10700   0.76268   0.91915   0.00000  Uiso   1.00
H121   H     0.34277   0.98152   0.17588   0.00000  Uiso   1.00
H122   H     0.07062   0.45413   0.36178   0.00000  Uiso   1.00
H123   H     0.94566   0.72659   0.22004   0.00000  Uiso   1.00
H124   H     0.90741   0.74058   0.11150   0.00000  Uiso   1.00
H125   H     0.01923   0.84438   0.23324   0.00000  Uiso   1.00
H126   H     0.89017   0.59428   0.32140   0.00000  Uiso   1.00
H127   H     0.89687   0.75700   0.98167   0.00000  Uiso   1.00
H128   H     0.13264   0.97584   0.23840   0.00000  Uiso   1.00
H129   H     0.86049   0.44845   0.42430   0.00000  Uiso   1.00
O130   O     0.98121   0.76919   0.87768   0.00000  Uiso   1.00
O131   O     0.29053   0.05629   0.21451   0.00000  Uiso   1.00
O132   O     0.93348   0.36437   0.45841   0.00000  Uiso   1.00
N133   N     0.06278   0.75941   0.94877   0.00000  Uiso   1.00
N134   N     0.28322   0.96401   0.18878   0.00000  Uiso   1.00
N135   N     0.02879   0.47096   0.36260   0.00000  Uiso   1.00
N136   N     0.94972   0.75635   0.98241   0.00000  Uiso   1.00
N137   N     0.17015   0.96096   0.22242   0.00000  Uiso   1.00
N138   N     0.91572   0.46790   0.39624   0.00000  Uiso   1.00
C139   C     0.07540   0.60191   0.58748   0.00000  Uiso   1.00
C140   C     0.14552   0.61260   0.54096   0.00000  Uiso   1.00
C141   C     0.13893   0.57804   0.50245   0.00000  Uiso   1.00
C142   C     0.21025   0.59521   0.46316   0.00000  Uiso   1.00
C143   C     0.30770   0.60425   0.39101   0.00000  Uiso   1.00
C144   C     0.08482   0.68000   0.56529   0.00000  Uiso   1.00
C145   C     0.02718   0.70210   0.54725   0.00000  Uiso   1.00
C146   C     0.04740   0.77602   0.52845   0.00000  Uiso   1.00
C147   C     0.05057   0.88967   0.49412   0.00000  Uiso   1.00
C148   C     0.09070   0.57616   0.65529   0.00000  Uiso   1.00
C149   C     0.03800   0.51096   0.71294   0.00000  Uiso   1.00
C150   C     0.06316   0.49745   0.76992   0.00000  Uiso   1.00
C151   C     0.07547   0.44988   0.87534   0.00000  Uiso   1.00
C152   C     0.21379   0.69389   0.58619   0.00000  Uiso   1.00
C153   C     0.22069   0.66256   0.54026   0.00000  Uiso   1.00
C154   C     0.29205   0.67979   0.50102   0.00000  Uiso   1.00
C155   C     0.28556   0.64526   0.46246   0.00000  Uiso   1.00
C156   C     0.15999   0.72996   0.56459   0.00000  Uiso   1.00
C157   C     0.18029   0.80386   0.54582   0.00000  Uiso   1.00
C158   C     0.12270   0.82606   0.52775   0.00000  Uiso   1.00
C159   C     0.16587   0.62612   0.65459   0.00000  Uiso   1.00
C160   C     0.19112   0.61271   0.71150   0.00000  Uiso   1.00
C161   C     0.13847   0.54750   0.76922   0.00000  Uiso   1.00
H162   H     0.01688   0.56302   0.58802   0.00000  Uiso   1.00
H163   H     0.08074   0.53938   0.50300   0.00000  Uiso   1.00
H164   H     0.96901   0.66343   0.54780   0.00000  Uiso   1.00
H165   H     0.97983   0.47231   0.71346   0.00000  Uiso   1.00
H166   H     0.18470   0.53523   0.40841   0.00000  Uiso   1.00
H167   H     0.94909   0.79677   0.50290   0.00000  Uiso   1.00
H168   H     0.97191   0.39377   0.85222   0.00000  Uiso   1.00
H169   H     0.27232   0.73278   0.58564   0.00000  Uiso   1.00
H170   H     0.35021   0.71846   0.50049   0.00000  Uiso   1.00
H171   H     0.23847   0.84250   0.54529   0.00000  Uiso   1.00
H172   H     0.24929   0.65139   0.71094   0.00000  Uiso   1.00
H173   H     0.40341   0.68057   0.40637   0.00000  Uiso   1.00
H174   H     0.16779   0.94212   0.50086   0.00000  Uiso   1.00
H175   H     0.19061   0.53911   0.85018   0.00000  Uiso   1.00
O176   O     0.34068   0.59544   0.35140   0.00000  Uiso   1.00
O177   O     0.03156   0.93856   0.47537   0.00000  Uiso   1.00
O178   O     0.06150   0.40983   0.93368   0.00000  Uiso   1.00
N179   N     0.22549   0.57139   0.41963   0.00000  Uiso   1.00
N180   N     0.00521   0.81592   0.50795   0.00000  Uiso   1.00
N181   N     0.02653   0.43916   0.83455   0.00000  Uiso   1.00
N182   N     0.34317   0.64960   0.41853   0.00000  Uiso   1.00
N183   N     0.12289   0.89413   0.50686   0.00000  Uiso   1.00
N184   N     0.14422   0.51736   0.83345   0.00000  Uiso   1.00
C185   C     0.52874   0.64096   0.62099   0.00000  Uiso   1.00
C186   C     0.53813   0.71867   0.57735   0.00000  Uiso   1.00
C187   C     0.60794   0.78049   0.52988   0.00000  Uiso   1.00
C188   C     0.60424   0.84656   0.49516   0.00000  Uiso   1.00
C189   C     0.62962   0.96660   0.42550   0.00000  Uiso   1.00
C190   C     0.45858   0.58681   0.60907   0.00000  Uiso   1.00
C191   C     0.46151   0.53776   0.58828   0.00000  Uiso   1.00
C192   C     0.39084   0.49283   0.58026   0.00000  Uiso   1.00
C193   C     0.29270   0.40812   0.55989   0.00000  Uiso   1.00
C194   C     0.49992   0.62248   0.69212   0.00000  Uiso   1.00
C195   C     0.53759   0.60340   0.74117   0.00000  Uiso   1.00
C196   C     0.50171   0.58848   0.80308   0.00000  Uiso   1.00
C197   C     0.46775   0.55914   0.91166   0.00000  Uiso   1.00
C198   C     0.39803   0.64836   0.64372   0.00000  Uiso   1.00
C199   C     0.46714   0.72269   0.58970   0.00000  Uiso   1.00
C200   C     0.46333   0.78868   0.55504   0.00000  Uiso   1.00
C201   C     0.53312   0.85060   0.50753   0.00000  Uiso   1.00
C202   C     0.38759   0.59083   0.62141   0.00000  Uiso   1.00
C203   C     0.31690   0.54596   0.61343   0.00000  Uiso   1.00
C204   C     0.31972   0.49686   0.59263   0.00000  Uiso   1.00
C205   C     0.42893   0.62650   0.70447   0.00000  Uiso   1.00
C206   C     0.39298   0.61160   0.76632   0.00000  Uiso   1.00
C207   C     0.43058   0.59251   0.81545   0.00000  Uiso   1.00
H208   H     0.58400   0.63782   0.61137   0.00000  Uiso   1.00
H209   H     0.66287   0.77735   0.52034   0.00000  Uiso   1.00
H210   H     0.51645   0.53466   0.57873   0.00000  Uiso   1.00
H211   H     0.59252   0.60029   0.73160   0.00000  Uiso   1.00
H212   H     0.71898   0.93381   0.42484   0.00000  Uiso   1.00
H213   H     0.41026   0.42206   0.54799   0.00000  Uiso   1.00
H214   H     0.57066   0.56046   0.87033   0.00000  Uiso   1.00
H215   H     0.34276   0.65149   0.65333   0.00000  Uiso   1.00
H216   H     0.40838   0.79178   0.56460   0.00000  Uiso   1.00
H217   H     0.26197   0.54908   0.62299   0.00000  Uiso   1.00
H218   H     0.33804   0.61472   0.77586   0.00000  Uiso   1.00
H219   H     0.51243   0.94552   0.46076   0.00000  Uiso   1.00
H220   H     0.20371   0.43376   0.58391   0.00000  Uiso   1.00
H221   H     0.36411   0.57216   0.90625   0.00000  Uiso   1.00
O222   O     0.66322   0.03170   0.38366   0.00000  Uiso   1.00
O223   O     0.25819   0.36029   0.54523   0.00000  Uiso   1.00
O224   O     0.46864   0.54186   0.96814   0.00000  Uiso   1.00
N225   N     0.66137   0.91732   0.44548   0.00000  Uiso   1.00
N226   N     0.37273   0.43887   0.56061   0.00000  Uiso   1.00
N227   N     0.52269   0.56824   0.86198   0.00000  Uiso   1.00
N228   N     0.55023   0.92362   0.46481   0.00000  Uiso   1.00
N229   N     0.26159   0.44517   0.57993   0.00000  Uiso   1.00
N230   N     0.41154   0.57454   0.88131   0.00000  Uiso   1.00
C231   C     0.58091   0.06293   0.66414   0.00000  Uiso   1.00
C232   C     0.52066   0.04259   0.62612   0.00000  Uiso   1.00
C233   C     0.47904   0.08097   0.59780   0.00000  Uiso   1.00
C234   C     0.42663   0.05345   0.56510   0.00000  Uiso   1.00
C235   C     0.33469   0.03156   0.50668   0.00000  Uiso   1.00
C236   C     0.65902   0.07261   0.62923   0.00000  Uiso   1.00
C237   C     0.73373   0.13623   0.60353   0.00000  Uiso   1.00
C238   C     0.79780   0.13398   0.57346   0.00000  Uiso   1.00
C239   C     0.92066   0.15869   0.51991   0.00000  Uiso   1.00
C240   C     0.55000   0.99334   0.73177   0.00000  Uiso   1.00
C241   C     0.53307   0.99030   0.79230   0.00000  Uiso   1.00
C242   C     0.50537   0.92130   0.84856   0.00000  Uiso   1.00
C243   C     0.45897   0.82292   0.95423   0.00000  Uiso   1.00
C244   C     0.56186   0.94581   0.65644   0.00000  Uiso   1.00
C245   C     0.51032   0.97898   0.62194   0.00000  Uiso   1.00
C246   C     0.45796   0.95139   0.58928   0.00000  Uiso   1.00
C247   C     0.41626   0.98972   0.56091   0.00000  Uiso   1.00
C248   C     0.64868   0.00900   0.62505   0.00000  Uiso   1.00
C249   C     0.71265   0.00666   0.59501   0.00000  Uiso   1.00
C250   C     0.78743   0.07026   0.56927   0.00000  Uiso   1.00
C251   C     0.53965   0.92972   0.72759   0.00000  Uiso   1.00
C252   C     0.51198   0.86072   0.78378   0.00000  Uiso   1.00
C253   C     0.49500   0.85758   0.84437   0.00000  Uiso   1.00
H254   H     0.58897   0.11246   0.66739   0.00000  Uiso   1.00
H255   H     0.48707   0.13020   0.60104   0.00000  Uiso   1.00
H256   H     0.74172   0.18545   0.60678   0.00000  Uiso   1.00
H257   H     0.54108   0.03954   0.79552   0.00000  Uiso   1.00
H258   H     0.36955   0.12183   0.52562   0.00000  Uiso   1.00
H259   H     0.90650   0.23832   0.53773   0.00000  Uiso   1.00
H260   H     0.48342   0.93064   0.93572   0.00000  Uiso   1.00
H261   H     0.55381   0.89629   0.65318   0.00000  Uiso   1.00
H262   H     0.44996   0.90216   0.58605   0.00000  Uiso   1.00
H263   H     0.70462   0.95742   0.59178   0.00000  Uiso   1.00
H264   H     0.50398   0.81150   0.78052   0.00000  Uiso   1.00
H265   H     0.33943   0.93675   0.51344   0.00000  Uiso   1.00
H266   H     0.87639   0.05324   0.52556   0.00000  Uiso   1.00
H267   H     0.45331   0.74555   0.92355   0.00000  Uiso   1.00
O268   O     0.28684   0.03707   0.47561   0.00000  Uiso   1.00
O269   O     0.99129   0.18990   0.49152   0.00000  Uiso   1.00
O270   O     0.43622   0.78622   0.01367   0.00000  Uiso   1.00
N271   N     0.37670   0.07745   0.53197   0.00000  Uiso   1.00
N272   N     0.87871   0.18637   0.54329   0.00000  Uiso   1.00
N273   N     0.48319   0.89872   0.91538   0.00000  Uiso   1.00
N274   N     0.36049   0.97786   0.52543   0.00000  Uiso   1.00
N275   N     0.86251   0.08678   0.53674   0.00000  Uiso   1.00
N276   N     0.46699   0.79913   0.90883   0.00000  Uiso   1.00
C277   C     0.44758   0.21165   0.69294   0.00000  Uiso   1.00
C278   C     0.38330   0.12955   0.72613   0.00000  Uiso   1.00
C279   C     0.39092   0.06916   0.77107   0.00000  Uiso   1.00
C280   C     0.32523   0.99843   0.79584   0.00000  Uiso   1.00
C281   C     0.23616   0.87247   0.85039   0.00000  Uiso   1.00
C282   C     0.40833   0.25236   0.70935   0.00000  Uiso   1.00
C283   C     0.43699   0.29524   0.74016   0.00000  Uiso   1.00
C284   C     0.39238   0.32790   0.75079   0.00000  Uiso   1.00
C285   C     0.34219   0.39265   0.77923   0.00000  Uiso   1.00
C286   C     0.46190   0.24053   0.61871   0.00000  Uiso   1.00
C287   C     0.53562   0.27349   0.57330   0.00000  Uiso   1.00
C288   C     0.53611   0.29620   0.50761   0.00000  Uiso   1.00
C289   C     0.56910   0.34258   0.39532   0.00000  Uiso   1.00
C290   C     0.31739   0.19341   0.65701   0.00000  Uiso   1.00
C291   C     0.31258   0.11965   0.70662   0.00000  Uiso   1.00
C292   C     0.24687   0.04899   0.73132   0.00000  Uiso   1.00
C293   C     0.25439   0.98851   0.77629   0.00000  Uiso   1.00
C294   C     0.33761   0.24246   0.68983   0.00000  Uiso   1.00
C295   C     0.29295   0.27507   0.70041   0.00000  Uiso   1.00
C296   C     0.32153   0.31798   0.73124   0.00000  Uiso   1.00
C297   C     0.39118   0.23063   0.59919   0.00000  Uiso   1.00
C298   C     0.39156   0.25330   0.53356   0.00000  Uiso   1.00
C299   C     0.46526   0.28628   0.48806   0.00000  Uiso   1.00
H300   H     0.50264   0.21936   0.70813   0.00000  Uiso   1.00
H301   H     0.44565   0.07685   0.78617   0.00000  Uiso   1.00
H302   H     0.49172   0.30290   0.75526   0.00000  Uiso   1.00
H303   H     0.59033   0.28114   0.58843   0.00000  Uiso   1.00
H304   H     0.35127   0.91449   0.86410   0.00000  Uiso   1.00
H305   H     0.44843   0.39115   0.79890   0.00000  Uiso   1.00
H306   H     0.65636   0.34526   0.44710   0.00000  Uiso   1.00
H307   H     0.26233   0.18570   0.64181   0.00000  Uiso   1.00
H308   H     0.19215   0.04134   0.71621   0.00000  Uiso   1.00
H309   H     0.23823   0.26739   0.68530   0.00000  Uiso   1.00
H310   H     0.33683   0.24563   0.51847   0.00000  Uiso   1.00
H311   H     0.14552   0.88567   0.80732   0.00000  Uiso   1.00
H312   H     0.24269   0.36233   0.74212   0.00000  Uiso   1.00
H313   H     0.45061   0.31644   0.39033   0.00000  Uiso   1.00
O314   O     0.20656   0.80572   0.88587   0.00000  Uiso   1.00
O315   O     0.33404   0.43110   0.80032   0.00000  Uiso   1.00
O316   O     0.60683   0.37089   0.33877   0.00000  Uiso   1.00
N317   N     0.31248   0.92752   0.84052   0.00000  Uiso   1.00
N318   N     0.40332   0.37316   0.77957   0.00000  Uiso   1.00
N319   N     0.59772   0.33027   0.45067   0.00000  Uiso   1.00
N320   N     0.20177   0.91201   0.80997   0.00000  Uiso   1.00
N321   N     0.29261   0.35765   0.74902   0.00000  Uiso   1.00
N322   N     0.48700   0.31476   0.42011   0.00000  Uiso   1.00
C323   C     0.92583   0.81902   0.72646   0.00000  Uiso   1.00
C324   C     0.92220   0.85595   0.76809   0.00000  Uiso   1.00
C325   C     0.86651   0.82178   0.82859   0.00000  Uiso   1.00
C326   C     0.87333   0.86509   0.85887   0.00000  Uiso   1.00
C327   C     0.85854   0.91104   0.92798   0.00000  Uiso   1.00
C328   C     0.01052   0.82749   0.71548   0.00000  Uiso   1.00
C329   C     0.02909   0.76939   0.73175   0.00000  Uiso   1.00
C330   C     0.11026   0.78875   0.71773   0.00000  Uiso   1.00
C331   C     0.23259   0.79052   0.70512   0.00000  Uiso   1.00
C332   C     0.92094   0.86798   0.65891   0.00000  Uiso   1.00
C333   C     0.86420   0.84391   0.62760   0.00000  Uiso   1.00
C334   C     0.86997   0.89736   0.56595   0.00000  Uiso   1.00
C335   C     0.85321   0.96199   0.46550   0.00000  Uiso   1.00
C336   C     0.03699   0.95671   0.67263   0.00000  Uiso   1.00
C337   C     0.98258   0.93073   0.73885   0.00000  Uiso   1.00
C338   C     0.98949   0.97411   0.76904   0.00000  Uiso   1.00
C339   C     0.93382   0.94001   0.82958   0.00000  Uiso   1.00
C340   C     0.07090   0.90227   0.68625   0.00000  Uiso   1.00
C341   C     0.15207   0.92172   0.67220   0.00000  Uiso   1.00
C342   C     0.17075   0.86367   0.68844   0.00000  Uiso   1.00
C343   C     0.98132   0.94276   0.62967   0.00000  Uiso   1.00
C344   C     0.98718   0.99625   0.56805   0.00000  Uiso   1.00
C345   C     0.93046   0.97228   0.53666   0.00000  Uiso   1.00
H346   H     0.87883   0.76080   0.74922   0.00000  Uiso   1.00
H347   H     0.81979   0.76390   0.85121   0.00000  Uiso   1.00
H348   H     0.98235   0.71152   0.75437   0.00000  Uiso   1.00
H349   H     0.81748   0.78604   0.65024   0.00000  Uiso   1.00
H350   H     0.78099   0.80031   0.95140   0.00000  Uiso   1.00
H351   H     0.12374   0.68987   0.74719   0.00000  Uiso   1.00
H352   H     0.77610   0.84700   0.52762   0.00000  Uiso   1.00
H353   H     0.08400   0.01493   0.64986   0.00000  Uiso   1.00
H354   H     0.03623   0.03198   0.74640   0.00000  Uiso   1.00
H355   H     0.19878   0.97960   0.64957   0.00000  Uiso   1.00
H356   H     0.03392   0.05412   0.54544   0.00000  Uiso   1.00
H357   H     0.95666   0.01789   0.86634   0.00000  Uiso   1.00
H358   H     0.29941   0.90745   0.66213   0.00000  Uiso   1.00
H359   H     0.95176   0.06459   0.44256   0.00000  Uiso   1.00
O360   O     0.83371   0.91572   0.97418   0.00000  Uiso   1.00
O361   O     0.28338   0.77083   0.70626   0.00000  Uiso   1.00
O362   O     0.82728   0.97699   0.41818   0.00000  Uiso   1.00
N363   N     0.82888   0.84918   0.91813   0.00000  Uiso   1.00
N364   N     0.14933   0.74593   0.72721   0.00000  Uiso   1.00
N365   N     0.82433   0.89283   0.52192   0.00000  Uiso   1.00
N366   N     0.92341   0.96626   0.87236   0.00000  Uiso   1.00
N367   N     0.24386   0.86301   0.68144   0.00000  Uiso   1.00
N368   N     0.91885   0.00991   0.47615   0.00000  Uiso   1.00
C369   C     0.98309   0.28445   0.76689   0.00000  Uiso   1.00
C370   C     0.03761   0.26092   0.80617   0.00000  Uiso   1.00
C371   C     0.08587   0.29809   0.83554   0.00000  Uiso   1.00
C372   C     0.13131   0.26759   0.86930   0.00000  Uiso   1.00
C373   C     0.21635   0.24096   0.92968   0.00000  Uiso   1.00
C374   C     0.89872   0.21728   0.80049   0.00000  Uiso   1.00
C375   C     0.83020   0.21778   0.82508   0.00000  Uiso   1.00
C376   C     0.75871   0.15054   0.85406   0.00000  Uiso   1.00
C377   C     0.62812   0.05618   0.90558   0.00000  Uiso   1.00
C378   C     0.00942   0.29273   0.69931   0.00000  Uiso   1.00
C379   C     0.03396   0.35666   0.63882   0.00000  Uiso   1.00
C380   C     0.05566   0.35294   0.58261   0.00000  Uiso   1.00
C381   C     0.09694   0.37573   0.47704   0.00000  Uiso   1.00
C382   C     0.97796   0.16418   0.77462   0.00000  Uiso   1.00
C383   C     0.03482   0.19558   0.81037   0.00000  Uiso   1.00
C384   C     0.08020   0.16502   0.84409   0.00000  Uiso   1.00
C385   C     0.12852   0.20214   0.87351   0.00000  Uiso   1.00
C386   C     0.89593   0.15195   0.80469   0.00000  Uiso   1.00
C387   C     0.82453   0.08470   0.83364   0.00000  Uiso   1.00
C388   C     0.75592   0.08509   0.85827   0.00000  Uiso   1.00
C389   C     0.00664   0.22740   0.70351   0.00000  Uiso   1.00
C390   C     0.02829   0.22359   0.64739   0.00000  Uiso   1.00
C391   C     0.05286   0.28750   0.58682   0.00000  Uiso   1.00
H392   H     0.98525   0.33531   0.76362   0.00000  Uiso   1.00
H393   H     0.08800   0.34864   0.83228   0.00000  Uiso   1.00
H394   H     0.83237   0.26834   0.82181   0.00000  Uiso   1.00
H395   H     0.03611   0.40720   0.63559   0.00000  Uiso   1.00
H396   H     0.20067   0.33460   0.91027   0.00000  Uiso   1.00
H397   H     0.66166   0.16528   0.88819   0.00000  Uiso   1.00
H398   H     0.09126   0.45810   0.49550   0.00000  Uiso   1.00
H399   H     0.97579   0.11331   0.77789   0.00000  Uiso   1.00
H400   H     0.07803   0.11446   0.84734   0.00000  Uiso   1.00
H401   H     0.82240   0.03416   0.83688   0.00000  Uiso   1.00
H402   H     0.02613   0.17302   0.65065   0.00000  Uiso   1.00
H403   H     0.19257   0.14453   0.92250   0.00000  Uiso   1.00
H404   H     0.65356   0.97521   0.90041   0.00000  Uiso   1.00
H405   H     0.08316   0.26803   0.50773   0.00000  Uiso   1.00
O406   O     0.26403   0.24431   0.96183   0.00000  Uiso   1.00
O407   O     0.55686   0.02218   0.93284   0.00000  Uiso   1.00
O408   O     0.12049   0.40635   0.41765   0.00000  Uiso   1.00
N409   N     0.18475   0.28972   0.90361   0.00000  Uiso   1.00
N410   N     0.68080   0.13141   0.88297   0.00000  Uiso   1.00
N411   N     0.08243   0.40517   0.51584   0.00000  Uiso   1.00
N412   N     0.18039   0.18744   0.91019   0.00000  Uiso   1.00
N413   N     0.67645   0.02914   0.88955   0.00000  Uiso   1.00
N414   N     0.07807   0.30289   0.52242   0.00000  Uiso   1.00
C415   C     0.95827   0.24618   0.24687   0.00000  Uiso   1.00
C416   C     0.90327   0.26705   0.27606   0.00000  Uiso   1.00
C417   C     0.89677   0.26528   0.33671   0.00000  Uiso   1.00
C418   C     0.84301   0.28646   0.35452   0.00000  Uiso   1.00
C419   C     0.76451   0.31545   0.40615   0.00000  Uiso   1.00
C420   C     0.90352   0.18495   0.23267   0.00000  Uiso   1.00
C421   C     0.89724   0.11416   0.25682   0.00000  Uiso   1.00
C422   C     0.84369   0.06623   0.23810   0.00000  Uiso   1.00
C423   C     0.76562   0.96779   0.22233   0.00000  Uiso   1.00
C424   C     0.01051   0.31445   0.17965   0.00000  Uiso   1.00
C425   C     0.09419   0.35255   0.15923   0.00000  Uiso   1.00
C426   C     0.13072   0.41364   0.09586   0.00000  Uiso   1.00
C427   C     0.21877   0.51628   0.99778   0.00000  Uiso   1.00
C428   C     0.87436   0.28692   0.17065   0.00000  Uiso   1.00
C429   C     0.85770   0.28917   0.23466   0.00000  Uiso   1.00
C430   C     0.80393   0.31035   0.25238   0.00000  Uiso   1.00
C431   C     0.79735   0.30863   0.31304   0.00000  Uiso   1.00
C432   C     0.85794   0.20707   0.19127   0.00000  Uiso   1.00
C433   C     0.80440   0.15923   0.17250   0.00000  Uiso   1.00
C434   C     0.79803   0.08840   0.19662   0.00000  Uiso   1.00
C435   C     0.96494   0.33658   0.13825   0.00000  Uiso   1.00
C436   C     0.00134   0.39762   0.07490   0.00000  Uiso   1.00
C437   C     0.08506   0.43581   0.05439   0.00000  Uiso   1.00
H438   H     0.99375   0.22895   0.27910   0.00000  Uiso   1.00
H439   H     0.93205   0.24815   0.36873   0.00000  Uiso   1.00
H440   H     0.93252   0.09706   0.28886   0.00000  Uiso   1.00
H441   H     0.12944   0.33541   0.19128   0.00000  Uiso   1.00
H442   H     0.84351   0.27917   0.44986   0.00000  Uiso   1.00
H443   H     0.84453   0.96060   0.28142   0.00000  Uiso   1.00
H444   H     0.25977   0.46321   0.07566   0.00000  Uiso   1.00
H445   H     0.83887   0.30414   0.13841   0.00000  Uiso   1.00
H446   H     0.76867   0.32747   0.22033   0.00000  Uiso   1.00
H447   H     0.76914   0.17638   0.14045   0.00000  Uiso   1.00
H448   H     0.96606   0.41473   0.04288   0.00000  Uiso   1.00
H449   H     0.71091   0.34355   0.32941   0.00000  Uiso   1.00
H450   H     0.71192   0.02497   0.16097   0.00000  Uiso   1.00
H451   H     0.12716   0.52758   0.95521   0.00000  Uiso   1.00
O452   O     0.73380   0.32532   0.44607   0.00000  Uiso   1.00
O453   O     0.73514   0.90737   0.22507   0.00000  Uiso   1.00
O454   O     0.27993   0.56679   0.95512   0.00000  Uiso   1.00
N455   N     0.82195   0.29113   0.41027   0.00000  Uiso   1.00
N456   N     0.82289   0.99328   0.25279   0.00000  Uiso   1.00
N457   N     0.21110   0.46317   0.06042   0.00000  Uiso   1.00
N458   N     0.75060   0.32578   0.34545   0.00000  Uiso   1.00
N459   N     0.75154   0.02792   0.18798   0.00000  Uiso   1.00
N460   N     0.13975   0.49781   0.99560   0.00000  Uiso   1.00
C461   C     0.52000   0.32581   0.17365   0.00000  Uiso   1.00
C462   C     0.51688   0.25103   0.21802   0.00000  Uiso   1.00
C463   C     0.45260   0.18983   0.27147   0.00000  Uiso   1.00
C464   C     0.46153   0.12658   0.30580   0.00000  Uiso   1.00
C465   C     0.44595   0.01078   0.37752   0.00000  Uiso   1.00
C466   C     0.59452   0.38560   0.17625   0.00000  Uiso   1.00
C467   C     0.59551   0.43755   0.19457   0.00000  Uiso   1.00
C468   C     0.66980   0.48758   0.19373   0.00000  Uiso   1.00
C469   C     0.77475   0.58074   0.20055   0.00000  Uiso   1.00
C470   C     0.53782   0.33838   0.10334   0.00000  Uiso   1.00
C471   C     0.49116   0.35064   0.06035   0.00000  Uiso   1.00
C472   C     0.51773   0.36093   0.99812   0.00000  Uiso   1.00
C473   C     0.53466   0.38076   0.89174   0.00000  Uiso   1.00
C474   C     0.65018   0.32230   0.13956   0.00000  Uiso   1.00
C475   C     0.58759   0.24913   0.19950   0.00000  Uiso   1.00
C476   C     0.59663   0.18595   0.23375   0.00000  Uiso   1.00
C477   C     0.53237   0.12467   0.28724   0.00000  Uiso   1.00
C478   C     0.66522   0.38370   0.15773   0.00000  Uiso   1.00
C479   C     0.73954   0.43367   0.15685   0.00000  Uiso   1.00
C480   C     0.74064   0.48568   0.17518   0.00000  Uiso   1.00
C481   C     0.60853   0.33647   0.08482   0.00000  Uiso   1.00
C482   C     0.63519   0.34675   0.02264   0.00000  Uiso   1.00
C483   C     0.58857   0.35902   0.97957   0.00000  Uiso   1.00
H484   H     0.46495   0.32729   0.18807   0.00000  Uiso   1.00
H485   H     0.39789   0.19133   0.28579   0.00000  Uiso   1.00
H486   H     0.54078   0.43902   0.20889   0.00000  Uiso   1.00
H487   H     0.43644   0.35211   0.07470   0.00000  Uiso   1.00
H488   H     0.35473   0.03976   0.38598   0.00000  Uiso   1.00
H489   H     0.65602   0.56203   0.22382   0.00000  Uiso   1.00
H490   H     0.43601   0.37878   0.94084   0.00000  Uiso   1.00
H491   H     0.70523   0.32082   0.12514   0.00000  Uiso   1.00
H492   H     0.65135   0.18450   0.21941   0.00000  Uiso   1.00
H493   H     0.79424   0.43218   0.14252   0.00000  Uiso   1.00
H494   H     0.68991   0.34528   0.00832   0.00000  Uiso   1.00
H495   H     0.56045   0.03422   0.33210   0.00000  Uiso   1.00
H496   H     0.86175   0.55649   0.16994   0.00000  Uiso   1.00
H497   H     0.64174   0.37324   0.88697   0.00000  Uiso   1.00
O498   O     0.41782   0.94744   0.42220   0.00000  Uiso   1.00
O499   O     0.81311   0.63265   0.20944   0.00000  Uiso   1.00
O500   O     0.52446   0.39222   0.83819   0.00000  Uiso   1.00
N501   N     0.41054   0.05716   0.36035   0.00000  Uiso   1.00
N502   N     0.69222   0.54545   0.20875   0.00000  Uiso   1.00
N503   N     0.48655   0.37414   0.94419   0.00000  Uiso   1.00
N504   N     0.52123   0.05418   0.33136   0.00000  Uiso   1.00
N505   N     0.80292   0.54246   0.17976   0.00000  Uiso   1.00
N506   N     0.59724   0.37116   0.91520   0.00000  Uiso   1.00
C507   C     0.40225   0.82287   0.22565   0.00000  Uiso   1.00
C508   C     0.46322   0.81521   0.26434   0.00000  Uiso   1.00
C509   C     0.50091   0.77234   0.26793   0.00000  Uiso   1.00
C510   C     0.55478   0.77271   0.30594   0.00000  Uiso   1.00
C511   C     0.64706   0.75444   0.36099   0.00000  Uiso   1.00
C512   C     0.32689   0.79951   0.27558   0.00000  Uiso   1.00
C513   C     0.24995   0.74343   0.28860   0.00000  Uiso   1.00
C514   C     0.18905   0.73059   0.33606   0.00000  Uiso   1.00
C515   C     0.06966   0.68797   0.40852   0.00000  Uiso   1.00
C516   C     0.43626   0.90658   0.17893   0.00000  Uiso   1.00
C517   C     0.45126   0.94055   0.11069   0.00000  Uiso   1.00
C518   C     0.48243   0.01786   0.07678   0.00000  Uiso   1.00
C519   C     0.53285   0.14150   0.99919   0.00000  Uiso   1.00
C520   C     0.43090   0.89978   0.28678   0.00000  Uiso   1.00
C521   C     0.47878   0.85699   0.29755   0.00000  Uiso   1.00
C522   C     0.53261   0.85743   0.33556   0.00000  Uiso   1.00
C523   C     0.57037   0.81457   0.33920   0.00000  Uiso   1.00
C524   C     0.34245   0.84128   0.30878   0.00000  Uiso   1.00
C525   C     0.28165   0.82852   0.35623   0.00000  Uiso   1.00
C526   C     0.20464   0.77244   0.36932   0.00000  Uiso   1.00
C527   C     0.45182   0.94836   0.21213   0.00000  Uiso   1.00
C528   C     0.48296   0.02564   0.17833   0.00000  Uiso   1.00
C529   C     0.49801   0.05971   0.11005   0.00000  Uiso   1.00
H530   H     0.39013   0.79034   0.19980   0.00000  Uiso   1.00
H531   H     0.48885   0.74001   0.24223   0.00000  Uiso   1.00
H532   H     0.23792   0.71112   0.26289   0.00000  Uiso   1.00
H533   H     0.43921   0.90820   0.08501   0.00000  Uiso   1.00
H534   H     0.60513   0.70261   0.30393   0.00000  Uiso   1.00
H535   H     0.07605   0.64170   0.34748   0.00000  Uiso   1.00
H536   H     0.50049   0.05729   0.97239   0.00000  Uiso   1.00
H537   H     0.44301   0.93230   0.31264   0.00000  Uiso   1.00
H538   H     0.54464   0.88976   0.36125   0.00000  Uiso   1.00
H539   H     0.29371   0.86087   0.38192   0.00000  Uiso   1.00
H540   H     0.49500   0.05795   0.20404   0.00000  Uiso   1.00
H541   H     0.65041   0.82415   0.40054   0.00000  Uiso   1.00
H542   H     0.12132   0.76324   0.44408   0.00000  Uiso   1.00
H543   H     0.54577   0.17883   0.06900   0.00000  Uiso   1.00
O544   O     0.69365   0.73282   0.38220   0.00000  Uiso   1.00
O545   O     0.99950   0.65292   0.43932   0.00000  Uiso   1.00
O546   O     0.55637   0.19815   0.94721   0.00000  Uiso   1.00
N547   N     0.60185   0.73707   0.31998   0.00000  Uiso   1.00
N548   N     0.10719   0.68011   0.36070   0.00000  Uiso   1.00
N549   N     0.50399   0.06865   0.01003   0.00000  Uiso   1.00
N550   N     0.62622   0.80247   0.37197   0.00000  Uiso   1.00
N551   N     0.13156   0.74551   0.41269   0.00000  Uiso   1.00
N552   N     0.52836   0.13405   0.06201   0.00000  Uiso   1.00
