data_job_03438
_audit_creation_date              2018-12-19
_audit_creation_method            'Materials Studio'
_symmetry_space_group_name_H-M    'P1'
_symmetry_Int_Tables_number       1
_symmetry_cell_setting            triclinic
loop_
_symmetry_equiv_pos_as_xyz
  x,y,z
_cell_length_a                    9.7434
_cell_length_b                    10.4354
_cell_length_c                    20.6524
_cell_angle_alpha                 82.2436
_cell_angle_beta                  94.1479
_cell_angle_gamma                 73.9417
loop_
_atom_site_label
_atom_site_type_symbol
_atom_site_fract_x
_atom_site_fract_y
_atom_site_fract_z
_atom_site_U_iso_or_equiv
_atom_site_adp_type
_atom_site_occupancy
C1     C     0.77660   0.68373   0.27047   0.00000  Uiso   1.00
C2     C     0.67749   0.73410   0.32129   0.00000  Uiso   1.00
C3     C     0.61468   0.86844   0.32644   0.00000  Uiso   1.00
C4     C     0.52742   0.89360   0.37628   0.00000  Uiso   1.00
C5     C     0.37717   0.98787   0.44867   0.00000  Uiso   1.00
C6     C     0.91507   0.58999   0.30944   0.00000  Uiso   1.00
C7     C     0.05202   0.60315   0.30461   0.00000  Uiso   1.00
C8     C     0.16475   0.50698   0.34448   0.00000  Uiso   1.00
C9     C     0.38336   0.37745   0.39843   0.00000  Uiso   1.00
C10    C     0.70758   0.59402   0.23506   0.00000  Uiso   1.00
C11    C     0.67010   0.61054   0.16768   0.00000  Uiso   1.00
C12    C     0.60817   0.51774   0.14492   0.00000  Uiso   1.00
C13    C     0.50461   0.39447   0.08338   0.00000  Uiso   1.00
C14    C     0.73331   0.48954   0.34984   0.00000  Uiso   1.00
C15    C     0.65398   0.62862   0.36441   0.00000  Uiso   1.00
C16    C     0.56679   0.65359   0.41426   0.00000  Uiso   1.00
C17    C     0.50386   0.78794   0.41947   0.00000  Uiso   1.00
C18    C     0.89156   0.48452   0.35256   0.00000  Uiso   1.00
C19    C     0.00412   0.38830   0.39243   0.00000  Uiso   1.00
C20    C     0.14120   0.40131   0.38767   0.00000  Uiso   1.00
C21    C     0.68406   0.48854   0.27817   0.00000  Uiso   1.00
C22    C     0.62219   0.39570   0.25551   0.00000  Uiso   1.00
C23    C     0.58462   0.41208   0.18811   0.00000  Uiso   1.00
H24    H     0.79491   0.76584   0.23690   0.00000  Uiso   1.00
H25    H     0.63292   0.95003   0.29307   0.00000  Uiso   1.00
H26    H     0.07018   0.68477   0.27124   0.00000  Uiso   1.00
H27    H     0.68831   0.69217   0.13434   0.00000  Uiso   1.00
H28    H     0.44299   0.10773   0.37437   0.00000  Uiso   1.00
H29    H     0.36499   0.54839   0.32833   0.00000  Uiso   1.00
H30    H     0.55975   0.56399   0.03964   0.00000  Uiso   1.00
H31    H     0.71501   0.40742   0.38341   0.00000  Uiso   1.00
H32    H     0.54861   0.57195   0.44761   0.00000  Uiso   1.00
H33    H     0.98588   0.30669   0.42579   0.00000  Uiso   1.00
H34    H     0.60401   0.31409   0.28888   0.00000  Uiso   1.00
H35    H     0.37457   0.80086   0.49980   0.00000  Uiso   1.00
H36    H     0.29658   0.24152   0.45376   0.00000  Uiso   1.00
H37    H     0.49133   0.25712   0.16507   0.00000  Uiso   1.00
O38    O     0.30081   0.06900   0.47669   0.00000  Uiso   1.00
O39    O     0.51043   0.33515   0.41628   0.00000  Uiso   1.00
O40    O     0.45397   0.35562   0.03753   0.00000  Uiso   1.00
N41    N     0.44970   0.01293   0.39507   0.00000  Uiso   1.00
N42    N     0.31171   0.48999   0.35204   0.00000  Uiso   1.00
N43    N     0.55891   0.50455   0.08213   0.00000  Uiso   1.00
N44    N     0.41288   0.84781   0.46256   0.00000  Uiso   1.00
N45    N     0.27489   0.32487   0.41953   0.00000  Uiso   1.00
N46    N     0.52209   0.33943   0.14962   0.00000  Uiso   1.00
C47    C     0.22340   0.31627   0.72953   0.00000  Uiso   1.00
C48    C     0.32251   0.26590   0.67871   0.00000  Uiso   1.00
C49    C     0.38532   0.13156   0.67356   0.00000  Uiso   1.00
C50    C     0.47258   0.10640   0.62372   0.00000  Uiso   1.00
C51    C     0.62283   0.01213   0.55133   0.00000  Uiso   1.00
C52    C     0.08493   0.41001   0.69056   0.00000  Uiso   1.00
C53    C     0.94798   0.39685   0.69539   0.00000  Uiso   1.00
C54    C     0.83525   0.49302   0.65552   0.00000  Uiso   1.00
C55    C     0.61664   0.62255   0.60157   0.00000  Uiso   1.00
C56    C     0.29242   0.40598   0.76494   0.00000  Uiso   1.00
C57    C     0.32990   0.38946   0.83232   0.00000  Uiso   1.00
C58    C     0.39183   0.48226   0.85508   0.00000  Uiso   1.00
C59    C     0.49539   0.60553   0.91662   0.00000  Uiso   1.00
C60    C     0.26669   0.51046   0.65016   0.00000  Uiso   1.00
C61    C     0.34602   0.37138   0.63559   0.00000  Uiso   1.00
C62    C     0.43321   0.34641   0.58574   0.00000  Uiso   1.00
C63    C     0.49614   0.21206   0.58053   0.00000  Uiso   1.00
C64    C     0.10844   0.51548   0.64744   0.00000  Uiso   1.00
C65    C     0.99588   0.61170   0.60757   0.00000  Uiso   1.00
C66    C     0.85880   0.59869   0.61233   0.00000  Uiso   1.00
C67    C     0.31594   0.51146   0.72183   0.00000  Uiso   1.00
C68    C     0.37781   0.60430   0.74449   0.00000  Uiso   1.00
C69    C     0.41538   0.58792   0.81189   0.00000  Uiso   1.00
H70    H     0.20509   0.23416   0.76310   0.00000  Uiso   1.00
H71    H     0.36708   0.04997   0.70693   0.00000  Uiso   1.00
H72    H     0.92982   0.31523   0.72876   0.00000  Uiso   1.00
H73    H     0.31169   0.30783   0.86566   0.00000  Uiso   1.00
H74    H     0.55701   0.89227   0.62563   0.00000  Uiso   1.00
H75    H     0.63501   0.45161   0.67167   0.00000  Uiso   1.00
H76    H     0.44025   0.43601   0.96036   0.00000  Uiso   1.00
H77    H     0.28499   0.59258   0.61659   0.00000  Uiso   1.00
H78    H     0.45139   0.42805   0.55239   0.00000  Uiso   1.00
H79    H     0.01412   0.69331   0.57421   0.00000  Uiso   1.00
H80    H     0.39599   0.68591   0.71112   0.00000  Uiso   1.00
H81    H     0.62543   0.19914   0.50020   0.00000  Uiso   1.00
H82    H     0.70342   0.75848   0.54624   0.00000  Uiso   1.00
H83    H     0.50867   0.74288   0.83493   0.00000  Uiso   1.00
O84    O     0.69919   0.93100   0.52331   0.00000  Uiso   1.00
O85    O     0.48957   0.66485   0.58372   0.00000  Uiso   1.00
O86    O     0.54603   0.64438   0.96247   0.00000  Uiso   1.00
N87    N     0.55030   0.98707   0.60493   0.00000  Uiso   1.00
N88    N     0.68829   0.51001   0.64796   0.00000  Uiso   1.00
N89    N     0.44109   0.49545   0.91787   0.00000  Uiso   1.00
N90    N     0.58712   0.15219   0.53744   0.00000  Uiso   1.00
N91    N     0.72511   0.67513   0.58047   0.00000  Uiso   1.00
N92    N     0.47791   0.66057   0.85038   0.00000  Uiso   1.00
