data_job_01423
_audit_creation_date              2018-12-19
_audit_creation_method            'Materials Studio'
_symmetry_space_group_name_H-M    'P1'
_symmetry_Int_Tables_number       1
_symmetry_cell_setting            triclinic
loop_
_symmetry_equiv_pos_as_xyz
  x,y,z
_cell_length_a                    31.3102
_cell_length_b                    10.1447
_cell_length_c                    13.7810
_cell_angle_alpha                 90.0000
_cell_angle_beta                  94.5580
_cell_angle_gamma                 90.0000
loop_
_atom_site_label
_atom_site_type_symbol
_atom_site_fract_x
_atom_site_fract_y
_atom_site_fract_z
_atom_site_U_iso_or_equiv
_atom_site_adp_type
_atom_site_occupancy
C1     C     0.35946   0.38665   0.51236   0.00000  Uiso   1.00
C2     C     0.31817   0.45980   0.52939   0.00000  Uiso   1.00
C3     C     0.28207   0.46720   0.46436   0.00000  Uiso   1.00
C4     C     0.24757   0.53896   0.49356   0.00000  Uiso   1.00
C5     C     0.18322   0.64317   0.50614   0.00000  Uiso   1.00
C6     C     0.39529   0.48844   0.52572   0.00000  Uiso   1.00
C7     C     0.42401   0.51990   0.45761   0.00000  Uiso   1.00
C8     C     0.45443   0.61575   0.48373   0.00000  Uiso   1.00
C9     C     0.50982   0.76435   0.49065   0.00000  Uiso   1.00
C10    C     0.36695   0.29002   0.59676   0.00000  Uiso   1.00
C11    C     0.37187   0.15464   0.58838   0.00000  Uiso   1.00
C12    C     0.37845   0.08344   0.67431   0.00000  Uiso   1.00
C13    C     0.38984   0.92396   0.79152   0.00000  Uiso   1.00
C14    C     0.36241   0.50093   0.67987   0.00000  Uiso   1.00
C15    C     0.31978   0.52188   0.62037   0.00000  Uiso   1.00
C16    C     0.28532   0.59364   0.64969   0.00000  Uiso   1.00
C17    C     0.24917   0.60114   0.58471   0.00000  Uiso   1.00
C18    C     0.39689   0.55052   0.61670   0.00000  Uiso   1.00
C19    C     0.42727   0.64634   0.64294   0.00000  Uiso   1.00
C20    C     0.45603   0.67794   0.57488   0.00000  Uiso   1.00
C21    C     0.36855   0.35209   0.68774   0.00000  Uiso   1.00
C22    C     0.37513   0.28109   0.77371   0.00000  Uiso   1.00
C23    C     0.38005   0.14563   0.76546   0.00000  Uiso   1.00
H24    H     0.35822   0.33832   0.44153   0.00000  Uiso   1.00
H25    H     0.28084   0.41916   0.39395   0.00000  Uiso   1.00
H26    H     0.42277   0.47183   0.38721   0.00000  Uiso   1.00
H27    H     0.37063   0.10664   0.51796   0.00000  Uiso   1.00
H28    H     0.19577   0.53619   0.38131   0.00000  Uiso   1.00
H29    H     0.49503   0.64723   0.36711   0.00000  Uiso   1.00
H30    H     0.38510   0.87715   0.64282   0.00000  Uiso   1.00
H31    H     0.36366   0.54926   0.75070   0.00000  Uiso   1.00
H32    H     0.28657   0.64167   0.72010   0.00000  Uiso   1.00
H33    H     0.42850   0.69435   0.71335   0.00000  Uiso   1.00
H34    H     0.37636   0.32915   0.84410   0.00000  Uiso   1.00
H35    H     0.20042   0.71680   0.64603   0.00000  Uiso   1.00
H36    H     0.49969   0.82783   0.63182   0.00000  Uiso   1.00
H37    H     0.38975   0.05775   0.90753   0.00000  Uiso   1.00
O38    O     0.14729   0.68351   0.48794   0.00000  Uiso   1.00
O39    O     0.53992   0.82917   0.46932   0.00000  Uiso   1.00
O40    O     0.39568   0.81884   0.83104   0.00000  Uiso   1.00
N41    N     0.20744   0.56599   0.44782   0.00000  Uiso   1.00
N42    N     0.48723   0.66982   0.43454   0.00000  Uiso   1.00
N43    N     0.38446   0.94986   0.69230   0.00000  Uiso   1.00
N44    N     0.20994   0.66317   0.59026   0.00000  Uiso   1.00
N45    N     0.48973   0.76701   0.57698   0.00000  Uiso   1.00
N46    N     0.38696   0.04704   0.83474   0.00000  Uiso   1.00
C47    C     0.85946   0.88665   0.51236   0.00000  Uiso   1.00
C48    C     0.81817   0.95980   0.52939   0.00000  Uiso   1.00
C49    C     0.78207   0.96720   0.46436   0.00000  Uiso   1.00
C50    C     0.74757   0.03896   0.49356   0.00000  Uiso   1.00
C51    C     0.68322   0.14317   0.50614   0.00000  Uiso   1.00
C52    C     0.89529   0.98844   0.52572   0.00000  Uiso   1.00
C53    C     0.92401   0.01990   0.45761   0.00000  Uiso   1.00
C54    C     0.95443   0.11575   0.48373   0.00000  Uiso   1.00
C55    C     0.00982   0.26435   0.49065   0.00000  Uiso   1.00
C56    C     0.86695   0.79002   0.59676   0.00000  Uiso   1.00
C57    C     0.87187   0.65464   0.58838   0.00000  Uiso   1.00
C58    C     0.87845   0.58344   0.67431   0.00000  Uiso   1.00
C59    C     0.88984   0.42396   0.79152   0.00000  Uiso   1.00
C60    C     0.86241   0.00093   0.67987   0.00000  Uiso   1.00
C61    C     0.81978   0.02188   0.62037   0.00000  Uiso   1.00
C62    C     0.78532   0.09364   0.64969   0.00000  Uiso   1.00
C63    C     0.74917   0.10114   0.58471   0.00000  Uiso   1.00
C64    C     0.89689   0.05052   0.61670   0.00000  Uiso   1.00
C65    C     0.92727   0.14634   0.64294   0.00000  Uiso   1.00
C66    C     0.95603   0.17794   0.57488   0.00000  Uiso   1.00
C67    C     0.86855   0.85209   0.68774   0.00000  Uiso   1.00
C68    C     0.87513   0.78109   0.77371   0.00000  Uiso   1.00
C69    C     0.88005   0.64563   0.76546   0.00000  Uiso   1.00
H70    H     0.85822   0.83832   0.44153   0.00000  Uiso   1.00
H71    H     0.78084   0.91916   0.39395   0.00000  Uiso   1.00
H72    H     0.92277   0.97183   0.38721   0.00000  Uiso   1.00
H73    H     0.87063   0.60664   0.51796   0.00000  Uiso   1.00
H74    H     0.69577   0.03619   0.38131   0.00000  Uiso   1.00
H75    H     0.99503   0.14723   0.36711   0.00000  Uiso   1.00
H76    H     0.88510   0.37715   0.64282   0.00000  Uiso   1.00
H77    H     0.86366   0.04926   0.75070   0.00000  Uiso   1.00
H78    H     0.78657   0.14167   0.72010   0.00000  Uiso   1.00
H79    H     0.92850   0.19435   0.71335   0.00000  Uiso   1.00
H80    H     0.87636   0.82915   0.84410   0.00000  Uiso   1.00
H81    H     0.70042   0.21680   0.64603   0.00000  Uiso   1.00
H82    H     0.99969   0.32783   0.63182   0.00000  Uiso   1.00
H83    H     0.88975   0.55775   0.90753   0.00000  Uiso   1.00
O84    O     0.64729   0.18351   0.48794   0.00000  Uiso   1.00
O85    O     0.03992   0.32917   0.46932   0.00000  Uiso   1.00
O86    O     0.89568   0.31884   0.83104   0.00000  Uiso   1.00
N87    N     0.70744   0.06599   0.44782   0.00000  Uiso   1.00
N88    N     0.98723   0.16982   0.43454   0.00000  Uiso   1.00
N89    N     0.88446   0.44986   0.69230   0.00000  Uiso   1.00
N90    N     0.70994   0.16317   0.59026   0.00000  Uiso   1.00
N91    N     0.98973   0.26701   0.57698   0.00000  Uiso   1.00
N92    N     0.88696   0.54704   0.83474   0.00000  Uiso   1.00
C93    C     0.64054   0.38665   0.98764   0.00000  Uiso   1.00
C94    C     0.68183   0.45980   0.97061   0.00000  Uiso   1.00
C95    C     0.71793   0.46720   0.03564   0.00000  Uiso   1.00
C96    C     0.75243   0.53896   0.00644   0.00000  Uiso   1.00
C97    C     0.81678   0.64317   0.99386   0.00000  Uiso   1.00
C98    C     0.60471   0.48844   0.97428   0.00000  Uiso   1.00
C99    C     0.57599   0.51990   0.04239   0.00000  Uiso   1.00
C100   C     0.54557   0.61575   0.01627   0.00000  Uiso   1.00
C101   C     0.49018   0.76435   0.00935   0.00000  Uiso   1.00
C102   C     0.63305   0.29002   0.90324   0.00000  Uiso   1.00
C103   C     0.62813   0.15464   0.91162   0.00000  Uiso   1.00
C104   C     0.62155   0.08344   0.82569   0.00000  Uiso   1.00
C105   C     0.61016   0.92396   0.70848   0.00000  Uiso   1.00
C106   C     0.63759   0.50093   0.82013   0.00000  Uiso   1.00
C107   C     0.68022   0.52188   0.87963   0.00000  Uiso   1.00
C108   C     0.71468   0.59364   0.85031   0.00000  Uiso   1.00
C109   C     0.75083   0.60114   0.91529   0.00000  Uiso   1.00
C110   C     0.60311   0.55052   0.88330   0.00000  Uiso   1.00
C111   C     0.57273   0.64634   0.85706   0.00000  Uiso   1.00
C112   C     0.54397   0.67794   0.92512   0.00000  Uiso   1.00
C113   C     0.63145   0.35209   0.81226   0.00000  Uiso   1.00
C114   C     0.62487   0.28109   0.72629   0.00000  Uiso   1.00
C115   C     0.61995   0.14563   0.73454   0.00000  Uiso   1.00
H116   H     0.64178   0.33832   0.05847   0.00000  Uiso   1.00
H117   H     0.71916   0.41916   0.10605   0.00000  Uiso   1.00
H118   H     0.57723   0.47183   0.11279   0.00000  Uiso   1.00
H119   H     0.62937   0.10664   0.98204   0.00000  Uiso   1.00
H120   H     0.80423   0.53619   0.11869   0.00000  Uiso   1.00
H121   H     0.50497   0.64723   0.13289   0.00000  Uiso   1.00
H122   H     0.61490   0.87715   0.85718   0.00000  Uiso   1.00
H123   H     0.63634   0.54926   0.74930   0.00000  Uiso   1.00
H124   H     0.71343   0.64167   0.77990   0.00000  Uiso   1.00
H125   H     0.57150   0.69435   0.78665   0.00000  Uiso   1.00
H126   H     0.62364   0.32915   0.65590   0.00000  Uiso   1.00
H127   H     0.79958   0.71680   0.85397   0.00000  Uiso   1.00
H128   H     0.50031   0.82783   0.86818   0.00000  Uiso   1.00
H129   H     0.61025   0.05775   0.59247   0.00000  Uiso   1.00
O130   O     0.85271   0.68351   0.01206   0.00000  Uiso   1.00
O131   O     0.46008   0.82917   0.03068   0.00000  Uiso   1.00
O132   O     0.60432   0.81884   0.66896   0.00000  Uiso   1.00
N133   N     0.79256   0.56599   0.05218   0.00000  Uiso   1.00
N134   N     0.51277   0.66982   0.06546   0.00000  Uiso   1.00
N135   N     0.61554   0.94986   0.80770   0.00000  Uiso   1.00
N136   N     0.79006   0.66317   0.90974   0.00000  Uiso   1.00
N137   N     0.51027   0.76701   0.92302   0.00000  Uiso   1.00
N138   N     0.61304   0.04704   0.66526   0.00000  Uiso   1.00
C139   C     0.14054   0.88665   0.98764   0.00000  Uiso   1.00
C140   C     0.18183   0.95980   0.97061   0.00000  Uiso   1.00
C141   C     0.21793   0.96720   0.03564   0.00000  Uiso   1.00
C142   C     0.25243   0.03896   0.00644   0.00000  Uiso   1.00
C143   C     0.31678   0.14317   0.99386   0.00000  Uiso   1.00
C144   C     0.10471   0.98844   0.97428   0.00000  Uiso   1.00
C145   C     0.07599   0.01990   0.04239   0.00000  Uiso   1.00
C146   C     0.04557   0.11575   0.01627   0.00000  Uiso   1.00
C147   C     0.99018   0.26435   0.00935   0.00000  Uiso   1.00
C148   C     0.13305   0.79002   0.90324   0.00000  Uiso   1.00
C149   C     0.12813   0.65464   0.91162   0.00000  Uiso   1.00
C150   C     0.12155   0.58344   0.82569   0.00000  Uiso   1.00
C151   C     0.11016   0.42396   0.70848   0.00000  Uiso   1.00
C152   C     0.13759   0.00093   0.82013   0.00000  Uiso   1.00
C153   C     0.18022   0.02188   0.87963   0.00000  Uiso   1.00
C154   C     0.21468   0.09364   0.85031   0.00000  Uiso   1.00
C155   C     0.25083   0.10114   0.91529   0.00000  Uiso   1.00
C156   C     0.10311   0.05052   0.88330   0.00000  Uiso   1.00
C157   C     0.07273   0.14634   0.85706   0.00000  Uiso   1.00
C158   C     0.04397   0.17794   0.92512   0.00000  Uiso   1.00
C159   C     0.13145   0.85209   0.81226   0.00000  Uiso   1.00
C160   C     0.12487   0.78109   0.72629   0.00000  Uiso   1.00
C161   C     0.11995   0.64563   0.73454   0.00000  Uiso   1.00
H162   H     0.14178   0.83832   0.05847   0.00000  Uiso   1.00
H163   H     0.21916   0.91916   0.10605   0.00000  Uiso   1.00
H164   H     0.07723   0.97183   0.11279   0.00000  Uiso   1.00
H165   H     0.12937   0.60664   0.98204   0.00000  Uiso   1.00
H166   H     0.30423   0.03619   0.11869   0.00000  Uiso   1.00
H167   H     0.00497   0.14723   0.13289   0.00000  Uiso   1.00
H168   H     0.11490   0.37715   0.85718   0.00000  Uiso   1.00
H169   H     0.13634   0.04926   0.74930   0.00000  Uiso   1.00
H170   H     0.21343   0.14167   0.77990   0.00000  Uiso   1.00
H171   H     0.07150   0.19435   0.78665   0.00000  Uiso   1.00
H172   H     0.12364   0.82915   0.65590   0.00000  Uiso   1.00
H173   H     0.29958   0.21680   0.85397   0.00000  Uiso   1.00
H174   H     0.00031   0.32783   0.86818   0.00000  Uiso   1.00
H175   H     0.11025   0.55775   0.59247   0.00000  Uiso   1.00
O176   O     0.35271   0.18351   0.01206   0.00000  Uiso   1.00
O177   O     0.96008   0.32917   0.03068   0.00000  Uiso   1.00
O178   O     0.10432   0.31884   0.66896   0.00000  Uiso   1.00
N179   N     0.29256   0.06599   0.05218   0.00000  Uiso   1.00
N180   N     0.01277   0.16982   0.06546   0.00000  Uiso   1.00
N181   N     0.11554   0.44986   0.80770   0.00000  Uiso   1.00
N182   N     0.29006   0.16317   0.90974   0.00000  Uiso   1.00
N183   N     0.01027   0.26701   0.92302   0.00000  Uiso   1.00
N184   N     0.11304   0.54704   0.66526   0.00000  Uiso   1.00
C185   C     0.64054   0.61335   0.48764   0.00000  Uiso   1.00
C186   C     0.68183   0.54020   0.47061   0.00000  Uiso   1.00
C187   C     0.71793   0.53280   0.53564   0.00000  Uiso   1.00
C188   C     0.75243   0.46104   0.50644   0.00000  Uiso   1.00
C189   C     0.81678   0.35683   0.49386   0.00000  Uiso   1.00
C190   C     0.60471   0.51156   0.47428   0.00000  Uiso   1.00
C191   C     0.57599   0.48010   0.54239   0.00000  Uiso   1.00
C192   C     0.54557   0.38425   0.51627   0.00000  Uiso   1.00
C193   C     0.49018   0.23565   0.50935   0.00000  Uiso   1.00
C194   C     0.63305   0.70998   0.40324   0.00000  Uiso   1.00
C195   C     0.62813   0.84536   0.41162   0.00000  Uiso   1.00
C196   C     0.62155   0.91656   0.32569   0.00000  Uiso   1.00
C197   C     0.61016   0.07604   0.20848   0.00000  Uiso   1.00
C198   C     0.63759   0.49907   0.32013   0.00000  Uiso   1.00
C199   C     0.68022   0.47812   0.37963   0.00000  Uiso   1.00
C200   C     0.71468   0.40636   0.35031   0.00000  Uiso   1.00
C201   C     0.75083   0.39886   0.41529   0.00000  Uiso   1.00
C202   C     0.60311   0.44948   0.38330   0.00000  Uiso   1.00
C203   C     0.57273   0.35366   0.35706   0.00000  Uiso   1.00
C204   C     0.54397   0.32206   0.42512   0.00000  Uiso   1.00
C205   C     0.63145   0.64791   0.31226   0.00000  Uiso   1.00
C206   C     0.62487   0.71891   0.22629   0.00000  Uiso   1.00
C207   C     0.61995   0.85437   0.23454   0.00000  Uiso   1.00
H208   H     0.64178   0.66168   0.55847   0.00000  Uiso   1.00
H209   H     0.71916   0.58084   0.60605   0.00000  Uiso   1.00
H210   H     0.57723   0.52817   0.61279   0.00000  Uiso   1.00
H211   H     0.62937   0.89336   0.48204   0.00000  Uiso   1.00
H212   H     0.80423   0.46381   0.61869   0.00000  Uiso   1.00
H213   H     0.50497   0.35277   0.63289   0.00000  Uiso   1.00
H214   H     0.61490   0.12285   0.35718   0.00000  Uiso   1.00
H215   H     0.63634   0.45074   0.24930   0.00000  Uiso   1.00
H216   H     0.71343   0.35833   0.27990   0.00000  Uiso   1.00
H217   H     0.57150   0.30565   0.28665   0.00000  Uiso   1.00
H218   H     0.62364   0.67085   0.15590   0.00000  Uiso   1.00
H219   H     0.79958   0.28320   0.35397   0.00000  Uiso   1.00
H220   H     0.50031   0.17217   0.36818   0.00000  Uiso   1.00
H221   H     0.61025   0.94225   0.09247   0.00000  Uiso   1.00
O222   O     0.85271   0.31649   0.51206   0.00000  Uiso   1.00
O223   O     0.46008   0.17083   0.53068   0.00000  Uiso   1.00
O224   O     0.60432   0.18116   0.16896   0.00000  Uiso   1.00
N225   N     0.79256   0.43401   0.55218   0.00000  Uiso   1.00
N226   N     0.51277   0.33018   0.56546   0.00000  Uiso   1.00
N227   N     0.61554   0.05014   0.30770   0.00000  Uiso   1.00
N228   N     0.79006   0.33683   0.40974   0.00000  Uiso   1.00
N229   N     0.51027   0.23299   0.42302   0.00000  Uiso   1.00
N230   N     0.61304   0.95296   0.16526   0.00000  Uiso   1.00
C231   C     0.14054   0.11335   0.48764   0.00000  Uiso   1.00
C232   C     0.18183   0.04020   0.47061   0.00000  Uiso   1.00
C233   C     0.21793   0.03280   0.53564   0.00000  Uiso   1.00
C234   C     0.25243   0.96104   0.50644   0.00000  Uiso   1.00
C235   C     0.31678   0.85683   0.49386   0.00000  Uiso   1.00
C236   C     0.10471   0.01156   0.47428   0.00000  Uiso   1.00
C237   C     0.07599   0.98010   0.54239   0.00000  Uiso   1.00
C238   C     0.04557   0.88425   0.51627   0.00000  Uiso   1.00
C239   C     0.99018   0.73565   0.50935   0.00000  Uiso   1.00
C240   C     0.13305   0.20998   0.40324   0.00000  Uiso   1.00
C241   C     0.12813   0.34536   0.41162   0.00000  Uiso   1.00
C242   C     0.12155   0.41656   0.32569   0.00000  Uiso   1.00
C243   C     0.11016   0.57604   0.20848   0.00000  Uiso   1.00
C244   C     0.13759   0.99907   0.32013   0.00000  Uiso   1.00
C245   C     0.18022   0.97812   0.37963   0.00000  Uiso   1.00
C246   C     0.21468   0.90636   0.35031   0.00000  Uiso   1.00
C247   C     0.25083   0.89886   0.41529   0.00000  Uiso   1.00
C248   C     0.10311   0.94948   0.38330   0.00000  Uiso   1.00
C249   C     0.07273   0.85366   0.35706   0.00000  Uiso   1.00
C250   C     0.04397   0.82206   0.42512   0.00000  Uiso   1.00
C251   C     0.13145   0.14791   0.31226   0.00000  Uiso   1.00
C252   C     0.12487   0.21891   0.22629   0.00000  Uiso   1.00
C253   C     0.11995   0.35437   0.23454   0.00000  Uiso   1.00
H254   H     0.14178   0.16168   0.55847   0.00000  Uiso   1.00
H255   H     0.21916   0.08084   0.60605   0.00000  Uiso   1.00
H256   H     0.07723   0.02817   0.61279   0.00000  Uiso   1.00
H257   H     0.12937   0.39336   0.48204   0.00000  Uiso   1.00
H258   H     0.30423   0.96381   0.61869   0.00000  Uiso   1.00
H259   H     0.00497   0.85277   0.63289   0.00000  Uiso   1.00
H260   H     0.11490   0.62285   0.35718   0.00000  Uiso   1.00
H261   H     0.13634   0.95074   0.24930   0.00000  Uiso   1.00
H262   H     0.21343   0.85833   0.27990   0.00000  Uiso   1.00
H263   H     0.07150   0.80565   0.28665   0.00000  Uiso   1.00
H264   H     0.12364   0.17085   0.15590   0.00000  Uiso   1.00
H265   H     0.29958   0.78320   0.35397   0.00000  Uiso   1.00
H266   H     0.00031   0.67217   0.36818   0.00000  Uiso   1.00
H267   H     0.11025   0.44225   0.09247   0.00000  Uiso   1.00
O268   O     0.35271   0.81649   0.51206   0.00000  Uiso   1.00
O269   O     0.96008   0.67083   0.53068   0.00000  Uiso   1.00
O270   O     0.10432   0.68116   0.16896   0.00000  Uiso   1.00
N271   N     0.29256   0.93401   0.55218   0.00000  Uiso   1.00
N272   N     0.01277   0.83018   0.56546   0.00000  Uiso   1.00
N273   N     0.11554   0.55014   0.30770   0.00000  Uiso   1.00
N274   N     0.29006   0.83683   0.40974   0.00000  Uiso   1.00
N275   N     0.01027   0.73299   0.42302   0.00000  Uiso   1.00
N276   N     0.11304   0.45296   0.16526   0.00000  Uiso   1.00
C277   C     0.35946   0.61335   0.01236   0.00000  Uiso   1.00
C278   C     0.31817   0.54020   0.02939   0.00000  Uiso   1.00
C279   C     0.28207   0.53280   0.96436   0.00000  Uiso   1.00
C280   C     0.24757   0.46104   0.99356   0.00000  Uiso   1.00
C281   C     0.18322   0.35683   0.00614   0.00000  Uiso   1.00
C282   C     0.39529   0.51156   0.02572   0.00000  Uiso   1.00
C283   C     0.42401   0.48010   0.95761   0.00000  Uiso   1.00
C284   C     0.45443   0.38425   0.98373   0.00000  Uiso   1.00
C285   C     0.50982   0.23565   0.99065   0.00000  Uiso   1.00
C286   C     0.36695   0.70998   0.09676   0.00000  Uiso   1.00
C287   C     0.37187   0.84536   0.08838   0.00000  Uiso   1.00
C288   C     0.37845   0.91656   0.17431   0.00000  Uiso   1.00
C289   C     0.38984   0.07604   0.29152   0.00000  Uiso   1.00
C290   C     0.36241   0.49907   0.17987   0.00000  Uiso   1.00
C291   C     0.31978   0.47812   0.12037   0.00000  Uiso   1.00
C292   C     0.28532   0.40636   0.14969   0.00000  Uiso   1.00
C293   C     0.24917   0.39886   0.08471   0.00000  Uiso   1.00
C294   C     0.39689   0.44948   0.11670   0.00000  Uiso   1.00
C295   C     0.42727   0.35366   0.14294   0.00000  Uiso   1.00
C296   C     0.45603   0.32206   0.07488   0.00000  Uiso   1.00
C297   C     0.36855   0.64791   0.18774   0.00000  Uiso   1.00
C298   C     0.37513   0.71891   0.27371   0.00000  Uiso   1.00
C299   C     0.38005   0.85437   0.26546   0.00000  Uiso   1.00
H300   H     0.35822   0.66168   0.94153   0.00000  Uiso   1.00
H301   H     0.28084   0.58084   0.89395   0.00000  Uiso   1.00
H302   H     0.42277   0.52817   0.88721   0.00000  Uiso   1.00
H303   H     0.37063   0.89336   0.01796   0.00000  Uiso   1.00
H304   H     0.19577   0.46381   0.88131   0.00000  Uiso   1.00
H305   H     0.49503   0.35277   0.86711   0.00000  Uiso   1.00
H306   H     0.38510   0.12285   0.14282   0.00000  Uiso   1.00
H307   H     0.36366   0.45074   0.25070   0.00000  Uiso   1.00
H308   H     0.28657   0.35833   0.22010   0.00000  Uiso   1.00
H309   H     0.42850   0.30565   0.21335   0.00000  Uiso   1.00
H310   H     0.37636   0.67085   0.34410   0.00000  Uiso   1.00
H311   H     0.20042   0.28320   0.14603   0.00000  Uiso   1.00
H312   H     0.49969   0.17217   0.13182   0.00000  Uiso   1.00
H313   H     0.38975   0.94225   0.40753   0.00000  Uiso   1.00
O314   O     0.14729   0.31649   0.98794   0.00000  Uiso   1.00
O315   O     0.53992   0.17083   0.96932   0.00000  Uiso   1.00
O316   O     0.39568   0.18116   0.33104   0.00000  Uiso   1.00
N317   N     0.20744   0.43401   0.94782   0.00000  Uiso   1.00
N318   N     0.48723   0.33018   0.93454   0.00000  Uiso   1.00
N319   N     0.38446   0.05014   0.19230   0.00000  Uiso   1.00
N320   N     0.20994   0.33683   0.09026   0.00000  Uiso   1.00
N321   N     0.48973   0.23299   0.07698   0.00000  Uiso   1.00
N322   N     0.38696   0.95296   0.33474   0.00000  Uiso   1.00
C323   C     0.85946   0.11335   0.01236   0.00000  Uiso   1.00
C324   C     0.81817   0.04020   0.02939   0.00000  Uiso   1.00
C325   C     0.78207   0.03280   0.96436   0.00000  Uiso   1.00
C326   C     0.74757   0.96104   0.99356   0.00000  Uiso   1.00
C327   C     0.68322   0.85683   0.00614   0.00000  Uiso   1.00
C328   C     0.89529   0.01156   0.02572   0.00000  Uiso   1.00
C329   C     0.92401   0.98010   0.95761   0.00000  Uiso   1.00
C330   C     0.95443   0.88425   0.98373   0.00000  Uiso   1.00
C331   C     0.00982   0.73565   0.99065   0.00000  Uiso   1.00
C332   C     0.86695   0.20998   0.09676   0.00000  Uiso   1.00
C333   C     0.87187   0.34536   0.08838   0.00000  Uiso   1.00
C334   C     0.87845   0.41656   0.17431   0.00000  Uiso   1.00
C335   C     0.88984   0.57604   0.29152   0.00000  Uiso   1.00
C336   C     0.86241   0.99907   0.17987   0.00000  Uiso   1.00
C337   C     0.81978   0.97812   0.12037   0.00000  Uiso   1.00
C338   C     0.78532   0.90636   0.14969   0.00000  Uiso   1.00
C339   C     0.74917   0.89886   0.08471   0.00000  Uiso   1.00
C340   C     0.89689   0.94948   0.11670   0.00000  Uiso   1.00
C341   C     0.92727   0.85366   0.14294   0.00000  Uiso   1.00
C342   C     0.95603   0.82206   0.07488   0.00000  Uiso   1.00
C343   C     0.86855   0.14791   0.18774   0.00000  Uiso   1.00
C344   C     0.87513   0.21891   0.27371   0.00000  Uiso   1.00
C345   C     0.88005   0.35437   0.26546   0.00000  Uiso   1.00
H346   H     0.85822   0.16168   0.94153   0.00000  Uiso   1.00
H347   H     0.78084   0.08084   0.89395   0.00000  Uiso   1.00
H348   H     0.92277   0.02817   0.88721   0.00000  Uiso   1.00
H349   H     0.87063   0.39336   0.01796   0.00000  Uiso   1.00
H350   H     0.69577   0.96381   0.88131   0.00000  Uiso   1.00
H351   H     0.99503   0.85277   0.86711   0.00000  Uiso   1.00
H352   H     0.88510   0.62285   0.14282   0.00000  Uiso   1.00
H353   H     0.86366   0.95074   0.25070   0.00000  Uiso   1.00
H354   H     0.78657   0.85833   0.22010   0.00000  Uiso   1.00
H355   H     0.92850   0.80565   0.21335   0.00000  Uiso   1.00
H356   H     0.87636   0.17085   0.34410   0.00000  Uiso   1.00
H357   H     0.70042   0.78320   0.14603   0.00000  Uiso   1.00
H358   H     0.99969   0.67217   0.13182   0.00000  Uiso   1.00
H359   H     0.88975   0.44225   0.40753   0.00000  Uiso   1.00
O360   O     0.64729   0.81649   0.98794   0.00000  Uiso   1.00
O361   O     0.03992   0.67083   0.96932   0.00000  Uiso   1.00
O362   O     0.89568   0.68116   0.33104   0.00000  Uiso   1.00
N363   N     0.70744   0.93401   0.94782   0.00000  Uiso   1.00
N364   N     0.98723   0.83018   0.93454   0.00000  Uiso   1.00
N365   N     0.88446   0.55014   0.19230   0.00000  Uiso   1.00
N366   N     0.70994   0.83683   0.09026   0.00000  Uiso   1.00
N367   N     0.98973   0.73299   0.07698   0.00000  Uiso   1.00
N368   N     0.88696   0.45296   0.33474   0.00000  Uiso   1.00
