data_job_04165
_audit_creation_date              2018-12-19
_audit_creation_method            'Materials Studio'
_symmetry_space_group_name_H-M    'P1'
_symmetry_Int_Tables_number       1
_symmetry_cell_setting            triclinic
loop_
_symmetry_equiv_pos_as_xyz
  x,y,z
_cell_length_a                    9.0515
_cell_length_b                    10.3137
_cell_length_c                    14.8146
_cell_angle_alpha                 86.3227
_cell_angle_beta                  104.4042
_cell_angle_gamma                 79.3660
loop_
_atom_site_label
_atom_site_type_symbol
_atom_site_fract_x
_atom_site_fract_y
_atom_site_fract_z
_atom_site_U_iso_or_equiv
_atom_site_adp_type
_atom_site_occupancy
C1     C     0.20846   0.57503   0.73477   0.00000  Uiso   1.00
C2     C     0.25840   0.65418   0.81644   0.00000  Uiso   1.00
C3     C     0.41100   0.65598   0.86347   0.00000  Uiso   1.00
C4     C     0.43231   0.73474   0.93629   0.00000  Uiso   1.00
C5     C     0.52915   0.84630   0.05936   0.00000  Uiso   1.00
C6     C     0.10511   0.48878   0.76468   0.00000  Uiso   1.00
C7     C     0.12883   0.35150   0.76817   0.00000  Uiso   1.00
C8     C     0.02108   0.29102   0.79741   0.00000  Uiso   1.00
C9     C     0.87989   0.14579   0.84004   0.00000  Uiso   1.00
C10    C     0.10183   0.67578   0.65452   0.00000  Uiso   1.00
C11    C     0.12275   0.69573   0.56538   0.00000  Uiso   1.00
C12    C     0.01222   0.79268   0.50187   0.00000  Uiso   1.00
C13    C     0.86593   0.93780   0.37347   0.00000  Uiso   1.00
C14    C     0.97494   0.71171   0.78047   0.00000  Uiso   1.00
C15    C     0.13156   0.72842   0.84126   0.00000  Uiso   1.00
C16    C     0.15264   0.80720   0.91403   0.00000  Uiso   1.00
C17    C     0.30525   0.80911   0.96116   0.00000  Uiso   1.00
C18    C     0.97828   0.56301   0.78950   0.00000  Uiso   1.00
C19    C     0.87047   0.50272   0.81873   0.00000  Uiso   1.00
C20    C     0.89402   0.36539   0.82228   0.00000  Uiso   1.00
C21    C     0.97500   0.75002   0.67934   0.00000  Uiso   1.00
C22    C     0.86440   0.84695   0.61595   0.00000  Uiso   1.00
C23    C     0.88516   0.86704   0.52673   0.00000  Uiso   1.00
H24    H     0.30720   0.51723   0.71545   0.00000  Uiso   1.00
H25    H     0.50913   0.59851   0.84425   0.00000  Uiso   1.00
H26    H     0.22698   0.29408   0.74895   0.00000  Uiso   1.00
H27    H     0.22092   0.63826   0.54620   0.00000  Uiso   1.00
H28    H     0.67706   0.72132   0.99801   0.00000  Uiso   1.00
H29    H     0.08212   0.07943   0.79705   0.00000  Uiso   1.00
H30    H     0.06933   0.80519   0.36950   0.00000  Uiso   1.00
H31    H     0.87619   0.76950   0.79980   0.00000  Uiso   1.00
H32    H     0.05447   0.86464   0.93322   0.00000  Uiso   1.00
H33    H     0.77233   0.56020   0.83793   0.00000  Uiso   1.00
H34    H     0.76627   0.90438   0.63518   0.00000  Uiso   1.00
H35    H     0.30805   0.93731   0.07023   0.00000  Uiso   1.00
H36    H     0.71310   0.29541   0.86926   0.00000  Uiso   1.00
H37    H     0.70032   0.02118   0.44172   0.00000  Uiso   1.00
O38    O     0.61761   0.88731   0.12039   0.00000  Uiso   1.00
O39    O     0.83706   0.04517   0.85671   0.00000  Uiso   1.00
O40    O     0.82029   0.99736   0.29579   0.00000  Uiso   1.00
N41    N     0.56575   0.75912   0.99668   0.00000  Uiso   1.00
N42    N     0.00953   0.15898   0.80881   0.00000  Uiso   1.00
N43    N     0.99755   0.83749   0.40908   0.00000  Uiso   1.00
N44    N     0.36718   0.87535   0.03554   0.00000  Uiso   1.00
N45    N     0.81097   0.27521   0.84767   0.00000  Uiso   1.00
N46    N     0.79899   0.95371   0.44794   0.00000  Uiso   1.00
C47    C     0.79154   0.42497   0.26523   0.00000  Uiso   1.00
C48    C     0.74160   0.34582   0.18356   0.00000  Uiso   1.00
C49    C     0.58900   0.34402   0.13653   0.00000  Uiso   1.00
C50    C     0.56769   0.26526   0.06371   0.00000  Uiso   1.00
C51    C     0.47085   0.15370   0.94064   0.00000  Uiso   1.00
C52    C     0.89489   0.51122   0.23532   0.00000  Uiso   1.00
C53    C     0.87117   0.64850   0.23183   0.00000  Uiso   1.00
C54    C     0.97892   0.70898   0.20259   0.00000  Uiso   1.00
C55    C     0.12011   0.85421   0.15996   0.00000  Uiso   1.00
C56    C     0.89817   0.32422   0.34548   0.00000  Uiso   1.00
C57    C     0.87725   0.30427   0.43462   0.00000  Uiso   1.00
C58    C     0.98778   0.20732   0.49813   0.00000  Uiso   1.00
C59    C     0.13407   0.06220   0.62653   0.00000  Uiso   1.00
C60    C     0.02506   0.28829   0.21953   0.00000  Uiso   1.00
C61    C     0.86844   0.27158   0.15874   0.00000  Uiso   1.00
C62    C     0.84736   0.19280   0.08597   0.00000  Uiso   1.00
C63    C     0.69475   0.19089   0.03884   0.00000  Uiso   1.00
C64    C     0.02172   0.43699   0.21050   0.00000  Uiso   1.00
C65    C     0.12953   0.49728   0.18127   0.00000  Uiso   1.00
C66    C     0.10598   0.63461   0.17772   0.00000  Uiso   1.00
C67    C     0.02500   0.24998   0.32066   0.00000  Uiso   1.00
C68    C     0.13560   0.15305   0.38405   0.00000  Uiso   1.00
C69    C     0.11484   0.13296   0.47327   0.00000  Uiso   1.00
H70    H     0.69280   0.48277   0.28455   0.00000  Uiso   1.00
H71    H     0.49087   0.40149   0.15575   0.00000  Uiso   1.00
H72    H     0.77302   0.70592   0.25105   0.00000  Uiso   1.00
H73    H     0.77908   0.36174   0.45380   0.00000  Uiso   1.00
H74    H     0.32294   0.27868   0.00199   0.00000  Uiso   1.00
H75    H     0.91788   0.92057   0.20295   0.00000  Uiso   1.00
H76    H     0.93067   0.19481   0.63050   0.00000  Uiso   1.00
H77    H     0.12381   0.23050   0.20020   0.00000  Uiso   1.00
H78    H     0.94553   0.13536   0.06678   0.00000  Uiso   1.00
H79    H     0.22767   0.43980   0.16207   0.00000  Uiso   1.00
H80    H     0.23373   0.09562   0.36482   0.00000  Uiso   1.00
H81    H     0.69195   0.06269   0.92977   0.00000  Uiso   1.00
H82    H     0.28690   0.70459   0.13074   0.00000  Uiso   1.00
H83    H     0.29968   0.97882   0.55828   0.00000  Uiso   1.00
O84    O     0.38239   0.11269   0.87961   0.00000  Uiso   1.00
O85    O     0.16294   0.95483   0.14329   0.00000  Uiso   1.00
O86    O     0.17971   0.00264   0.70421   0.00000  Uiso   1.00
N87    N     0.43425   0.24088   0.00332   0.00000  Uiso   1.00
N88    N     0.99047   0.84102   0.19119   0.00000  Uiso   1.00
N89    N     0.00245   0.16251   0.59092   0.00000  Uiso   1.00
N90    N     0.63282   0.12465   0.96446   0.00000  Uiso   1.00
N91    N     0.18903   0.72479   0.15233   0.00000  Uiso   1.00
N92    N     0.20101   0.04629   0.55206   0.00000  Uiso   1.00
