data_job_06728
_audit_creation_date              2018-12-19
_audit_creation_method            'Materials Studio'
_symmetry_space_group_name_H-M    'P1'
_symmetry_Int_Tables_number       1
_symmetry_cell_setting            triclinic
loop_
_symmetry_equiv_pos_as_xyz
  x,y,z
_cell_length_a                    20.2534
_cell_length_b                    21.2882
_cell_length_c                    21.4206
_cell_angle_alpha                 88.0827
_cell_angle_beta                  69.2518
_cell_angle_gamma                 112.5331
loop_
_atom_site_label
_atom_site_type_symbol
_atom_site_fract_x
_atom_site_fract_y
_atom_site_fract_z
_atom_site_U_iso_or_equiv
_atom_site_adp_type
_atom_site_occupancy
C1     C     0.65809   0.63102   0.26028   0.00000  Uiso   1.00
C2     C     0.65884   0.61831   0.33046   0.00000  Uiso   1.00
C3     C     0.59508   0.57641   0.38885   0.00000  Uiso   1.00
C4     C     0.60777   0.57156   0.44805   0.00000  Uiso   1.00
C5     C     0.59770   0.54641   0.55692   0.00000  Uiso   1.00
C6     C     0.68941   0.70939   0.23917   0.00000  Uiso   1.00
C7     C     0.65133   0.74406   0.22080   0.00000  Uiso   1.00
C8     C     0.68977   0.81590   0.20314   0.00000  Uiso   1.00
C9     C     0.72716   0.93214   0.17024   0.00000  Uiso   1.00
C10    C     0.71920   0.61054   0.21211   0.00000  Uiso   1.00
C11    C     0.70619   0.56212   0.17096   0.00000  Uiso   1.00
C12    C     0.76971   0.55074   0.13051   0.00000  Uiso   1.00
C13    C     0.85337   0.51351   0.05559   0.00000  Uiso   1.00
C14    C     0.79405   0.69694   0.26159   0.00000  Uiso   1.00
C15    C     0.73269   0.65411   0.33117   0.00000  Uiso   1.00
C16    C     0.74549   0.64933   0.39030   0.00000  Uiso   1.00
C17    C     0.68175   0.60743   0.44876   0.00000  Uiso   1.00
C18    C     0.76325   0.74519   0.23988   0.00000  Uiso   1.00
C19    C     0.80175   0.81699   0.22225   0.00000  Uiso   1.00
C20    C     0.76375   0.85177   0.20385   0.00000  Uiso   1.00
C21    C     0.79304   0.64634   0.21282   0.00000  Uiso   1.00
C22    C     0.85660   0.63504   0.17242   0.00000  Uiso   1.00
C23    C     0.84369   0.58661   0.13122   0.00000  Uiso   1.00
H24    H     0.60060   0.60315   0.25973   0.00000  Uiso   1.00
H25    H     0.53793   0.54871   0.38828   0.00000  Uiso   1.00
H26    H     0.59419   0.71634   0.22025   0.00000  Uiso   1.00
H27    H     0.64904   0.53443   0.17043   0.00000  Uiso   1.00
H28    H     0.50102   0.50416   0.53112   0.00000  Uiso   1.00
H29    H     0.61965   0.85762   0.17680   0.00000  Uiso   1.00
H30    H     0.73529   0.47401   0.07174   0.00000  Uiso   1.00
H31    H     0.85154   0.72481   0.26214   0.00000  Uiso   1.00
H32    H     0.80264   0.67704   0.39083   0.00000  Uiso   1.00
H33    H     0.85890   0.84468   0.22280   0.00000  Uiso   1.00
H34    H     0.91374   0.66276   0.17298   0.00000  Uiso   1.00
H35    H     0.71586   0.60833   0.53320   0.00000  Uiso   1.00
H36    H     0.83449   0.96179   0.17886   0.00000  Uiso   1.00
H37    H     0.95014   0.57817   0.07381   0.00000  Uiso   1.00
O38    O     0.57174   0.52265   0.61678   0.00000  Uiso   1.00
O39    O     0.72738   0.98637   0.15190   0.00000  Uiso   1.00
O40    O     0.87911   0.48308   0.01407   0.00000  Uiso   1.00
N41    N     0.55829   0.53522   0.51395   0.00000  Uiso   1.00
N42    N     0.66920   0.86569   0.18268   0.00000  Uiso   1.00
N43    N     0.77733   0.50706   0.08445   0.00000  Uiso   1.00
N44    N     0.67390   0.59127   0.51506   0.00000  Uiso   1.00
N45    N     0.78481   0.92173   0.18380   0.00000  Uiso   1.00
N46    N     0.89293   0.56310   0.08556   0.00000  Uiso   1.00
C47    C     0.36066   0.27306   0.97639   0.00000  Uiso   1.00
C48    C     0.40956   0.33560   0.91780   0.00000  Uiso   1.00
C49    C     0.45631   0.40159   0.92192   0.00000  Uiso   1.00
C50    C     0.49641   0.45173   0.86259   0.00000  Uiso   1.00
C51    C     0.57330   0.55119   0.78094   0.00000  Uiso   1.00
C52    C     0.27730   0.24763   0.98125   0.00000  Uiso   1.00
C53    C     0.21284   0.23965   0.03873   0.00000  Uiso   1.00
C54    C     0.14160   0.21573   0.03282   0.00000  Uiso   1.00
C55    C     0.01314   0.17856   0.04969   0.00000  Uiso   1.00
C56    C     0.38694   0.21656   0.95289   0.00000  Uiso   1.00
C57    C     0.41466   0.18244   0.98652   0.00000  Uiso   1.00
C58    C     0.43573   0.13234   0.95673   0.00000  Uiso   1.00
C59    C     0.47751   0.04693   0.92956   0.00000  Uiso   1.00
C60    C     0.34875   0.24476   0.86369   0.00000  Uiso   1.00
C61    C     0.40309   0.32023   0.85659   0.00000  Uiso   1.00
C62    C     0.44314   0.37028   0.79723   0.00000  Uiso   1.00
C63    C     0.48994   0.43633   0.80127   0.00000  Uiso   1.00
C64    C     0.27083   0.23226   0.92004   0.00000  Uiso   1.00
C65    C     0.19967   0.20834   0.91404   0.00000  Uiso   1.00
C66    C     0.13512   0.20032   0.97149   0.00000  Uiso   1.00
C67    C     0.38048   0.20119   0.89167   0.00000  Uiso   1.00
C68    C     0.40150   0.15113   0.86183   0.00000  Uiso   1.00
C69    C     0.42925   0.11694   0.89541   0.00000  Uiso   1.00
H70    H     0.36568   0.28503   0.02405   0.00000  Uiso   1.00
H71    H     0.46129   0.41347   0.96931   0.00000  Uiso   1.00
H72    H     0.21786   0.25154   0.08610   0.00000  Uiso   1.00
H73    H     0.41966   0.19435   0.03389   0.00000  Uiso   1.00
H74    H     0.56441   0.54910   0.88163   0.00000  Uiso   1.00
H75    H     0.05113   0.20765   0.12789   0.00000  Uiso   1.00
H76    H     0.47665   0.08703   0.01781   0.00000  Uiso   1.00
H77    H     0.34371   0.23279   0.81603   0.00000  Uiso   1.00
H78    H     0.43812   0.35837   0.74987   0.00000  Uiso   1.00
H79    H     0.19469   0.19644   0.86666   0.00000  Uiso   1.00
H80    H     0.39648   0.13925   0.81446   0.00000  Uiso   1.00
H81    H     0.54560   0.50438   0.70352   0.00000  Uiso   1.00
H82    H     0.03231   0.16292   0.94979   0.00000  Uiso   1.00
H83    H     0.45784   0.04231   0.83970   0.00000  Uiso   1.00
O84    O     0.61749   0.61029   0.75281   0.00000  Uiso   1.00
O85    O     0.94407   0.16231   0.07590   0.00000  Uiso   1.00
O86    O     0.50236   0.00407   0.93147   0.00000  Uiso   1.00
N87    N     0.54704   0.52134   0.84879   0.00000  Uiso   1.00
N88    N     0.06715   0.20211   0.07903   0.00000  Uiso   1.00
N89    N     0.46496   0.08933   0.97612   0.00000  Uiso   1.00
N90    N     0.53692   0.49727   0.75295   0.00000  Uiso   1.00
N91    N     0.05703   0.17804   0.98319   0.00000  Uiso   1.00
N92    N     0.45484   0.06527   0.88028   0.00000  Uiso   1.00
C93    C     0.10776   0.96840   0.58854   0.00000  Uiso   1.00
C94    C     0.04322   0.89796   0.59541   0.00000  Uiso   1.00
C95    C     0.99875   0.88283   0.55672   0.00000  Uiso   1.00
C96    C     0.94258   0.81527   0.57085   0.00000  Uiso   1.00
C97    C     0.84406   0.71359   0.57379   0.00000  Uiso   1.00
C98    C     0.08541   0.98730   0.65873   0.00000  Uiso   1.00
C99    C     0.07642   0.04729   0.67329   0.00000  Uiso   1.00
C100   C     0.05577   0.05493   0.74073   0.00000  Uiso   1.00
C101   C     0.02280   0.09197   0.84197   0.00000  Uiso   1.00
C102   C     0.18046   0.95615   0.57581   0.00000  Uiso   1.00
C103   C     0.25140   0.98996   0.52065   0.00000  Uiso   1.00
C104   C     0.31078   0.97139   0.51828   0.00000  Uiso   1.00
C105   C     0.42538   0.96007   0.49076   0.00000  Uiso   1.00
C106   C     0.08708   0.87530   0.68241   0.00000  Uiso   1.00
C107   C     0.03199   0.84739   0.64640   0.00000  Uiso   1.00
C108   C     0.97587   0.77983   0.66059   0.00000  Uiso   1.00
C109   C     0.93133   0.76461   0.62193   0.00000  Uiso   1.00
C110   C     0.07418   0.93673   0.70972   0.00000  Uiso   1.00
C111   C     0.05354   0.94428   0.77715   0.00000  Uiso   1.00
C112   C     0.04452   0.00427   0.79181   0.00000  Uiso   1.00
C113   C     0.16923   0.90558   0.62680   0.00000  Uiso   1.00
C114   C     0.22851   0.88695   0.62451   0.00000  Uiso   1.00
C115   C     0.29953   0.92073   0.56936   0.00000  Uiso   1.00
H116   H     0.11650   0.00777   0.54884   0.00000  Uiso   1.00
H117   H     0.00746   0.92199   0.51727   0.00000  Uiso   1.00
H118   H     0.08512   0.08642   0.63382   0.00000  Uiso   1.00
H119   H     0.26007   0.02909   0.48120   0.00000  Uiso   1.00
H120   H     0.88159   0.80458   0.50477   0.00000  Uiso   1.00
H121   H     0.04538   0.15130   0.75052   0.00000  Uiso   1.00
H122   H     0.41428   0.03043   0.42869   0.00000  Uiso   1.00
H123   H     0.07833   0.83593   0.72211   0.00000  Uiso   1.00
H124   H     0.96720   0.74071   0.70005   0.00000  Uiso   1.00
H125   H     0.04486   0.90514   0.81660   0.00000  Uiso   1.00
H126   H     0.21980   0.84782   0.66398   0.00000  Uiso   1.00
H127   H     0.84891   0.65745   0.65312   0.00000  Uiso   1.00
H128   H     0.01270   0.00417   0.89887   0.00000  Uiso   1.00
H129   H     0.38160   0.88330   0.57704   0.00000  Uiso   1.00
O130   O     0.79281   0.67148   0.56132   0.00000  Uiso   1.00
O131   O     0.00771   0.12637   0.88372   0.00000  Uiso   1.00
O132   O     0.49170   0.96779   0.46150   0.00000  Uiso   1.00
N133   N     0.88916   0.78302   0.54271   0.00000  Uiso   1.00
N134   N     0.04228   0.10718   0.77246   0.00000  Uiso   1.00
N135   N     0.38718   0.99418   0.47159   0.00000  Uiso   1.00
N136   N     0.87158   0.70385   0.62253   0.00000  Uiso   1.00
N137   N     0.02470   0.02801   0.85229   0.00000  Uiso   1.00
N138   N     0.36960   0.91501   0.55142   0.00000  Uiso   1.00
C139   C     0.76292   0.17115   0.46509   0.00000  Uiso   1.00
C140   C     0.74371   0.14328   0.40604   0.00000  Uiso   1.00
C141   C     0.66997   0.10129   0.40963   0.00000  Uiso   1.00
C142   C     0.66459   0.08132   0.34993   0.00000  Uiso   1.00
C143   C     0.62471   0.03483   0.26752   0.00000  Uiso   1.00
C144   C     0.80510   0.24981   0.44233   0.00000  Uiso   1.00
C145   C     0.78298   0.29739   0.47646   0.00000  Uiso   1.00
C146   C     0.82929   0.36709   0.44731   0.00000  Uiso   1.00
C147   C     0.88476   0.48600   0.42128   0.00000  Uiso   1.00
C148   C     0.82325   0.14722   0.46985   0.00000  Uiso   1.00
C149   C     0.81642   0.10856   0.52712   0.00000  Uiso   1.00
C150   C     0.87802   0.09190   0.52115   0.00000  Uiso   1.00
C151   C     0.96167   0.05152   0.53785   0.00000  Uiso   1.00
C152   C     0.88449   0.21034   0.35267   0.00000  Uiso   1.00
C153   C     0.80974   0.16457   0.34497   0.00000  Uiso   1.00
C154   C     0.80447   0.14465   0.28525   0.00000  Uiso   1.00
C155   C     0.73074   0.10264   0.28876   0.00000  Uiso   1.00
C156   C     0.87113   0.27109   0.38127   0.00000  Uiso   1.00
C157   C     0.91749   0.34074   0.35208   0.00000  Uiso   1.00
C158   C     0.89545   0.38842   0.38614   0.00000  Uiso   1.00
C159   C     0.88929   0.16850   0.40879   0.00000  Uiso   1.00
C160   C     0.95091   0.15191   0.40274   0.00000  Uiso   1.00
C161   C     0.94417   0.11323   0.45998   0.00000  Uiso   1.00
H162   H     0.71151   0.15458   0.51263   0.00000  Uiso   1.00
H163   H     0.61888   0.08484   0.45690   0.00000  Uiso   1.00
H164   H     0.73189   0.28090   0.52371   0.00000  Uiso   1.00
H165   H     0.76531   0.09210   0.57436   0.00000  Uiso   1.00
H166   H     0.54531   0.01692   0.36818   0.00000  Uiso   1.00
H167   H     0.78359   0.43033   0.50907   0.00000  Uiso   1.00
H168   H     0.85407   0.03220   0.61588   0.00000  Uiso   1.00
H169   H     0.93590   0.22691   0.30513   0.00000  Uiso   1.00
H170   H     0.85558   0.16113   0.23801   0.00000  Uiso   1.00
H171   H     0.96858   0.35720   0.30482   0.00000  Uiso   1.00
H172   H     0.00200   0.16839   0.35548   0.00000  Uiso   1.00
H173   H     0.73742   0.07884   0.19052   0.00000  Uiso   1.00
H174   H     0.97571   0.49226   0.33141   0.00000  Uiso   1.00
H175   H     0.04618   0.09413   0.43822   0.00000  Uiso   1.00
O176   O     0.58448   0.00332   0.23893   0.00000  Uiso   1.00
O177   O     0.89711   0.54571   0.42379   0.00000  Uiso   1.00
O178   O     0.98957   0.02337   0.56392   0.00000  Uiso   1.00
N179   N     0.60154   0.04051   0.33558   0.00000  Uiso   1.00
N180   N     0.82432   0.42703   0.46730   0.00000  Uiso   1.00
N181   N     0.89022   0.05482   0.56717   0.00000  Uiso   1.00
N182   N     0.70492   0.07383   0.23998   0.00000  Uiso   1.00
N183   N     0.92769   0.46035   0.37170   0.00000  Uiso   1.00
N184   N     0.99359   0.08814   0.47157   0.00000  Uiso   1.00
C185   C     0.31659   0.74914   0.08398   0.00000  Uiso   1.00
C186   C     0.38507   0.80744   0.09092   0.00000  Uiso   1.00
C187   C     0.43970   0.86604   0.04145   0.00000  Uiso   1.00
C188   C     0.49790   0.91333   0.05767   0.00000  Uiso   1.00
C189   C     0.60370   0.00555   0.05881   0.00000  Uiso   1.00
C190   C     0.24380   0.74358   0.14312   0.00000  Uiso   1.00
C191   C     0.17964   0.74848   0.13755   0.00000  Uiso   1.00
C192   C     0.11892   0.74201   0.19772   0.00000  Uiso   1.00
C193   C     0.00537   0.73503   0.27991   0.00000  Uiso   1.00
C194   C     0.32515   0.68255   0.09790   0.00000  Uiso   1.00
C195   C     0.32937   0.63612   0.05432   0.00000  Uiso   1.00
C196   C     0.33711   0.57825   0.07641   0.00000  Uiso   1.00
C197   C     0.34987   0.47651   0.08839   0.00000  Uiso   1.00
C198   C     0.32280   0.72893   0.20072   0.00000  Uiso   1.00
C199   C     0.38844   0.79647   0.15433   0.00000  Uiso   1.00
C200   C     0.44658   0.84368   0.17062   0.00000  Uiso   1.00
C201   C     0.50129   0.90234   0.12119   0.00000  Uiso   1.00
C202   C     0.24717   0.73261   0.20653   0.00000  Uiso   1.00
C203   C     0.18652   0.72612   0.26672   0.00000  Uiso   1.00
C204   C     0.12230   0.73101   0.26124   0.00000  Uiso   1.00
C205   C     0.32853   0.67157   0.16131   0.00000  Uiso   1.00
C206   C     0.33626   0.61376   0.18348   0.00000  Uiso   1.00
C207   C     0.34050   0.56725   0.13994   0.00000  Uiso   1.00
H208   H     0.31395   0.75769   0.03461   0.00000  Uiso   1.00
H209   H     0.43706   0.87452   0.99239   0.00000  Uiso   1.00
H210   H     0.17704   0.75697   0.08847   0.00000  Uiso   1.00
H211   H     0.32675   0.64463   0.00525   0.00000  Uiso   1.00
H212   H     0.57502   0.99922   0.97355   0.00000  Uiso   1.00
H213   H     0.02675   0.75133   0.17616   0.00000  Uiso   1.00
H214   H     0.34244   0.51444   0.00066   0.00000  Uiso   1.00
H215   H     0.32543   0.72039   0.25010   0.00000  Uiso   1.00
H216   H     0.44918   0.83518   0.21970   0.00000  Uiso   1.00
H217   H     0.18916   0.71763   0.31578   0.00000  Uiso   1.00
H218   H     0.33887   0.60529   0.23256   0.00000  Uiso   1.00
H219   H     0.58486   0.96729   0.15805   0.00000  Uiso   1.00
H220   H     0.03658   0.71940   0.36065   0.00000  Uiso   1.00
H221   H     0.35227   0.48251   0.18515   0.00000  Uiso   1.00
O222   O     0.66112   0.05945   0.04193   0.00000  Uiso   1.00
O223   O     0.94180   0.73422   0.30773   0.00000  Uiso   1.00
O224   O     0.35598   0.42343   0.07748   0.00000  Uiso   1.00
N225   N     0.56036   0.97594   0.02114   0.00000  Uiso   1.00
N226   N     0.04777   0.74420   0.21056   0.00000  Uiso   1.00
N227   N     0.34289   0.52271   0.04649   0.00000  Uiso   1.00
N228   N     0.56566   0.95876   0.12042   0.00000  Uiso   1.00
N229   N     0.05306   0.72702   0.30984   0.00000  Uiso   1.00
N230   N     0.34818   0.50553   0.14577   0.00000  Uiso   1.00
C231   C     0.09024   0.54796   0.68138   0.00000  Uiso   1.00
C232   C     0.01697   0.48785   0.73193   0.00000  Uiso   1.00
C233   C     0.98335   0.48414   0.80157   0.00000  Uiso   1.00
C234   C     0.91641   0.42477   0.83904   0.00000  Uiso   1.00
C235   C     0.80750   0.33963   0.92227   0.00000  Uiso   1.00
C236   C     0.06690   0.57160   0.62774   0.00000  Uiso   1.00
C237   C     0.07528   0.63831   0.60976   0.00000  Uiso   1.00
C238   C     0.05038   0.64943   0.55951   0.00000  Uiso   1.00
C239   C     0.01905   0.69432   0.48094   0.00000  Uiso   1.00
C240   C     0.14635   0.51668   0.64522   0.00000  Uiso   1.00
C241   C     0.22153   0.53722   0.64191   0.00000  Uiso   1.00
C242   C     0.26353   0.50213   0.60637   0.00000  Uiso   1.00
C243   C     0.35554   0.46175   0.55493   0.00000  Uiso   1.00
C244   C     0.03115   0.44911   0.62411   0.00000  Uiso   1.00
C245   C     0.98487   0.43417   0.70083   0.00000  Uiso   1.00
C246   C     0.91797   0.37478   0.73820   0.00000  Uiso   1.00
C247   C     0.88426   0.37098   0.80788   0.00000  Uiso   1.00
C248   C     0.03481   0.51792   0.59663   0.00000  Uiso   1.00
C249   C     0.00990   0.52895   0.54640   0.00000  Uiso   1.00
C250   C     0.01823   0.59565   0.52835   0.00000  Uiso   1.00
C251   C     0.11425   0.46299   0.61411   0.00000  Uiso   1.00
C252   C     0.15615   0.42786   0.57856   0.00000  Uiso   1.00
C253   C     0.23137   0.44834   0.57521   0.00000  Uiso   1.00
H254   H     0.11523   0.58976   0.70559   0.00000  Uiso   1.00
H255   H     0.00820   0.52570   0.82562   0.00000  Uiso   1.00
H256   H     0.10012   0.67984   0.63383   0.00000  Uiso   1.00
H257   H     0.24635   0.57877   0.66599   0.00000  Uiso   1.00
H258   H     0.87537   0.43102   0.94497   0.00000  Uiso   1.00
H259   H     0.06922   0.75604   0.54057   0.00000  Uiso   1.00
H260   H     0.37756   0.54292   0.60837   0.00000  Uiso   1.00
H261   H     0.00616   0.40732   0.59989   0.00000  Uiso   1.00
H262   H     0.89315   0.33325   0.71412   0.00000  Uiso   1.00
H263   H     0.98507   0.48739   0.52233   0.00000  Uiso   1.00
H264   H     0.13129   0.38632   0.55449   0.00000  Uiso   1.00
H265   H     0.78198   0.27482   0.85447   0.00000  Uiso   1.00
H266   H     0.97584   0.59984   0.45006   0.00000  Uiso   1.00
H267   H     0.28418   0.38671   0.51787   0.00000  Uiso   1.00
O268   O     0.75629   0.30750   0.97677   0.00000  Uiso   1.00
O269   O     0.01063   0.73391   0.44620   0.00000  Uiso   1.00
O270   O     0.41516   0.45430   0.53516   0.00000  Uiso   1.00
N271   N     0.86891   0.40442   0.90799   0.00000  Uiso   1.00
N272   N     0.05014   0.70829   0.52991   0.00000  Uiso   1.00
N273   N     0.33842   0.50905   0.59329   0.00000  Uiso   1.00
N274   N     0.81866   0.32037   0.85930   0.00000  Uiso   1.00
N275   N     0.99989   0.62424   0.48121   0.00000  Uiso   1.00
N276   N     0.28817   0.42500   0.54459   0.00000  Uiso   1.00
C277   C     0.39860   0.30274   0.61586   0.00000  Uiso   1.00
C278   C     0.41378   0.31220   0.54042   0.00000  Uiso   1.00
C279   C     0.48253   0.35788   0.48803   0.00000  Uiso   1.00
C280   C     0.48483   0.35876   0.42244   0.00000  Uiso   1.00
C281   C     0.51819   0.38000   0.30722   0.00000  Uiso   1.00
C282   C     0.37469   0.22598   0.63951   0.00000  Uiso   1.00
C283   C     0.41057   0.19918   0.67044   0.00000  Uiso   1.00
C284   C     0.37995   0.12749   0.68827   0.00000  Uiso   1.00
C285   C     0.35258   0.01488   0.72693   0.00000  Uiso   1.00
C286   C     0.32633   0.31543   0.65168   0.00000  Uiso   1.00
C287   C     0.32153   0.36383   0.69287   0.00000  Uiso   1.00
C288   C     0.25019   0.36743   0.72097   0.00000  Uiso   1.00
C289   C     0.14773   0.39371   0.77853   0.00000  Uiso   1.00
C290   C     0.28042   0.22306   0.59254   0.00000  Uiso   1.00
C291   C     0.34959   0.26892   0.52775   0.00000  Uiso   1.00
C292   C     0.35179   0.26973   0.46223   0.00000  Uiso   1.00
C293   C     0.42053   0.31541   0.40975   0.00000  Uiso   1.00
C294   C     0.31051   0.18271   0.62684   0.00000  Uiso   1.00
C295   C     0.27982   0.11103   0.64464   0.00000  Uiso   1.00
C296   C     0.31564   0.08413   0.67558   0.00000  Uiso   1.00
C297   C     0.26214   0.27216   0.63901   0.00000  Uiso   1.00
C298   C     0.19079   0.27568   0.66706   0.00000  Uiso   1.00
C299   C     0.18588   0.32407   0.70828   0.00000  Uiso   1.00
H300   H     0.44857   0.33643   0.62573   0.00000  Uiso   1.00
H301   H     0.53220   0.39136   0.49786   0.00000  Uiso   1.00
H302   H     0.46023   0.23268   0.68024   0.00000  Uiso   1.00
H303   H     0.37122   0.39730   0.70266   0.00000  Uiso   1.00
H304   H     0.59662   0.43316   0.35050   0.00000  Uiso   1.00
H305   H     0.44487   0.09859   0.73509   0.00000  Uiso   1.00
H306   H     0.25715   0.44572   0.78237   0.00000  Uiso   1.00
H307   H     0.23044   0.18937   0.58268   0.00000  Uiso   1.00
H308   H     0.30210   0.23623   0.45244   0.00000  Uiso   1.00
H309   H     0.23015   0.07756   0.63483   0.00000  Uiso   1.00
H310   H     0.14113   0.24218   0.65725   0.00000  Uiso   1.00
H311   H     0.40987   0.30725   0.31363   0.00000  Uiso   1.00
H312   H     0.25812   0.97268   0.69823   0.00000  Uiso   1.00
H313   H     0.07040   0.31981   0.74551   0.00000  Uiso   1.00
O314   O     0.55433   0.40367   0.24716   0.00000  Uiso   1.00
O315   O     0.35523   0.96473   0.75175   0.00000  Uiso   1.00
O316   O     0.10895   0.42016   0.81377   0.00000  Uiso   1.00
N317   N     0.54283   0.39710   0.35969   0.00000  Uiso   1.00
N318   N     0.40096   0.08430   0.71926   0.00000  Uiso   1.00
N319   N     0.22545   0.40883   0.76347   0.00000  Uiso   1.00
N320   N     0.44234   0.32935   0.33986   0.00000  Uiso   1.00
N321   N     0.30047   0.01655   0.69942   0.00000  Uiso   1.00
N322   N     0.12496   0.34108   0.74364   0.00000  Uiso   1.00
C323   C     0.68532   0.61791   0.94986   0.00000  Uiso   1.00
C324   C     0.61992   0.56169   0.01018   0.00000  Uiso   1.00
C325   C     0.58971   0.49097   0.01100   0.00000  Uiso   1.00
C326   C     0.53002   0.44804   0.07114   0.00000  Uiso   1.00
C327   C     0.43282   0.35665   0.15612   0.00000  Uiso   1.00
C328   C     0.74789   0.65808   0.97533   0.00000  Uiso   1.00
C329   C     0.82527   0.66840   0.94682   0.00000  Uiso   1.00
C330   C     0.87331   0.70661   0.97762   0.00000  Uiso   1.00
C331   C     0.97480   0.76490   0.00845   0.00000  Uiso   1.00
C332   C     0.65233   0.66790   0.93628   0.00000  Uiso   1.00
C333   C     0.64937   0.68650   0.87494   0.00000  Uiso   1.00
C334   C     0.61697   0.73299   0.87286   0.00000  Uiso   1.00
C335   C     0.57008   0.80653   0.84306   0.00000  Uiso   1.00
C336   C     0.63306   0.66742   0.05524   0.00000  Uiso   1.00
C337   C     0.59154   0.58858   0.06742   0.00000  Uiso   1.00
C338   C     0.53188   0.54574   0.12759   0.00000  Uiso   1.00
C339   C     0.50158   0.47497   0.12848   0.00000  Uiso   1.00
C340   C     0.71951   0.68496   0.03256   0.00000  Uiso   1.00
C341   C     0.76745   0.72317   0.06341   0.00000  Uiso   1.00
C342   C     0.84487   0.73355   0.03496   0.00000  Uiso   1.00
C343   C     0.62394   0.69479   0.99352   0.00000  Uiso   1.00
C344   C     0.59154   0.74127   0.99153   0.00000  Uiso   1.00
C345   C     0.58853   0.75993   0.93020   0.00000  Uiso   1.00
H346   H     0.70742   0.59698   0.90530   0.00000  Uiso   1.00
H347   H     0.61170   0.47018   0.96669   0.00000  Uiso   1.00
H348   H     0.84722   0.64759   0.90252   0.00000  Uiso   1.00
H349   H     0.67134   0.66568   0.83066   0.00000  Uiso   1.00
H350   H     0.49306   0.34146   0.06001   0.00000  Uiso   1.00
H351   H     0.98969   0.71555   0.92469   0.00000  Uiso   1.00
H352   H     0.61882   0.75370   0.77314   0.00000  Uiso   1.00
H353   H     0.61096   0.68836   0.09980   0.00000  Uiso   1.00
H354   H     0.50993   0.56657   0.17187   0.00000  Uiso   1.00
H355   H     0.74546   0.74397   0.10770   0.00000  Uiso   1.00
H356   H     0.56958   0.76206   0.03583   0.00000  Uiso   1.00
H357   H     0.41047   0.41969   0.22654   0.00000  Uiso   1.00
H358   H     0.90710   0.79378   0.09122   0.00000  Uiso   1.00
H359   H     0.53622   0.83193   0.93968   0.00000  Uiso   1.00
O360   O     0.38706   0.29881   0.18718   0.00000  Uiso   1.00
O361   O     0.03863   0.78961   0.00964   0.00000  Uiso   1.00
O362   O     0.55205   0.83966   0.81082   0.00000  Uiso   1.00
N363   N     0.48748   0.37659   0.08931   0.00000  Uiso   1.00
N364   N     0.95180   0.72633   0.96280   0.00000  Uiso   1.00
N365   N     0.60508   0.76201   0.82111   0.00000  Uiso   1.00
N366   N     0.44303   0.41868   0.17892   0.00000  Uiso   1.00
N367   N     0.90735   0.76842   0.05241   0.00000  Uiso   1.00
N368   N     0.56063   0.80410   0.91072   0.00000  Uiso   1.00
C369   C     0.02323   0.92626   0.28511   0.00000  Uiso   1.00
C370   C     0.08324   0.99233   0.29264   0.00000  Uiso   1.00
C371   C     0.14999   0.99850   0.30142   0.00000  Uiso   1.00
C372   C     0.19746   0.06338   0.30729   0.00000  Uiso   1.00
C373   C     0.29350   0.15736   0.31938   0.00000  Uiso   1.00
C374   C     0.01776   0.94398   0.21806   0.00000  Uiso   1.00
C375   C     0.02945   0.90947   0.16414   0.00000  Uiso   1.00
C376   C     0.02179   0.93365   0.10723   0.00000  Uiso   1.00
C377   C     0.01611   0.95252   0.00356   0.00000  Uiso   1.00
C378   C     0.94513   0.91394   0.34106   0.00000  Uiso   1.00
C379   C     0.89574   0.85417   0.39055   0.00000  Uiso   1.00
C380   C     0.82692   0.85305   0.43720   0.00000  Uiso   1.00
C381   C     0.70847   0.82529   0.52451   0.00000  Uiso   1.00
C382   C     0.98884   0.03053   0.27994   0.00000  Uiso   1.00
C383   C     0.06455   0.04897   0.28983   0.00000  Uiso   1.00
C384   C     0.11193   0.11386   0.29570   0.00000  Uiso   1.00
C385   C     0.17874   0.12012   0.30448   0.00000  Uiso   1.00
C386   C     0.99908   0.00061   0.21525   0.00000  Uiso   1.00
C387   C     0.99139   0.02483   0.15842   0.00000  Uiso   1.00
C388   C     0.00307   0.99038   0.10442   0.00000  Uiso   1.00
C389   C     0.92645   0.97057   0.33826   0.00000  Uiso   1.00
C390   C     0.85769   0.96954   0.38484   0.00000  Uiso   1.00
C391   C     0.80820   0.90979   0.43439   0.00000  Uiso   1.00
H392   H     0.03778   0.88217   0.28729   0.00000  Uiso   1.00
H393   H     0.16443   0.95466   0.30358   0.00000  Uiso   1.00
H394   H     0.04390   0.86565   0.16632   0.00000  Uiso   1.00
H395   H     0.91021   0.81036   0.39271   0.00000  Uiso   1.00
H396   H     0.29662   0.06001   0.32038   0.00000  Uiso   1.00
H397   H     0.04245   0.87230   0.03098   0.00000  Uiso   1.00
H398   H     0.76055   0.75571   0.50835   0.00000  Uiso   1.00
H399   H     0.97429   0.07462   0.27775   0.00000  Uiso   1.00
H400   H     0.09746   0.15767   0.29353   0.00000  Uiso   1.00
H401   H     0.97693   0.06866   0.15627   0.00000  Uiso   1.00
H402   H     0.84325   0.01337   0.38265   0.00000  Uiso   1.00
H403   H     0.24227   0.22478   0.31222   0.00000  Uiso   1.00
H404   H     0.98810   0.03707   0.02282   0.00000  Uiso   1.00
H405   H     0.70620   0.92049   0.50019   0.00000  Uiso   1.00
O406   O     0.35163   0.19356   0.32682   0.00000  Uiso   1.00
O407   O     0.01815   0.94728   0.94715   0.00000  Uiso   1.00
O408   O     0.64831   0.79433   0.57345   0.00000  Uiso   1.00
N409   N     0.26692   0.08739   0.31631   0.00000  Uiso   1.00
N410   N     0.02929   0.91190   0.04573   0.00000  Uiso   1.00
N411   N     0.76573   0.80289   0.49202   0.00000  Uiso   1.00
N412   N     0.23768   0.17605   0.31192   0.00000  Uiso   1.00
N413   N     0.00005   0.00056   0.04134   0.00000  Uiso   1.00
N414   N     0.73648   0.89156   0.48763   0.00000  Uiso   1.00
C415   C     0.45284   0.75195   0.41400   0.00000  Uiso   1.00
C416   C     0.43296   0.74251   0.49033   0.00000  Uiso   1.00
C417   C     0.48633   0.75947   0.52046   0.00000  Uiso   1.00
C418   C     0.45646   0.74684   0.59110   0.00000  Uiso   1.00
C419   C     0.43782   0.73649   0.70368   0.00000  Uiso   1.00
C420   C     0.40982   0.68060   0.40114   0.00000  Uiso   1.00
C421   C     0.44373   0.64553   0.35628   0.00000  Uiso   1.00
C422   C     0.39437   0.58079   0.35184   0.00000  Uiso   1.00
C423   C     0.33979   0.47437   0.32592   0.00000  Uiso   1.00
C424   C     0.41435   0.79668   0.39978   0.00000  Uiso   1.00
C425   C     0.45206   0.85920   0.35376   0.00000  Uiso   1.00
C426   C     0.40651   0.89219   0.34817   0.00000  Uiso   1.00
C427   C     0.35896   0.96599   0.32014   0.00000  Uiso   1.00
C428   C     0.30489   0.69935   0.48588   0.00000  Uiso   1.00
C429   C     0.35260   0.71394   0.52937   0.00000  Uiso   1.00
C430   C     0.32264   0.70128   0.59999   0.00000  Uiso   1.00
C431   C     0.37595   0.71823   0.63021   0.00000  Uiso   1.00
C432   C     0.32946   0.65204   0.44018   0.00000  Uiso   1.00
C433   C     0.28004   0.58734   0.43581   0.00000  Uiso   1.00
C434   C     0.31386   0.55218   0.39095   0.00000  Uiso   1.00
C435   C     0.33398   0.76812   0.43883   0.00000  Uiso   1.00
C436   C     0.28837   0.80101   0.43329   0.00000  Uiso   1.00
C437   C     0.32600   0.86357   0.38728   0.00000  Uiso   1.00
H438   H     0.51540   0.77418   0.38360   0.00000  Uiso   1.00
H439   H     0.54851   0.78157   0.49023   0.00000  Uiso   1.00
H440   H     0.50591   0.66765   0.32607   0.00000  Uiso   1.00
H441   H     0.51424   0.88129   0.32356   0.00000  Uiso   1.00
H442   H     0.54978   0.77714   0.62566   0.00000  Uiso   1.00
H443   H     0.45996   0.53695   0.27950   0.00000  Uiso   1.00
H444   H     0.47752   0.98744   0.27421   0.00000  Uiso   1.00
H445   H     0.24232   0.67711   0.51627   0.00000  Uiso   1.00
H446   H     0.26045   0.67917   0.63019   0.00000  Uiso   1.00
H447   H     0.21785   0.56525   0.46602   0.00000  Uiso   1.00
H448   H     0.22618   0.77889   0.46351   0.00000  Uiso   1.00
H449   H     0.31598   0.69403   0.73925   0.00000  Uiso   1.00
H450   H     0.22616   0.45383   0.39310   0.00000  Uiso   1.00
H451   H     0.24372   0.90433   0.38780   0.00000  Uiso   1.00
O452   O     0.44973   0.73867   0.75500   0.00000  Uiso   1.00
O453   O     0.33189   0.42355   0.30084   0.00000  Uiso   1.00
O454   O     0.35493   0.01459   0.29390   0.00000  Uiso   1.00
N455   N     0.49227   0.75731   0.63676   0.00000  Uiso   1.00
N456   N     0.40829   0.53274   0.31313   0.00000  Uiso   1.00
N457   N     0.42471   0.95390   0.30817   0.00000  Uiso   1.00
N458   N     0.36646   0.71259   0.69789   0.00000  Uiso   1.00
N459   N     0.28249   0.48802   0.37426   0.00000  Uiso   1.00
N460   N     0.29890   0.90918   0.36929   0.00000  Uiso   1.00
C461   C     0.70369   0.11725   0.76055   0.00000  Uiso   1.00
C462   C     0.64899   0.08058   0.72632   0.00000  Uiso   1.00
C463   C     0.60380   0.00969   0.73914   0.00000  Uiso   1.00
C464   C     0.55761   0.98633   0.70251   0.00000  Uiso   1.00
C465   C     0.47285   0.92240   0.65659   0.00000  Uiso   1.00
C466   C     0.78360   0.15789   0.70315   0.00000  Uiso   1.00
C467   C     0.85158   0.15202   0.69650   0.00000  Uiso   1.00
C468   C     0.91871   0.19375   0.64037   0.00000  Uiso   1.00
C469   C     0.04294   0.24989   0.55851   0.00000  Uiso   1.00
C470   C     0.67734   0.17122   0.79198   0.00000  Uiso   1.00
C471   C     0.65600   0.17656   0.86001   0.00000  Uiso   1.00
C472   C     0.63368   0.22952   0.87867   0.00000  Uiso   1.00
C473   C     0.59293   0.30635   0.93473   0.00000  Uiso   1.00
C474   C     0.70201   0.20181   0.67271   0.00000  Uiso   1.00
C475   C     0.64808   0.12651   0.67860   0.00000  Uiso   1.00
C476   C     0.60195   0.10324   0.64195   0.00000  Uiso   1.00
C477   C     0.55670   0.03234   0.65471   0.00000  Uiso   1.00
C478   C     0.78269   0.20382   0.65544   0.00000  Uiso   1.00
C479   C     0.84973   0.24557   0.59931   0.00000  Uiso   1.00
C480   C     0.91780   0.23976   0.59257   0.00000  Uiso   1.00
C481   C     0.67643   0.21715   0.74427   0.00000  Uiso   1.00
C482   C     0.65415   0.27011   0.76282   0.00000  Uiso   1.00
C483   C     0.63277   0.27553   0.83087   0.00000  Uiso   1.00
H484   H     0.70440   0.08149   0.79770   0.00000  Uiso   1.00
H485   H     0.60453   0.97416   0.77606   0.00000  Uiso   1.00
H486   H     0.85227   0.11648   0.73343   0.00000  Uiso   1.00
H487   H     0.65671   0.14101   0.89692   0.00000  Uiso   1.00
H488   H     0.49342   0.87542   0.73102   0.00000  Uiso   1.00
H489   H     0.01581   0.17552   0.64114   0.00000  Uiso   1.00
H490   H     0.60344   0.22725   0.98589   0.00000  Uiso   1.00
H491   H     0.70131   0.23757   0.63556   0.00000  Uiso   1.00
H492   H     0.60126   0.13880   0.60503   0.00000  Uiso   1.00
H493   H     0.84901   0.28111   0.56240   0.00000  Uiso   1.00
H494   H     0.65345   0.30565   0.72588   0.00000  Uiso   1.00
H495   H     0.49077   0.00905   0.59220   0.00000  Uiso   1.00
H496   H     0.01316   0.30914   0.50232   0.00000  Uiso   1.00
H497   H     0.60079   0.36087   0.84707   0.00000  Uiso   1.00
O498   O     0.42635   0.87444   0.64444   0.00000  Uiso   1.00
O499   O     0.11171   0.26816   0.52653   0.00000  Uiso   1.00
O500   O     0.57069   0.33603   0.97883   0.00000  Uiso   1.00
N501   N     0.50651   0.92043   0.70255   0.00000  Uiso   1.00
N502   N     0.99491   0.20099   0.61851   0.00000  Uiso   1.00
N503   N     0.60940   0.24937   0.94082   0.00000  Uiso   1.00
N504   N     0.50509   0.99233   0.62785   0.00000  Uiso   1.00
N505   N     0.99349   0.27289   0.54382   0.00000  Uiso   1.00
N506   N     0.60797   0.32127   0.86612   0.00000  Uiso   1.00
C507   C     0.99634   0.40907   0.12548   0.00000  Uiso   1.00
C508   C     0.05156   0.46677   0.06305   0.00000  Uiso   1.00
C509   C     0.06082   0.46161   0.99634   0.00000  Uiso   1.00
C510   C     0.11429   0.52024   0.94644   0.00000  Uiso   1.00
C511   C     0.19358   0.60046   0.84702   0.00000  Uiso   1.00
C512   C     0.04680   0.39990   0.16037   0.00000  Uiso   1.00
C513   C     0.05204   0.33851   0.17549   0.00000  Uiso   1.00
C514   C     0.10149   0.34085   0.20753   0.00000  Uiso   1.00
C515   C     0.17334   0.31724   0.25925   0.00000  Uiso   1.00
C516   C     0.94445   0.43818   0.17360   0.00000  Uiso   1.00
C517   C     0.86364   0.40898   0.19986   0.00000  Uiso   1.00
C518   C     0.82693   0.44354   0.24305   0.00000  Uiso   1.00
C519   C     0.73987   0.47937   0.31530   0.00000  Uiso   1.00
C520   C     0.07483   0.52236   0.15551   0.00000  Uiso   1.00
C521   C     0.09419   0.52830   0.07937   0.00000  Uiso   1.00
C522   C     0.14766   0.58696   0.02956   0.00000  Uiso   1.00
C523   C     0.15700   0.58189   0.96278   0.00000  Uiso   1.00
C524   C     0.08943   0.46143   0.17669   0.00000  Uiso   1.00
C525   C     0.13888   0.46386   0.20872   0.00000  Uiso   1.00
C526   C     0.14420   0.40250   0.22388   0.00000  Uiso   1.00
C527   C     0.98708   0.49972   0.18991   0.00000  Uiso   1.00
C528   C     0.95048   0.53433   0.23308   0.00000  Uiso   1.00
C529   C     0.86963   0.50519   0.25939   0.00000  Uiso   1.00
H530   H     0.96315   0.36116   0.11278   0.00000  Uiso   1.00
H531   H     0.02783   0.41398   0.98373   0.00000  Uiso   1.00
H532   H     0.01904   0.29090   0.16287   0.00000  Uiso   1.00
H533   H     0.83067   0.36136   0.18722   0.00000  Uiso   1.00
H534   H     0.11835   0.49967   0.84784   0.00000  Uiso   1.00
H535   H     0.09980   0.24014   0.22558   0.00000  Uiso   1.00
H536   H     0.70260   0.38872   0.27694   0.00000  Uiso   1.00
H537   H     0.10802   0.57027   0.16821   0.00000  Uiso   1.00
H538   H     0.18064   0.63457   0.04220   0.00000  Uiso   1.00
H539   H     0.17185   0.51149   0.22134   0.00000  Uiso   1.00
H540   H     0.98349   0.58195   0.24569   0.00000  Uiso   1.00
H541   H     0.24238   0.67871   0.89530   0.00000  Uiso   1.00
H542   H     0.22383   0.41918   0.27304   0.00000  Uiso   1.00
H543   H     0.82663   0.56776   0.32439   0.00000  Uiso   1.00
O544   O     0.22555   0.62771   0.78767   0.00000  Uiso   1.00
O545   O     0.20119   0.28722   0.28326   0.00000  Uiso   1.00
O546   O     0.68008   0.48214   0.35064   0.00000  Uiso   1.00
N547   N     0.13756   0.53299   0.87631   0.00000  Uiso   1.00
N548   N     0.12023   0.29035   0.22946   0.00000  Uiso   1.00
N549   N     0.74888   0.42924   0.27749   0.00000  Uiso   1.00
N550   N     0.20430   0.62933   0.90184   0.00000  Uiso   1.00
N551   N     0.18697   0.38669   0.25500   0.00000  Uiso   1.00
N552   N     0.81562   0.52558   0.30302   0.00000  Uiso   1.00
