data_job_03439
_audit_creation_date              2018-12-19
_audit_creation_method            'Materials Studio'
_symmetry_space_group_name_H-M    'P1'
_symmetry_Int_Tables_number       1
_symmetry_cell_setting            triclinic
loop_
_symmetry_equiv_pos_as_xyz
  x,y,z
_cell_length_a                    14.8014
_cell_length_b                    14.8014
_cell_length_c                    21.2383
_cell_angle_alpha                 90.0000
_cell_angle_beta                  90.0000
_cell_angle_gamma                 120.0000
loop_
_atom_site_label
_atom_site_type_symbol
_atom_site_fract_x
_atom_site_fract_y
_atom_site_fract_z
_atom_site_U_iso_or_equiv
_atom_site_adp_type
_atom_site_occupancy
C1     C     0.46719   0.88735   0.35019   0.00000  Uiso   1.00
C2     C     0.53961   0.95452   0.40291   0.00000  Uiso   1.00
C3     C     0.52237   0.93406   0.46689   0.00000  Uiso   1.00
C4     C     0.59797   0.00504   0.50759   0.00000  Uiso   1.00
C5     C     0.69677   0.09594   0.59288   0.00000  Uiso   1.00
C6     C     0.44219   0.95906   0.31167   0.00000  Uiso   1.00
C7     C     0.34303   0.94241   0.29894   0.00000  Uiso   1.00
C8     C     0.33663   0.01721   0.26283   0.00000  Uiso   1.00
C9     C     0.28418   0.11512   0.20643   0.00000  Uiso   1.00
C10    C     0.53280   0.85981   0.30755   0.00000  Uiso   1.00
C11    C     0.50982   0.75969   0.29133   0.00000  Uiso   1.00
C12    C     0.57970   0.75093   0.25174   0.00000  Uiso   1.00
C13    C     0.66793   0.69472   0.18895   0.00000  Uiso   1.00
C14    C     0.63213   0.04980   0.30870   0.00000  Uiso   1.00
C15    C     0.62920   0.04276   0.38037   0.00000  Uiso   1.00
C16    C     0.70485   0.11378   0.42099   0.00000  Uiso   1.00
C17    C     0.68772   0.09343   0.48502   0.00000  Uiso   1.00
C18    C     0.53177   0.04729   0.28914   0.00000  Uiso   1.00
C19    C     0.52552   0.12213   0.25304   0.00000  Uiso   1.00
C20    C     0.42638   0.10560   0.24025   0.00000  Uiso   1.00
C21    C     0.62239   0.94804   0.28502   0.00000  Uiso   1.00
C22    C     0.69231   0.93942   0.24544   0.00000  Uiso   1.00
C23    C     0.66944   0.83932   0.22917   0.00000  Uiso   1.00
H24    H     0.39744   0.81866   0.36773   0.00000  Uiso   1.00
H25    H     0.45302   0.86577   0.48431   0.00000  Uiso   1.00
H26    H     0.27372   0.87411   0.31638   0.00000  Uiso   1.00
H27    H     0.44049   0.69143   0.30878   0.00000  Uiso   1.00
H28    H     0.55413   0.95693   0.60362   0.00000  Uiso   1.00
H29    H     0.17606   0.97450   0.24951   0.00000  Uiso   1.00
H30    H     0.52772   0.58928   0.23349   0.00000  Uiso   1.00
H31    H     0.70188   0.11850   0.29116   0.00000  Uiso   1.00
H32    H     0.77417   0.18206   0.40354   0.00000  Uiso   1.00
H33    H     0.59486   0.19040   0.23560   0.00000  Uiso   1.00
H34    H     0.76163   0.00772   0.22801   0.00000  Uiso   1.00
H35    H     0.81479   0.21364   0.53806   0.00000  Uiso   1.00
H36    H     0.43671   0.23121   0.18395   0.00000  Uiso   1.00
H37    H     0.78837   0.84599   0.16793   0.00000  Uiso   1.00
O38    O     0.72650   0.12171   0.64615   0.00000  Uiso   1.00
O39    O     0.23049   0.14475   0.18156   0.00000  Uiso   1.00
O40    O     0.69185   0.63935   0.16055   0.00000  Uiso   1.00
N41    N     0.60557   0.00861   0.57277   0.00000  Uiso   1.00
N42    N     0.25209   0.02505   0.24170   0.00000  Uiso   1.00
N43    N     0.58085   0.66490   0.22671   0.00000  Uiso   1.00
N44    N     0.74582   0.14675   0.53749   0.00000  Uiso   1.00
N45    N     0.39235   0.16319   0.20643   0.00000  Uiso   1.00
N46    N     0.72110   0.80304   0.19144   0.00000  Uiso   1.00
C47    C     0.11265   0.57984   0.01686   0.00000  Uiso   1.00
C48    C     0.04548   0.58509   0.06958   0.00000  Uiso   1.00
C49    C     0.06594   0.58831   0.13356   0.00000  Uiso   1.00
C50    C     0.99496   0.59293   0.17426   0.00000  Uiso   1.00
C51    C     0.90406   0.60083   0.25955   0.00000  Uiso   1.00
C52    C     0.04094   0.48313   0.97834   0.00000  Uiso   1.00
C53    C     0.05759   0.40063   0.96560   0.00000  Uiso   1.00
C54    C     0.98279   0.31943   0.92949   0.00000  Uiso   1.00
C55    C     0.88488   0.16906   0.87310   0.00000  Uiso   1.00
C56    C     0.14019   0.67299   0.97422   0.00000  Uiso   1.00
C57    C     0.24031   0.75013   0.95800   0.00000  Uiso   1.00
C58    C     0.24907   0.82877   0.91841   0.00000  Uiso   1.00
C59    C     0.30528   0.97320   0.85562   0.00000  Uiso   1.00
C60    C     0.95020   0.58233   0.97537   0.00000  Uiso   1.00
C61    C     0.95724   0.58644   0.04704   0.00000  Uiso   1.00
C62    C     0.88622   0.59107   0.08766   0.00000  Uiso   1.00
C63    C     0.90657   0.59430   0.15168   0.00000  Uiso   1.00
C64    C     0.95271   0.48448   0.95581   0.00000  Uiso   1.00
C65    C     0.87787   0.40339   0.91970   0.00000  Uiso   1.00
C66    C     0.89440   0.32078   0.90692   0.00000  Uiso   1.00
C67    C     0.05196   0.67435   0.95169   0.00000  Uiso   1.00
C68    C     0.06058   0.75289   0.91210   0.00000  Uiso   1.00
C69    C     0.16068   0.83012   0.89583   0.00000  Uiso   1.00
H70    H     0.18134   0.57878   0.03440   0.00000  Uiso   1.00
H71    H     0.13423   0.58725   0.15098   0.00000  Uiso   1.00
H72    H     0.12589   0.39961   0.98304   0.00000  Uiso   1.00
H73    H     0.30857   0.74905   0.97545   0.00000  Uiso   1.00
H74    H     0.04307   0.59720   0.27029   0.00000  Uiso   1.00
H75    H     0.02550   0.20156   0.91618   0.00000  Uiso   1.00
H76    H     0.41072   0.93843   0.90015   0.00000  Uiso   1.00
H77    H     0.88150   0.58338   0.95782   0.00000  Uiso   1.00
H78    H     0.81794   0.59211   0.07020   0.00000  Uiso   1.00
H79    H     0.80960   0.40446   0.90227   0.00000  Uiso   1.00
H80    H     0.99228   0.75391   0.89467   0.00000  Uiso   1.00
H81    H     0.78636   0.60114   0.20473   0.00000  Uiso   1.00
H82    H     0.76879   0.20550   0.85061   0.00000  Uiso   1.00
H83    H     0.15401   0.94237   0.83460   0.00000  Uiso   1.00
O84    O     0.87829   0.60479   0.31282   0.00000  Uiso   1.00
O85    O     0.85525   0.08574   0.84823   0.00000  Uiso   1.00
O86    O     0.36065   0.05250   0.82721   0.00000  Uiso   1.00
N87    N     0.99139   0.59695   0.23944   0.00000  Uiso   1.00
N88    N     0.97495   0.22704   0.90837   0.00000  Uiso   1.00
N89    N     0.33510   0.91594   0.89338   0.00000  Uiso   1.00
N90    N     0.85325   0.59908   0.20416   0.00000  Uiso   1.00
N91    N     0.83681   0.22916   0.87309   0.00000  Uiso   1.00
N92    N     0.19696   0.91806   0.85810   0.00000  Uiso   1.00
C93    C     0.42016   0.53281   0.68352   0.00000  Uiso   1.00
C94    C     0.41491   0.46039   0.73624   0.00000  Uiso   1.00
C95    C     0.41169   0.47763   0.80022   0.00000  Uiso   1.00
C96    C     0.40707   0.40203   0.84092   0.00000  Uiso   1.00
C97    C     0.39917   0.30323   0.92622   0.00000  Uiso   1.00
C98    C     0.51687   0.55781   0.64501   0.00000  Uiso   1.00
C99    C     0.59937   0.65697   0.63227   0.00000  Uiso   1.00
C100   C     0.68057   0.66337   0.59616   0.00000  Uiso   1.00
C101   C     0.83094   0.71582   0.53977   0.00000  Uiso   1.00
C102   C     0.32701   0.46720   0.64089   0.00000  Uiso   1.00
C103   C     0.24987   0.49018   0.62467   0.00000  Uiso   1.00
C104   C     0.17123   0.42030   0.58507   0.00000  Uiso   1.00
C105   C     0.02680   0.33207   0.52228   0.00000  Uiso   1.00
C106   C     0.41767   0.36787   0.64204   0.00000  Uiso   1.00
C107   C     0.41356   0.37080   0.71371   0.00000  Uiso   1.00
C108   C     0.40893   0.29515   0.75432   0.00000  Uiso   1.00
C109   C     0.40570   0.31228   0.81835   0.00000  Uiso   1.00
C110   C     0.51552   0.46823   0.62247   0.00000  Uiso   1.00
C111   C     0.59661   0.47448   0.58637   0.00000  Uiso   1.00
C112   C     0.67922   0.57362   0.57358   0.00000  Uiso   1.00
C113   C     0.32565   0.37761   0.61835   0.00000  Uiso   1.00
C114   C     0.24711   0.30769   0.57877   0.00000  Uiso   1.00
C115   C     0.16988   0.33056   0.56250   0.00000  Uiso   1.00
H116   H     0.42122   0.60256   0.70106   0.00000  Uiso   1.00
H117   H     0.41275   0.54698   0.81764   0.00000  Uiso   1.00
H118   H     0.60039   0.72628   0.64971   0.00000  Uiso   1.00
H119   H     0.25095   0.55951   0.64211   0.00000  Uiso   1.00
H120   H     0.40280   0.44587   0.93696   0.00000  Uiso   1.00
H121   H     0.79844   0.82394   0.58284   0.00000  Uiso   1.00
H122   H     0.06157   0.47228   0.56682   0.00000  Uiso   1.00
H123   H     0.41662   0.29812   0.62449   0.00000  Uiso   1.00
H124   H     0.40789   0.22583   0.73687   0.00000  Uiso   1.00
H125   H     0.59554   0.40514   0.56894   0.00000  Uiso   1.00
H126   H     0.24609   0.23837   0.56134   0.00000  Uiso   1.00
H127   H     0.39886   0.18521   0.87140   0.00000  Uiso   1.00
H128   H     0.79450   0.56329   0.51728   0.00000  Uiso   1.00
H129   H     0.05763   0.21163   0.50126   0.00000  Uiso   1.00
O130   O     0.39521   0.27350   0.97949   0.00000  Uiso   1.00
O131   O     0.91426   0.76951   0.51489   0.00000  Uiso   1.00
O132   O     0.94750   0.30815   0.49388   0.00000  Uiso   1.00
N133   N     0.40305   0.39443   0.90610   0.00000  Uiso   1.00
N134   N     0.77296   0.74791   0.57504   0.00000  Uiso   1.00
N135   N     0.08406   0.41915   0.56005   0.00000  Uiso   1.00
N136   N     0.40092   0.25418   0.87083   0.00000  Uiso   1.00
N137   N     0.77084   0.60765   0.53976   0.00000  Uiso   1.00
N138   N     0.08194   0.27890   0.52477   0.00000  Uiso   1.00
C139   C     0.88735   0.46719   0.64981   0.00000  Uiso   1.00
C140   C     0.95452   0.53961   0.59709   0.00000  Uiso   1.00
C141   C     0.93406   0.52237   0.53311   0.00000  Uiso   1.00
C142   C     0.00504   0.59797   0.49241   0.00000  Uiso   1.00
C143   C     0.09594   0.69677   0.40712   0.00000  Uiso   1.00
C144   C     0.95906   0.44219   0.68833   0.00000  Uiso   1.00
C145   C     0.94241   0.34303   0.70106   0.00000  Uiso   1.00
C146   C     0.01721   0.33663   0.73717   0.00000  Uiso   1.00
C147   C     0.11512   0.28418   0.79357   0.00000  Uiso   1.00
C148   C     0.85981   0.53280   0.69245   0.00000  Uiso   1.00
C149   C     0.75969   0.50982   0.70867   0.00000  Uiso   1.00
C150   C     0.75093   0.57970   0.74826   0.00000  Uiso   1.00
C151   C     0.69472   0.66793   0.81105   0.00000  Uiso   1.00
C152   C     0.04980   0.63213   0.69130   0.00000  Uiso   1.00
C153   C     0.04276   0.62920   0.61963   0.00000  Uiso   1.00
C154   C     0.11378   0.70485   0.57901   0.00000  Uiso   1.00
C155   C     0.09343   0.68772   0.51498   0.00000  Uiso   1.00
C156   C     0.04729   0.53177   0.71086   0.00000  Uiso   1.00
C157   C     0.12213   0.52552   0.74696   0.00000  Uiso   1.00
C158   C     0.10560   0.42638   0.75975   0.00000  Uiso   1.00
C159   C     0.94804   0.62239   0.71498   0.00000  Uiso   1.00
C160   C     0.93942   0.69231   0.75456   0.00000  Uiso   1.00
C161   C     0.83932   0.66944   0.77083   0.00000  Uiso   1.00
H162   H     0.81866   0.39744   0.63227   0.00000  Uiso   1.00
H163   H     0.86577   0.45302   0.51569   0.00000  Uiso   1.00
H164   H     0.87411   0.27372   0.68362   0.00000  Uiso   1.00
H165   H     0.69143   0.44049   0.69122   0.00000  Uiso   1.00
H166   H     0.95693   0.55413   0.39638   0.00000  Uiso   1.00
H167   H     0.97450   0.17606   0.75049   0.00000  Uiso   1.00
H168   H     0.58928   0.52772   0.76651   0.00000  Uiso   1.00
H169   H     0.11850   0.70188   0.70884   0.00000  Uiso   1.00
H170   H     0.18206   0.77417   0.59646   0.00000  Uiso   1.00
H171   H     0.19040   0.59486   0.76440   0.00000  Uiso   1.00
H172   H     0.00772   0.76163   0.77199   0.00000  Uiso   1.00
H173   H     0.21364   0.81479   0.46194   0.00000  Uiso   1.00
H174   H     0.23121   0.43671   0.81605   0.00000  Uiso   1.00
H175   H     0.84599   0.78837   0.83207   0.00000  Uiso   1.00
O176   O     0.12171   0.72650   0.35385   0.00000  Uiso   1.00
O177   O     0.14475   0.23049   0.81844   0.00000  Uiso   1.00
O178   O     0.63935   0.69185   0.83945   0.00000  Uiso   1.00
N179   N     0.00861   0.60557   0.42723   0.00000  Uiso   1.00
N180   N     0.02505   0.25209   0.75830   0.00000  Uiso   1.00
N181   N     0.66490   0.58085   0.77329   0.00000  Uiso   1.00
N182   N     0.14675   0.74582   0.46251   0.00000  Uiso   1.00
N183   N     0.16319   0.39235   0.79357   0.00000  Uiso   1.00
N184   N     0.80304   0.72110   0.80856   0.00000  Uiso   1.00
C185   C     0.57984   0.11265   0.98314   0.00000  Uiso   1.00
C186   C     0.58509   0.04548   0.93042   0.00000  Uiso   1.00
C187   C     0.58831   0.06594   0.86644   0.00000  Uiso   1.00
C188   C     0.59293   0.99496   0.82574   0.00000  Uiso   1.00
C189   C     0.60083   0.90406   0.74045   0.00000  Uiso   1.00
C190   C     0.48313   0.04094   0.02166   0.00000  Uiso   1.00
C191   C     0.40063   0.05759   0.03440   0.00000  Uiso   1.00
C192   C     0.31943   0.98279   0.07051   0.00000  Uiso   1.00
C193   C     0.16906   0.88488   0.12690   0.00000  Uiso   1.00
C194   C     0.67299   0.14019   0.02578   0.00000  Uiso   1.00
C195   C     0.75013   0.24031   0.04200   0.00000  Uiso   1.00
C196   C     0.82877   0.24907   0.08159   0.00000  Uiso   1.00
C197   C     0.97320   0.30528   0.14438   0.00000  Uiso   1.00
C198   C     0.58233   0.95020   0.02463   0.00000  Uiso   1.00
C199   C     0.58644   0.95724   0.95296   0.00000  Uiso   1.00
C200   C     0.59107   0.88622   0.91234   0.00000  Uiso   1.00
C201   C     0.59430   0.90657   0.84832   0.00000  Uiso   1.00
C202   C     0.48448   0.95271   0.04419   0.00000  Uiso   1.00
C203   C     0.40339   0.87787   0.08030   0.00000  Uiso   1.00
C204   C     0.32078   0.89440   0.09308   0.00000  Uiso   1.00
C205   C     0.67435   0.05196   0.04831   0.00000  Uiso   1.00
C206   C     0.75289   0.06058   0.08790   0.00000  Uiso   1.00
C207   C     0.83012   0.16068   0.10417   0.00000  Uiso   1.00
H208   H     0.57878   0.18134   0.96560   0.00000  Uiso   1.00
H209   H     0.58725   0.13423   0.84902   0.00000  Uiso   1.00
H210   H     0.39961   0.12589   0.01696   0.00000  Uiso   1.00
H211   H     0.74905   0.30857   0.02455   0.00000  Uiso   1.00
H212   H     0.59720   0.04307   0.72971   0.00000  Uiso   1.00
H213   H     0.20156   0.02550   0.08382   0.00000  Uiso   1.00
H214   H     0.93843   0.41072   0.09985   0.00000  Uiso   1.00
H215   H     0.58338   0.88150   0.04218   0.00000  Uiso   1.00
H216   H     0.59211   0.81794   0.92980   0.00000  Uiso   1.00
H217   H     0.40446   0.80960   0.09773   0.00000  Uiso   1.00
H218   H     0.75391   0.99228   0.10533   0.00000  Uiso   1.00
H219   H     0.60114   0.78636   0.79527   0.00000  Uiso   1.00
H220   H     0.20550   0.76879   0.14939   0.00000  Uiso   1.00
H221   H     0.94237   0.15401   0.16540   0.00000  Uiso   1.00
O222   O     0.60479   0.87829   0.68718   0.00000  Uiso   1.00
O223   O     0.08574   0.85525   0.15177   0.00000  Uiso   1.00
O224   O     0.05250   0.36065   0.17279   0.00000  Uiso   1.00
N225   N     0.59695   0.99139   0.76056   0.00000  Uiso   1.00
N226   N     0.22704   0.97495   0.09163   0.00000  Uiso   1.00
N227   N     0.91594   0.33510   0.10662   0.00000  Uiso   1.00
N228   N     0.59908   0.85325   0.79584   0.00000  Uiso   1.00
N229   N     0.22916   0.83681   0.12691   0.00000  Uiso   1.00
N230   N     0.91806   0.19696   0.14190   0.00000  Uiso   1.00
C231   C     0.53281   0.42016   0.31648   0.00000  Uiso   1.00
C232   C     0.46039   0.41491   0.26376   0.00000  Uiso   1.00
C233   C     0.47763   0.41169   0.19978   0.00000  Uiso   1.00
C234   C     0.40203   0.40707   0.15908   0.00000  Uiso   1.00
C235   C     0.30323   0.39917   0.07378   0.00000  Uiso   1.00
C236   C     0.55781   0.51687   0.35499   0.00000  Uiso   1.00
C237   C     0.65697   0.59937   0.36773   0.00000  Uiso   1.00
C238   C     0.66337   0.68057   0.40384   0.00000  Uiso   1.00
C239   C     0.71582   0.83094   0.46023   0.00000  Uiso   1.00
C240   C     0.46720   0.32701   0.35911   0.00000  Uiso   1.00
C241   C     0.49018   0.24987   0.37533   0.00000  Uiso   1.00
C242   C     0.42030   0.17123   0.41493   0.00000  Uiso   1.00
C243   C     0.33207   0.02680   0.47772   0.00000  Uiso   1.00
C244   C     0.36787   0.41767   0.35796   0.00000  Uiso   1.00
C245   C     0.37080   0.41356   0.28629   0.00000  Uiso   1.00
C246   C     0.29515   0.40893   0.24568   0.00000  Uiso   1.00
C247   C     0.31228   0.40570   0.18165   0.00000  Uiso   1.00
C248   C     0.46823   0.51552   0.37753   0.00000  Uiso   1.00
C249   C     0.47448   0.59661   0.41363   0.00000  Uiso   1.00
C250   C     0.57362   0.67922   0.42642   0.00000  Uiso   1.00
C251   C     0.37761   0.32565   0.38165   0.00000  Uiso   1.00
C252   C     0.30769   0.24711   0.42123   0.00000  Uiso   1.00
C253   C     0.33056   0.16988   0.43750   0.00000  Uiso   1.00
H254   H     0.60256   0.42122   0.29894   0.00000  Uiso   1.00
H255   H     0.54698   0.41275   0.18236   0.00000  Uiso   1.00
H256   H     0.72628   0.60039   0.35029   0.00000  Uiso   1.00
H257   H     0.55951   0.25095   0.35789   0.00000  Uiso   1.00
H258   H     0.44587   0.40280   0.06304   0.00000  Uiso   1.00
H259   H     0.82394   0.79844   0.41716   0.00000  Uiso   1.00
H260   H     0.47228   0.06157   0.43318   0.00000  Uiso   1.00
H261   H     0.29812   0.41662   0.37551   0.00000  Uiso   1.00
H262   H     0.22583   0.40789   0.26313   0.00000  Uiso   1.00
H263   H     0.40514   0.59554   0.43106   0.00000  Uiso   1.00
H264   H     0.23837   0.24609   0.43866   0.00000  Uiso   1.00
H265   H     0.18521   0.39886   0.12860   0.00000  Uiso   1.00
H266   H     0.56329   0.79450   0.48272   0.00000  Uiso   1.00
H267   H     0.21163   0.05763   0.49874   0.00000  Uiso   1.00
O268   O     0.27350   0.39521   0.02051   0.00000  Uiso   1.00
O269   O     0.76951   0.91426   0.48511   0.00000  Uiso   1.00
O270   O     0.30815   0.94750   0.50612   0.00000  Uiso   1.00
N271   N     0.39443   0.40305   0.09390   0.00000  Uiso   1.00
N272   N     0.74791   0.77296   0.42496   0.00000  Uiso   1.00
N273   N     0.41915   0.08406   0.43995   0.00000  Uiso   1.00
N274   N     0.25418   0.40092   0.12917   0.00000  Uiso   1.00
N275   N     0.60765   0.77084   0.46024   0.00000  Uiso   1.00
N276   N     0.27890   0.08194   0.47523   0.00000  Uiso   1.00
