data_job_02227
_audit_creation_date              2018-12-19
_audit_creation_method            'Materials Studio'
_symmetry_space_group_name_H-M    'P1'
_symmetry_Int_Tables_number       1
_symmetry_cell_setting            triclinic
loop_
_symmetry_equiv_pos_as_xyz
  x,y,z
_cell_length_a                    20.5927
_cell_length_b                    20.5927
_cell_length_c                    14.1984
_cell_angle_alpha                 90.0000
_cell_angle_beta                  90.0000
_cell_angle_gamma                 90.0000
loop_
_atom_site_label
_atom_site_type_symbol
_atom_site_fract_x
_atom_site_fract_y
_atom_site_fract_z
_atom_site_U_iso_or_equiv
_atom_site_adp_type
_atom_site_occupancy
C1     C     0.66641   0.75913   0.24148   0.00000  Uiso   1.00
C2     C     0.65522   0.68639   0.22949   0.00000  Uiso   1.00
C3     C     0.62906   0.65654   0.15050   0.00000  Uiso   1.00
C4     C     0.62277   0.58944   0.15333   0.00000  Uiso   1.00
C5     C     0.60244   0.48196   0.12271   0.00000  Uiso   1.00
C6     C     0.62988   0.77859   0.33053   0.00000  Uiso   1.00
C7     C     0.58241   0.82626   0.33651   0.00000  Uiso   1.00
C8     C     0.55480   0.83678   0.42440   0.00000  Uiso   1.00
C9     C     0.49516   0.87248   0.55067   0.00000  Uiso   1.00
C10    C     0.73835   0.76712   0.26411   0.00000  Uiso   1.00
C11    C     0.78209   0.80516   0.21425   0.00000  Uiso   1.00
C12    C     0.84581   0.80603   0.24624   0.00000  Uiso   1.00
C13    C     0.95459   0.82392   0.26937   0.00000  Uiso   1.00
C14    C     0.70177   0.69306   0.38695   0.00000  Uiso   1.00
C15    C     0.67442   0.65051   0.30851   0.00000  Uiso   1.00
C16    C     0.66817   0.58344   0.31145   0.00000  Uiso   1.00
C17    C     0.64201   0.55349   0.23249   0.00000  Uiso   1.00
C18    C     0.64908   0.74271   0.40955   0.00000  Uiso   1.00
C19    C     0.62153   0.75316   0.49746   0.00000  Uiso   1.00
C20    C     0.57403   0.80083   0.50356   0.00000  Uiso   1.00
C21    C     0.75756   0.73123   0.34313   0.00000  Uiso   1.00
C22    C     0.82121   0.73205   0.37520   0.00000  Uiso   1.00
C23    C     0.86504   0.77008   0.32540   0.00000  Uiso   1.00
H24    H     0.65145   0.78707   0.17997   0.00000  Uiso   1.00
H25    H     0.61419   0.68433   0.08937   0.00000  Uiso   1.00
H26    H     0.56757   0.85403   0.27535   0.00000  Uiso   1.00
H27    H     0.76722   0.83292   0.15311   0.00000  Uiso   1.00
H28    H     0.58133   0.55460   0.02379   0.00000  Uiso   1.00
H29    H     0.48303   0.91243   0.41594   0.00000  Uiso   1.00
H30    H     0.90403   0.86793   0.15818   0.00000  Uiso   1.00
H31    H     0.71672   0.66512   0.44847   0.00000  Uiso   1.00
H32    H     0.68304   0.55568   0.37261   0.00000  Uiso   1.00
H33    H     0.63641   0.72538   0.55859   0.00000  Uiso   1.00
H34    H     0.83606   0.70427   0.43635   0.00000  Uiso   1.00
H35    H     0.63721   0.45018   0.25368   0.00000  Uiso   1.00
H36    H     0.53890   0.80802   0.64583   0.00000  Uiso   1.00
H37    H     0.95990   0.76351   0.38807   0.00000  Uiso   1.00
O38    O     0.58592   0.43260   0.08400   0.00000  Uiso   1.00
O39    O     0.45695   0.90208   0.59849   0.00000  Uiso   1.00
O40    O     0.00930   0.84369   0.26030   0.00000  Uiso   1.00
N41    N     0.59912   0.54504   0.08830   0.00000  Uiso   1.00
N42    N     0.50720   0.87959   0.45494   0.00000  Uiso   1.00
N43    N     0.90080   0.83800   0.21396   0.00000  Uiso   1.00
N44    N     0.62918   0.48885   0.21200   0.00000  Uiso   1.00
N45    N     0.53726   0.82340   0.57864   0.00000  Uiso   1.00
N46    N     0.93086   0.78181   0.33766   0.00000  Uiso   1.00
C47    C     0.33359   0.24087   0.24148   0.00000  Uiso   1.00
C48    C     0.34478   0.31361   0.22949   0.00000  Uiso   1.00
C49    C     0.37094   0.34346   0.15050   0.00000  Uiso   1.00
C50    C     0.37723   0.41056   0.15333   0.00000  Uiso   1.00
C51    C     0.39756   0.51804   0.12271   0.00000  Uiso   1.00
C52    C     0.37012   0.22141   0.33053   0.00000  Uiso   1.00
C53    C     0.41759   0.17374   0.33651   0.00000  Uiso   1.00
C54    C     0.44520   0.16322   0.42440   0.00000  Uiso   1.00
C55    C     0.50484   0.12752   0.55067   0.00000  Uiso   1.00
C56    C     0.26165   0.23288   0.26411   0.00000  Uiso   1.00
C57    C     0.21791   0.19484   0.21425   0.00000  Uiso   1.00
C58    C     0.15419   0.19397   0.24624   0.00000  Uiso   1.00
C59    C     0.04541   0.17608   0.26937   0.00000  Uiso   1.00
C60    C     0.29823   0.30694   0.38695   0.00000  Uiso   1.00
C61    C     0.32558   0.34949   0.30851   0.00000  Uiso   1.00
C62    C     0.33183   0.41656   0.31145   0.00000  Uiso   1.00
C63    C     0.35799   0.44651   0.23249   0.00000  Uiso   1.00
C64    C     0.35092   0.25729   0.40955   0.00000  Uiso   1.00
C65    C     0.37847   0.24684   0.49746   0.00000  Uiso   1.00
C66    C     0.42597   0.19917   0.50356   0.00000  Uiso   1.00
C67    C     0.24244   0.26877   0.34313   0.00000  Uiso   1.00
C68    C     0.17879   0.26795   0.37520   0.00000  Uiso   1.00
C69    C     0.13496   0.22992   0.32540   0.00000  Uiso   1.00
H70    H     0.34855   0.21293   0.17997   0.00000  Uiso   1.00
H71    H     0.38581   0.31567   0.08937   0.00000  Uiso   1.00
H72    H     0.43243   0.14597   0.27535   0.00000  Uiso   1.00
H73    H     0.23278   0.16708   0.15311   0.00000  Uiso   1.00
H74    H     0.41867   0.44540   0.02379   0.00000  Uiso   1.00
H75    H     0.51697   0.08757   0.41594   0.00000  Uiso   1.00
H76    H     0.09597   0.13207   0.15818   0.00000  Uiso   1.00
H77    H     0.28328   0.33488   0.44847   0.00000  Uiso   1.00
H78    H     0.31696   0.44432   0.37261   0.00000  Uiso   1.00
H79    H     0.36359   0.27462   0.55859   0.00000  Uiso   1.00
H80    H     0.16394   0.29573   0.43635   0.00000  Uiso   1.00
H81    H     0.36279   0.54982   0.25368   0.00000  Uiso   1.00
H82    H     0.46110   0.19198   0.64583   0.00000  Uiso   1.00
H83    H     0.04010   0.23649   0.38807   0.00000  Uiso   1.00
O84    O     0.41408   0.56740   0.08400   0.00000  Uiso   1.00
O85    O     0.54305   0.09792   0.59849   0.00000  Uiso   1.00
O86    O     0.99070   0.15631   0.26030   0.00000  Uiso   1.00
N87    N     0.40088   0.45496   0.08830   0.00000  Uiso   1.00
N88    N     0.49280   0.12041   0.45494   0.00000  Uiso   1.00
N89    N     0.09920   0.16200   0.21396   0.00000  Uiso   1.00
N90    N     0.37082   0.51115   0.21200   0.00000  Uiso   1.00
N91    N     0.46274   0.17660   0.57864   0.00000  Uiso   1.00
N92    N     0.06914   0.21819   0.33766   0.00000  Uiso   1.00
C93    C     0.75913   0.33359   0.75852   0.00000  Uiso   1.00
C94    C     0.68639   0.34478   0.77051   0.00000  Uiso   1.00
C95    C     0.65654   0.37094   0.84950   0.00000  Uiso   1.00
C96    C     0.58944   0.37723   0.84667   0.00000  Uiso   1.00
C97    C     0.48196   0.39756   0.87729   0.00000  Uiso   1.00
C98    C     0.77859   0.37012   0.66947   0.00000  Uiso   1.00
C99    C     0.82626   0.41759   0.66349   0.00000  Uiso   1.00
C100   C     0.83678   0.44520   0.57560   0.00000  Uiso   1.00
C101   C     0.87248   0.50484   0.44933   0.00000  Uiso   1.00
C102   C     0.76712   0.26165   0.73589   0.00000  Uiso   1.00
C103   C     0.80516   0.21791   0.78575   0.00000  Uiso   1.00
C104   C     0.80603   0.15419   0.75376   0.00000  Uiso   1.00
C105   C     0.82392   0.04541   0.73063   0.00000  Uiso   1.00
C106   C     0.69306   0.29823   0.61305   0.00000  Uiso   1.00
C107   C     0.65051   0.32558   0.69149   0.00000  Uiso   1.00
C108   C     0.58344   0.33183   0.68855   0.00000  Uiso   1.00
C109   C     0.55349   0.35799   0.76751   0.00000  Uiso   1.00
C110   C     0.74271   0.35092   0.59045   0.00000  Uiso   1.00
C111   C     0.75316   0.37847   0.50254   0.00000  Uiso   1.00
C112   C     0.80083   0.42597   0.49644   0.00000  Uiso   1.00
C113   C     0.73123   0.24244   0.65687   0.00000  Uiso   1.00
C114   C     0.73205   0.17879   0.62480   0.00000  Uiso   1.00
C115   C     0.77008   0.13496   0.67460   0.00000  Uiso   1.00
H116   H     0.78707   0.34855   0.82003   0.00000  Uiso   1.00
H117   H     0.68433   0.38581   0.91063   0.00000  Uiso   1.00
H118   H     0.85403   0.43243   0.72465   0.00000  Uiso   1.00
H119   H     0.83292   0.23278   0.84689   0.00000  Uiso   1.00
H120   H     0.55460   0.41867   0.97621   0.00000  Uiso   1.00
H121   H     0.91243   0.51697   0.58406   0.00000  Uiso   1.00
H122   H     0.86793   0.09597   0.84182   0.00000  Uiso   1.00
H123   H     0.66512   0.28328   0.55153   0.00000  Uiso   1.00
H124   H     0.55568   0.31696   0.62739   0.00000  Uiso   1.00
H125   H     0.72538   0.36359   0.44141   0.00000  Uiso   1.00
H126   H     0.70427   0.16394   0.56365   0.00000  Uiso   1.00
H127   H     0.45018   0.36279   0.74632   0.00000  Uiso   1.00
H128   H     0.80802   0.46110   0.35417   0.00000  Uiso   1.00
H129   H     0.76351   0.04010   0.61193   0.00000  Uiso   1.00
O130   O     0.43260   0.41408   0.91600   0.00000  Uiso   1.00
O131   O     0.90208   0.54305   0.40151   0.00000  Uiso   1.00
O132   O     0.84369   0.99070   0.73970   0.00000  Uiso   1.00
N133   N     0.54504   0.40088   0.91170   0.00000  Uiso   1.00
N134   N     0.87959   0.49280   0.54506   0.00000  Uiso   1.00
N135   N     0.83800   0.09920   0.78604   0.00000  Uiso   1.00
N136   N     0.48885   0.37082   0.78800   0.00000  Uiso   1.00
N137   N     0.82340   0.46274   0.42136   0.00000  Uiso   1.00
N138   N     0.78181   0.06914   0.66234   0.00000  Uiso   1.00
C139   C     0.24087   0.66641   0.75852   0.00000  Uiso   1.00
C140   C     0.31361   0.65522   0.77051   0.00000  Uiso   1.00
C141   C     0.34346   0.62906   0.84950   0.00000  Uiso   1.00
C142   C     0.41056   0.62277   0.84667   0.00000  Uiso   1.00
C143   C     0.51804   0.60244   0.87729   0.00000  Uiso   1.00
C144   C     0.22141   0.62988   0.66947   0.00000  Uiso   1.00
C145   C     0.17374   0.58241   0.66349   0.00000  Uiso   1.00
C146   C     0.16322   0.55480   0.57560   0.00000  Uiso   1.00
C147   C     0.12752   0.49516   0.44933   0.00000  Uiso   1.00
C148   C     0.23288   0.73835   0.73589   0.00000  Uiso   1.00
C149   C     0.19484   0.78209   0.78575   0.00000  Uiso   1.00
C150   C     0.19397   0.84581   0.75376   0.00000  Uiso   1.00
C151   C     0.17608   0.95459   0.73063   0.00000  Uiso   1.00
C152   C     0.30694   0.70177   0.61305   0.00000  Uiso   1.00
C153   C     0.34949   0.67442   0.69149   0.00000  Uiso   1.00
C154   C     0.41656   0.66817   0.68855   0.00000  Uiso   1.00
C155   C     0.44651   0.64201   0.76751   0.00000  Uiso   1.00
C156   C     0.25729   0.64908   0.59045   0.00000  Uiso   1.00
C157   C     0.24684   0.62153   0.50254   0.00000  Uiso   1.00
C158   C     0.19917   0.57403   0.49644   0.00000  Uiso   1.00
C159   C     0.26877   0.75756   0.65687   0.00000  Uiso   1.00
C160   C     0.26795   0.82121   0.62480   0.00000  Uiso   1.00
C161   C     0.22992   0.86504   0.67460   0.00000  Uiso   1.00
H162   H     0.21293   0.65145   0.82003   0.00000  Uiso   1.00
H163   H     0.31567   0.61419   0.91063   0.00000  Uiso   1.00
H164   H     0.14597   0.56757   0.72465   0.00000  Uiso   1.00
H165   H     0.16708   0.76722   0.84689   0.00000  Uiso   1.00
H166   H     0.44540   0.58133   0.97621   0.00000  Uiso   1.00
H167   H     0.08757   0.48303   0.58406   0.00000  Uiso   1.00
H168   H     0.13207   0.90403   0.84182   0.00000  Uiso   1.00
H169   H     0.33488   0.71672   0.55153   0.00000  Uiso   1.00
H170   H     0.44432   0.68304   0.62739   0.00000  Uiso   1.00
H171   H     0.27462   0.63641   0.44141   0.00000  Uiso   1.00
H172   H     0.29573   0.83606   0.56365   0.00000  Uiso   1.00
H173   H     0.54982   0.63721   0.74632   0.00000  Uiso   1.00
H174   H     0.19198   0.53890   0.35417   0.00000  Uiso   1.00
H175   H     0.23649   0.95990   0.61193   0.00000  Uiso   1.00
O176   O     0.56740   0.58592   0.91600   0.00000  Uiso   1.00
O177   O     0.09792   0.45695   0.40151   0.00000  Uiso   1.00
O178   O     0.15631   0.00930   0.73970   0.00000  Uiso   1.00
N179   N     0.45496   0.59912   0.91170   0.00000  Uiso   1.00
N180   N     0.12041   0.50720   0.54506   0.00000  Uiso   1.00
N181   N     0.16200   0.90080   0.78604   0.00000  Uiso   1.00
N182   N     0.51115   0.62918   0.78800   0.00000  Uiso   1.00
N183   N     0.17660   0.53726   0.42136   0.00000  Uiso   1.00
N184   N     0.21819   0.93086   0.66234   0.00000  Uiso   1.00
C185   C     0.16641   0.74087   0.24148   0.00000  Uiso   1.00
C186   C     0.15522   0.81361   0.22949   0.00000  Uiso   1.00
C187   C     0.12906   0.84346   0.15050   0.00000  Uiso   1.00
C188   C     0.12277   0.91056   0.15333   0.00000  Uiso   1.00
C189   C     0.10244   0.01804   0.12271   0.00000  Uiso   1.00
C190   C     0.12988   0.72141   0.33053   0.00000  Uiso   1.00
C191   C     0.08241   0.67374   0.33651   0.00000  Uiso   1.00
C192   C     0.05480   0.66322   0.42440   0.00000  Uiso   1.00
C193   C     0.99516   0.62752   0.55067   0.00000  Uiso   1.00
C194   C     0.23835   0.73288   0.26411   0.00000  Uiso   1.00
C195   C     0.28209   0.69484   0.21425   0.00000  Uiso   1.00
C196   C     0.34581   0.69397   0.24624   0.00000  Uiso   1.00
C197   C     0.45459   0.67608   0.26937   0.00000  Uiso   1.00
C198   C     0.20177   0.80694   0.38695   0.00000  Uiso   1.00
C199   C     0.17442   0.84949   0.30851   0.00000  Uiso   1.00
C200   C     0.16817   0.91656   0.31145   0.00000  Uiso   1.00
C201   C     0.14201   0.94651   0.23249   0.00000  Uiso   1.00
C202   C     0.14908   0.75729   0.40955   0.00000  Uiso   1.00
C203   C     0.12153   0.74684   0.49746   0.00000  Uiso   1.00
C204   C     0.07403   0.69917   0.50356   0.00000  Uiso   1.00
C205   C     0.25756   0.76877   0.34313   0.00000  Uiso   1.00
C206   C     0.32121   0.76795   0.37520   0.00000  Uiso   1.00
C207   C     0.36504   0.72992   0.32540   0.00000  Uiso   1.00
H208   H     0.15145   0.71293   0.17997   0.00000  Uiso   1.00
H209   H     0.11419   0.81567   0.08937   0.00000  Uiso   1.00
H210   H     0.06757   0.64597   0.27535   0.00000  Uiso   1.00
H211   H     0.26722   0.66708   0.15311   0.00000  Uiso   1.00
H212   H     0.08133   0.94540   0.02379   0.00000  Uiso   1.00
H213   H     0.98303   0.58757   0.41594   0.00000  Uiso   1.00
H214   H     0.40403   0.63207   0.15818   0.00000  Uiso   1.00
H215   H     0.21672   0.83488   0.44847   0.00000  Uiso   1.00
H216   H     0.18304   0.94432   0.37261   0.00000  Uiso   1.00
H217   H     0.13641   0.77462   0.55859   0.00000  Uiso   1.00
H218   H     0.33606   0.79573   0.43635   0.00000  Uiso   1.00
H219   H     0.13721   0.04982   0.25368   0.00000  Uiso   1.00
H220   H     0.03890   0.69198   0.64583   0.00000  Uiso   1.00
H221   H     0.45990   0.73649   0.38807   0.00000  Uiso   1.00
O222   O     0.08592   0.06740   0.08400   0.00000  Uiso   1.00
O223   O     0.95695   0.59792   0.59849   0.00000  Uiso   1.00
O224   O     0.50930   0.65631   0.26030   0.00000  Uiso   1.00
N225   N     0.09912   0.95496   0.08830   0.00000  Uiso   1.00
N226   N     0.00720   0.62041   0.45494   0.00000  Uiso   1.00
N227   N     0.40080   0.66200   0.21396   0.00000  Uiso   1.00
N228   N     0.12918   0.01115   0.21200   0.00000  Uiso   1.00
N229   N     0.03726   0.67660   0.57864   0.00000  Uiso   1.00
N230   N     0.43086   0.71819   0.33766   0.00000  Uiso   1.00
C231   C     0.83359   0.25913   0.24148   0.00000  Uiso   1.00
C232   C     0.84478   0.18639   0.22949   0.00000  Uiso   1.00
C233   C     0.87094   0.15654   0.15050   0.00000  Uiso   1.00
C234   C     0.87723   0.08944   0.15333   0.00000  Uiso   1.00
C235   C     0.89756   0.98196   0.12271   0.00000  Uiso   1.00
C236   C     0.87012   0.27859   0.33053   0.00000  Uiso   1.00
C237   C     0.91759   0.32626   0.33651   0.00000  Uiso   1.00
C238   C     0.94520   0.33678   0.42440   0.00000  Uiso   1.00
C239   C     0.00484   0.37248   0.55067   0.00000  Uiso   1.00
C240   C     0.76165   0.26712   0.26411   0.00000  Uiso   1.00
C241   C     0.71791   0.30516   0.21425   0.00000  Uiso   1.00
C242   C     0.65419   0.30603   0.24624   0.00000  Uiso   1.00
C243   C     0.54541   0.32392   0.26937   0.00000  Uiso   1.00
C244   C     0.79823   0.19306   0.38695   0.00000  Uiso   1.00
C245   C     0.82558   0.15051   0.30851   0.00000  Uiso   1.00
C246   C     0.83183   0.08344   0.31145   0.00000  Uiso   1.00
C247   C     0.85799   0.05349   0.23249   0.00000  Uiso   1.00
C248   C     0.85092   0.24271   0.40955   0.00000  Uiso   1.00
C249   C     0.87847   0.25316   0.49746   0.00000  Uiso   1.00
C250   C     0.92597   0.30083   0.50356   0.00000  Uiso   1.00
C251   C     0.74244   0.23123   0.34313   0.00000  Uiso   1.00
C252   C     0.67879   0.23205   0.37520   0.00000  Uiso   1.00
C253   C     0.63496   0.27008   0.32540   0.00000  Uiso   1.00
H254   H     0.84855   0.28707   0.17997   0.00000  Uiso   1.00
H255   H     0.88581   0.18433   0.08937   0.00000  Uiso   1.00
H256   H     0.93243   0.35403   0.27535   0.00000  Uiso   1.00
H257   H     0.73278   0.33292   0.15311   0.00000  Uiso   1.00
H258   H     0.91867   0.05460   0.02379   0.00000  Uiso   1.00
H259   H     0.01697   0.41243   0.41594   0.00000  Uiso   1.00
H260   H     0.59597   0.36793   0.15818   0.00000  Uiso   1.00
H261   H     0.78328   0.16512   0.44847   0.00000  Uiso   1.00
H262   H     0.81696   0.05568   0.37261   0.00000  Uiso   1.00
H263   H     0.86359   0.22538   0.55859   0.00000  Uiso   1.00
H264   H     0.66394   0.20427   0.43635   0.00000  Uiso   1.00
H265   H     0.86279   0.95018   0.25368   0.00000  Uiso   1.00
H266   H     0.96110   0.30802   0.64583   0.00000  Uiso   1.00
H267   H     0.54010   0.26351   0.38807   0.00000  Uiso   1.00
O268   O     0.91408   0.93260   0.08400   0.00000  Uiso   1.00
O269   O     0.04305   0.40208   0.59849   0.00000  Uiso   1.00
O270   O     0.49070   0.34369   0.26030   0.00000  Uiso   1.00
N271   N     0.90088   0.04504   0.08830   0.00000  Uiso   1.00
N272   N     0.99280   0.37959   0.45494   0.00000  Uiso   1.00
N273   N     0.59920   0.33800   0.21396   0.00000  Uiso   1.00
N274   N     0.87082   0.98885   0.21200   0.00000  Uiso   1.00
N275   N     0.96274   0.32340   0.57864   0.00000  Uiso   1.00
N276   N     0.56914   0.28181   0.33766   0.00000  Uiso   1.00
C277   C     0.25913   0.16641   0.75852   0.00000  Uiso   1.00
C278   C     0.18639   0.15522   0.77051   0.00000  Uiso   1.00
C279   C     0.15654   0.12906   0.84950   0.00000  Uiso   1.00
C280   C     0.08944   0.12277   0.84667   0.00000  Uiso   1.00
C281   C     0.98196   0.10244   0.87729   0.00000  Uiso   1.00
C282   C     0.27859   0.12988   0.66947   0.00000  Uiso   1.00
C283   C     0.32626   0.08241   0.66349   0.00000  Uiso   1.00
C284   C     0.33678   0.05480   0.57560   0.00000  Uiso   1.00
C285   C     0.37248   0.99516   0.44933   0.00000  Uiso   1.00
C286   C     0.26712   0.23835   0.73589   0.00000  Uiso   1.00
C287   C     0.30516   0.28209   0.78575   0.00000  Uiso   1.00
C288   C     0.30603   0.34581   0.75376   0.00000  Uiso   1.00
C289   C     0.32392   0.45459   0.73063   0.00000  Uiso   1.00
C290   C     0.19306   0.20177   0.61305   0.00000  Uiso   1.00
C291   C     0.15051   0.17442   0.69149   0.00000  Uiso   1.00
C292   C     0.08344   0.16817   0.68855   0.00000  Uiso   1.00
C293   C     0.05349   0.14201   0.76751   0.00000  Uiso   1.00
C294   C     0.24271   0.14908   0.59045   0.00000  Uiso   1.00
C295   C     0.25316   0.12153   0.50254   0.00000  Uiso   1.00
C296   C     0.30083   0.07403   0.49644   0.00000  Uiso   1.00
C297   C     0.23123   0.25756   0.65687   0.00000  Uiso   1.00
C298   C     0.23205   0.32121   0.62480   0.00000  Uiso   1.00
C299   C     0.27008   0.36504   0.67460   0.00000  Uiso   1.00
H300   H     0.28707   0.15145   0.82003   0.00000  Uiso   1.00
H301   H     0.18433   0.11419   0.91063   0.00000  Uiso   1.00
H302   H     0.35403   0.06757   0.72465   0.00000  Uiso   1.00
H303   H     0.33292   0.26722   0.84689   0.00000  Uiso   1.00
H304   H     0.05460   0.08133   0.97621   0.00000  Uiso   1.00
H305   H     0.41243   0.98303   0.58406   0.00000  Uiso   1.00
H306   H     0.36793   0.40403   0.84182   0.00000  Uiso   1.00
H307   H     0.16512   0.21672   0.55153   0.00000  Uiso   1.00
H308   H     0.05568   0.18304   0.62739   0.00000  Uiso   1.00
H309   H     0.22538   0.13641   0.44141   0.00000  Uiso   1.00
H310   H     0.20427   0.33606   0.56365   0.00000  Uiso   1.00
H311   H     0.95018   0.13721   0.74632   0.00000  Uiso   1.00
H312   H     0.30802   0.03890   0.35417   0.00000  Uiso   1.00
H313   H     0.26351   0.45990   0.61193   0.00000  Uiso   1.00
O314   O     0.93260   0.08592   0.91600   0.00000  Uiso   1.00
O315   O     0.40208   0.95695   0.40151   0.00000  Uiso   1.00
O316   O     0.34369   0.50930   0.73970   0.00000  Uiso   1.00
N317   N     0.04504   0.09912   0.91170   0.00000  Uiso   1.00
N318   N     0.37959   0.00720   0.54506   0.00000  Uiso   1.00
N319   N     0.33800   0.40080   0.78604   0.00000  Uiso   1.00
N320   N     0.98885   0.12918   0.78800   0.00000  Uiso   1.00
N321   N     0.32340   0.03726   0.42136   0.00000  Uiso   1.00
N322   N     0.28181   0.43086   0.66234   0.00000  Uiso   1.00
C323   C     0.74087   0.83359   0.75852   0.00000  Uiso   1.00
C324   C     0.81361   0.84478   0.77051   0.00000  Uiso   1.00
C325   C     0.84346   0.87094   0.84950   0.00000  Uiso   1.00
C326   C     0.91056   0.87723   0.84667   0.00000  Uiso   1.00
C327   C     0.01804   0.89756   0.87729   0.00000  Uiso   1.00
C328   C     0.72141   0.87012   0.66947   0.00000  Uiso   1.00
C329   C     0.67374   0.91759   0.66349   0.00000  Uiso   1.00
C330   C     0.66322   0.94520   0.57560   0.00000  Uiso   1.00
C331   C     0.62752   0.00484   0.44933   0.00000  Uiso   1.00
C332   C     0.73288   0.76165   0.73589   0.00000  Uiso   1.00
C333   C     0.69484   0.71791   0.78575   0.00000  Uiso   1.00
C334   C     0.69397   0.65419   0.75376   0.00000  Uiso   1.00
C335   C     0.67608   0.54541   0.73063   0.00000  Uiso   1.00
C336   C     0.80694   0.79823   0.61305   0.00000  Uiso   1.00
C337   C     0.84949   0.82558   0.69149   0.00000  Uiso   1.00
C338   C     0.91656   0.83183   0.68855   0.00000  Uiso   1.00
C339   C     0.94651   0.85799   0.76751   0.00000  Uiso   1.00
C340   C     0.75729   0.85092   0.59045   0.00000  Uiso   1.00
C341   C     0.74684   0.87847   0.50254   0.00000  Uiso   1.00
C342   C     0.69917   0.92597   0.49644   0.00000  Uiso   1.00
C343   C     0.76877   0.74244   0.65687   0.00000  Uiso   1.00
C344   C     0.76795   0.67879   0.62480   0.00000  Uiso   1.00
C345   C     0.72992   0.63496   0.67460   0.00000  Uiso   1.00
H346   H     0.71293   0.84855   0.82003   0.00000  Uiso   1.00
H347   H     0.81567   0.88581   0.91063   0.00000  Uiso   1.00
H348   H     0.64597   0.93243   0.72465   0.00000  Uiso   1.00
H349   H     0.66708   0.73278   0.84689   0.00000  Uiso   1.00
H350   H     0.94540   0.91867   0.97621   0.00000  Uiso   1.00
H351   H     0.58757   0.01697   0.58406   0.00000  Uiso   1.00
H352   H     0.63207   0.59597   0.84182   0.00000  Uiso   1.00
H353   H     0.83488   0.78328   0.55153   0.00000  Uiso   1.00
H354   H     0.94432   0.81696   0.62739   0.00000  Uiso   1.00
H355   H     0.77462   0.86359   0.44141   0.00000  Uiso   1.00
H356   H     0.79573   0.66394   0.56365   0.00000  Uiso   1.00
H357   H     0.04982   0.86279   0.74632   0.00000  Uiso   1.00
H358   H     0.69198   0.96110   0.35417   0.00000  Uiso   1.00
H359   H     0.73649   0.54010   0.61193   0.00000  Uiso   1.00
O360   O     0.06740   0.91408   0.91600   0.00000  Uiso   1.00
O361   O     0.59792   0.04305   0.40151   0.00000  Uiso   1.00
O362   O     0.65631   0.49070   0.73970   0.00000  Uiso   1.00
N363   N     0.95496   0.90088   0.91170   0.00000  Uiso   1.00
N364   N     0.62041   0.99280   0.54506   0.00000  Uiso   1.00
N365   N     0.66200   0.59920   0.78604   0.00000  Uiso   1.00
N366   N     0.01115   0.87082   0.78800   0.00000  Uiso   1.00
N367   N     0.67660   0.96274   0.42136   0.00000  Uiso   1.00
N368   N     0.71819   0.56914   0.66234   0.00000  Uiso   1.00
