data_job_04579
_audit_creation_date              2018-12-19
_audit_creation_method            'Materials Studio'
_symmetry_space_group_name_H-M    'P1'
_symmetry_Int_Tables_number       1
_symmetry_cell_setting            triclinic
loop_
_symmetry_equiv_pos_as_xyz
  x,y,z
_cell_length_a                    12.3847
_cell_length_b                    14.5527
_cell_length_c                    25.9605
_cell_angle_alpha                 90.0000
_cell_angle_beta                  90.0000
_cell_angle_gamma                 90.0000
loop_
_atom_site_label
_atom_site_type_symbol
_atom_site_fract_x
_atom_site_fract_y
_atom_site_fract_z
_atom_site_U_iso_or_equiv
_atom_site_adp_type
_atom_site_occupancy
C1     C     0.92818   0.01110   0.83075   0.00000  Uiso   1.00
C2     C     0.91051   0.10303   0.85765   0.00000  Uiso   1.00
C3     C     0.92420   0.18904   0.83550   0.00000  Uiso   1.00
C4     C     0.90399   0.26481   0.86654   0.00000  Uiso   1.00
C5     C     0.88158   0.40908   0.90050   0.00000  Uiso   1.00
C6     C     0.01046   0.95921   0.86336   0.00000  Uiso   1.00
C7     C     0.10819   0.92427   0.84602   0.00000  Uiso   1.00
C8     C     0.17211   0.87895   0.88186   0.00000  Uiso   1.00
C9     C     0.30485   0.79987   0.92469   0.00000  Uiso   1.00
C10    C     0.82229   0.95846   0.83601   0.00000  Uiso   1.00
C11    C     0.76182   0.92287   0.79567   0.00000  Uiso   1.00
C12    C     0.66732   0.87690   0.80849   0.00000  Uiso   1.00
C13    C     0.50790   0.79665   0.80885   0.00000  Uiso   1.00
C14    C     0.86793   0.99272   0.92526   0.00000  Uiso   1.00
C15    C     0.87778   0.09305   0.90898   0.00000  Uiso   1.00
C16    C     0.85754   0.16870   0.94006   0.00000  Uiso   1.00
C17    C     0.87120   0.25481   0.91796   0.00000  Uiso   1.00
C18    C     0.97774   0.94922   0.91469   0.00000  Uiso   1.00
C19    C     0.04153   0.90394   0.95058   0.00000  Uiso   1.00
C20    C     0.13933   0.86895   0.93329   0.00000  Uiso   1.00
C21    C     0.78956   0.94847   0.88734   0.00000  Uiso   1.00
C22    C     0.69515   0.90254   0.90023   0.00000  Uiso   1.00
C23    C     0.63454   0.86690   0.85992   0.00000  Uiso   1.00
H24    H     0.95367   0.01887   0.79079   0.00000  Uiso   1.00
H25    H     0.94954   0.19674   0.79577   0.00000  Uiso   1.00
H26    H     0.13349   0.93200   0.80629   0.00000  Uiso   1.00
H27    H     0.78717   0.93061   0.75595   0.00000  Uiso   1.00
H28    H     0.93058   0.38954   0.82394   0.00000  Uiso   1.00
H29    H     0.31843   0.83130   0.84611   0.00000  Uiso   1.00
H30    H     0.58814   0.82836   0.73996   0.00000  Uiso   1.00
H31    H     0.84245   0.98494   0.96522   0.00000  Uiso   1.00
H32    H     0.83222   0.16096   0.97978   0.00000  Uiso   1.00
H33    H     0.01617   0.89622   0.99030   0.00000  Uiso   1.00
H34    H     0.66985   0.89483   0.93996   0.00000  Uiso   1.00
H35    H     0.83536   0.36049   0.97329   0.00000  Uiso   1.00
H36    H     0.22321   0.80225   0.99546   0.00000  Uiso   1.00
H37    H     0.49292   0.79932   0.88931   0.00000  Uiso   1.00
O38    O     0.87828   0.49141   0.90505   0.00000  Uiso   1.00
O39    O     0.38711   0.75902   0.93413   0.00000  Uiso   1.00
O40    O     0.42899   0.75516   0.79487   0.00000  Uiso   1.00
N41    N     0.90955   0.35855   0.85709   0.00000  Uiso   1.00
N42    N     0.27217   0.83664   0.87782   0.00000  Uiso   1.00
N43    N     0.58943   0.83387   0.77858   0.00000  Uiso   1.00
N44    N     0.85831   0.34292   0.93745   0.00000  Uiso   1.00
N45    N     0.22094   0.82101   0.95818   0.00000  Uiso   1.00
N46    N     0.53819   0.81824   0.85894   0.00000  Uiso   1.00
C47    C     0.30047   0.51728   0.18203   0.00000  Uiso   1.00
C48    C     0.32211   0.61931   0.17348   0.00000  Uiso   1.00
C49    C     0.31193   0.68788   0.21031   0.00000  Uiso   1.00
C50    C     0.33544   0.77700   0.19487   0.00000  Uiso   1.00
C51    C     0.36405   0.93243   0.18928   0.00000  Uiso   1.00
C52    C     0.21622   0.48985   0.14204   0.00000  Uiso   1.00
C53    C     0.11701   0.44956   0.15244   0.00000  Uiso   1.00
C54    C     0.05140   0.42969   0.11053   0.00000  Uiso   1.00
C55    C     0.91564   0.38406   0.05612   0.00000  Uiso   1.00
C56    C     0.40411   0.46758   0.16687   0.00000  Uiso   1.00
C57    C     0.46287   0.40856   0.19814   0.00000  Uiso   1.00
C58    C     0.55544   0.36993   0.17712   0.00000  Uiso   1.00
C59    C     0.71140   0.28974   0.16127   0.00000  Uiso   1.00
C60    C     0.36036   0.55360   0.08911   0.00000  Uiso   1.00
C61    C     0.35464   0.63903   0.12302   0.00000  Uiso   1.00
C62    C     0.37819   0.72807   0.10751   0.00000  Uiso   1.00
C63    C     0.36804   0.79677   0.14431   0.00000  Uiso   1.00
C64    C     0.24875   0.50957   0.09158   0.00000  Uiso   1.00
C65    C     0.18327   0.48975   0.04964   0.00000  Uiso   1.00
C66    C     0.08398   0.44946   0.05997   0.00000  Uiso   1.00
C67    C     0.43664   0.48731   0.11641   0.00000  Uiso   1.00
C68    C     0.52913   0.44876   0.09534   0.00000  Uiso   1.00
C69    C     0.58802   0.38969   0.12657   0.00000  Uiso   1.00
H70    H     0.27514   0.50192   0.22131   0.00000  Uiso   1.00
H71    H     0.28674   0.67259   0.24936   0.00000  Uiso   1.00
H72    H     0.09186   0.43430   0.19150   0.00000  Uiso   1.00
H73    H     0.43767   0.39331   0.23719   0.00000  Uiso   1.00
H74    H     0.31391   0.87051   0.25820   0.00000  Uiso   1.00
H75    H     0.90301   0.36803   0.13618   0.00000  Uiso   1.00
H76    H     0.63221   0.28160   0.23254   0.00000  Uiso   1.00
H77    H     0.38568   0.56896   0.04982   0.00000  Uiso   1.00
H78    H     0.40335   0.74332   0.06846   0.00000  Uiso   1.00
H79    H     0.20847   0.50502   0.01059   0.00000  Uiso   1.00
H80    H     0.55428   0.46404   0.05628   0.00000  Uiso   1.00
H81    H     0.40855   0.92792   0.11137   0.00000  Uiso   1.00
H82    H     0.99765   0.42544   0.98935   0.00000  Uiso   1.00
H83    H     0.72686   0.33901   0.08571   0.00000  Uiso   1.00
O84    O     0.37082   0.01271   0.20013   0.00000  Uiso   1.00
O85    O     0.83176   0.35346   0.04006   0.00000  Uiso   1.00
O86    O     0.78845   0.24007   0.16647   0.00000  Uiso   1.00
N87    N     0.33378   0.86009   0.22108   0.00000  Uiso   1.00
N88    N     0.94961   0.39032   0.10701   0.00000  Uiso   1.00
N89    N     0.63133   0.30949   0.19709   0.00000  Uiso   1.00
N90    N     0.38471   0.89098   0.14208   0.00000  Uiso   1.00
N91    N     0.00054   0.42121   0.02800   0.00000  Uiso   1.00
N92    N     0.68226   0.34038   0.11808   0.00000  Uiso   1.00
C93    C     0.07182   0.98890   0.33075   0.00000  Uiso   1.00
C94    C     0.08949   0.89697   0.35765   0.00000  Uiso   1.00
C95    C     0.07580   0.81096   0.33550   0.00000  Uiso   1.00
C96    C     0.09601   0.73519   0.36654   0.00000  Uiso   1.00
C97    C     0.11842   0.59092   0.40050   0.00000  Uiso   1.00
C98    C     0.98954   0.04079   0.36336   0.00000  Uiso   1.00
C99    C     0.89181   0.07573   0.34602   0.00000  Uiso   1.00
C100   C     0.82789   0.12105   0.38186   0.00000  Uiso   1.00
C101   C     0.69515   0.20013   0.42469   0.00000  Uiso   1.00
C102   C     0.17771   0.04154   0.33601   0.00000  Uiso   1.00
C103   C     0.23818   0.07713   0.29567   0.00000  Uiso   1.00
C104   C     0.33268   0.12310   0.30849   0.00000  Uiso   1.00
C105   C     0.49210   0.20335   0.30885   0.00000  Uiso   1.00
C106   C     0.13207   0.00728   0.42526   0.00000  Uiso   1.00
C107   C     0.12222   0.90695   0.40898   0.00000  Uiso   1.00
C108   C     0.14246   0.83130   0.44006   0.00000  Uiso   1.00
C109   C     0.12880   0.74519   0.41796   0.00000  Uiso   1.00
C110   C     0.02226   0.05078   0.41469   0.00000  Uiso   1.00
C111   C     0.95847   0.09606   0.45058   0.00000  Uiso   1.00
C112   C     0.86067   0.13105   0.43329   0.00000  Uiso   1.00
C113   C     0.21044   0.05153   0.38734   0.00000  Uiso   1.00
C114   C     0.30485   0.09746   0.40023   0.00000  Uiso   1.00
C115   C     0.36546   0.13310   0.35992   0.00000  Uiso   1.00
H116   H     0.04633   0.98113   0.29079   0.00000  Uiso   1.00
H117   H     0.05046   0.80326   0.29577   0.00000  Uiso   1.00
H118   H     0.86651   0.06800   0.30629   0.00000  Uiso   1.00
H119   H     0.21283   0.06939   0.25595   0.00000  Uiso   1.00
H120   H     0.06942   0.61046   0.32394   0.00000  Uiso   1.00
H121   H     0.68157   0.16870   0.34611   0.00000  Uiso   1.00
H122   H     0.41186   0.17164   0.23996   0.00000  Uiso   1.00
H123   H     0.15755   0.01506   0.46522   0.00000  Uiso   1.00
H124   H     0.16778   0.83904   0.47978   0.00000  Uiso   1.00
H125   H     0.98383   0.10378   0.49030   0.00000  Uiso   1.00
H126   H     0.33015   0.10517   0.43996   0.00000  Uiso   1.00
H127   H     0.16464   0.63951   0.47329   0.00000  Uiso   1.00
H128   H     0.77679   0.19775   0.49546   0.00000  Uiso   1.00
H129   H     0.50708   0.20068   0.38931   0.00000  Uiso   1.00
O130   O     0.12172   0.50859   0.40505   0.00000  Uiso   1.00
O131   O     0.61289   0.24098   0.43413   0.00000  Uiso   1.00
O132   O     0.57101   0.24484   0.29487   0.00000  Uiso   1.00
N133   N     0.09045   0.64145   0.35709   0.00000  Uiso   1.00
N134   N     0.72783   0.16336   0.37782   0.00000  Uiso   1.00
N135   N     0.41057   0.16613   0.27858   0.00000  Uiso   1.00
N136   N     0.14169   0.65708   0.43745   0.00000  Uiso   1.00
N137   N     0.77906   0.17899   0.45818   0.00000  Uiso   1.00
N138   N     0.46181   0.18176   0.35894   0.00000  Uiso   1.00
C139   C     0.69953   0.48272   0.68203   0.00000  Uiso   1.00
C140   C     0.67789   0.38069   0.67348   0.00000  Uiso   1.00
C141   C     0.68807   0.31212   0.71031   0.00000  Uiso   1.00
C142   C     0.66456   0.22300   0.69487   0.00000  Uiso   1.00
C143   C     0.63595   0.06757   0.68928   0.00000  Uiso   1.00
C144   C     0.78378   0.51015   0.64204   0.00000  Uiso   1.00
C145   C     0.88299   0.55044   0.65244   0.00000  Uiso   1.00
C146   C     0.94860   0.57031   0.61053   0.00000  Uiso   1.00
C147   C     0.08436   0.61594   0.55612   0.00000  Uiso   1.00
C148   C     0.59589   0.53242   0.66687   0.00000  Uiso   1.00
C149   C     0.53713   0.59144   0.69814   0.00000  Uiso   1.00
C150   C     0.44456   0.63007   0.67712   0.00000  Uiso   1.00
C151   C     0.28860   0.71026   0.66127   0.00000  Uiso   1.00
C152   C     0.63964   0.44640   0.58911   0.00000  Uiso   1.00
C153   C     0.64536   0.36097   0.62302   0.00000  Uiso   1.00
C154   C     0.62181   0.27193   0.60751   0.00000  Uiso   1.00
C155   C     0.63196   0.20323   0.64431   0.00000  Uiso   1.00
C156   C     0.75125   0.49043   0.59158   0.00000  Uiso   1.00
C157   C     0.81673   0.51025   0.54964   0.00000  Uiso   1.00
C158   C     0.91602   0.55054   0.55997   0.00000  Uiso   1.00
C159   C     0.56336   0.51269   0.61641   0.00000  Uiso   1.00
C160   C     0.47087   0.55124   0.59534   0.00000  Uiso   1.00
C161   C     0.41198   0.61031   0.62657   0.00000  Uiso   1.00
H162   H     0.72486   0.49808   0.72131   0.00000  Uiso   1.00
H163   H     0.71326   0.32741   0.74936   0.00000  Uiso   1.00
H164   H     0.90814   0.56570   0.69150   0.00000  Uiso   1.00
H165   H     0.56233   0.60669   0.73719   0.00000  Uiso   1.00
H166   H     0.68609   0.12949   0.75820   0.00000  Uiso   1.00
H167   H     0.09699   0.63197   0.63618   0.00000  Uiso   1.00
H168   H     0.36779   0.71840   0.73254   0.00000  Uiso   1.00
H169   H     0.61432   0.43104   0.54982   0.00000  Uiso   1.00
H170   H     0.59665   0.25668   0.56846   0.00000  Uiso   1.00
H171   H     0.79153   0.49498   0.51059   0.00000  Uiso   1.00
H172   H     0.44572   0.53596   0.55628   0.00000  Uiso   1.00
H173   H     0.59145   0.07208   0.61137   0.00000  Uiso   1.00
H174   H     0.00235   0.57456   0.48935   0.00000  Uiso   1.00
H175   H     0.27314   0.66099   0.58571   0.00000  Uiso   1.00
O176   O     0.62918   0.98729   0.70013   0.00000  Uiso   1.00
O177   O     0.16824   0.64654   0.54006   0.00000  Uiso   1.00
O178   O     0.21155   0.75993   0.66647   0.00000  Uiso   1.00
N179   N     0.66622   0.13991   0.72108   0.00000  Uiso   1.00
N180   N     0.05039   0.60968   0.60701   0.00000  Uiso   1.00
N181   N     0.36867   0.69051   0.69709   0.00000  Uiso   1.00
N182   N     0.61529   0.10902   0.64208   0.00000  Uiso   1.00
N183   N     0.99946   0.57879   0.52800   0.00000  Uiso   1.00
N184   N     0.31774   0.65962   0.61808   0.00000  Uiso   1.00
C185   C     0.42818   0.48890   0.83075   0.00000  Uiso   1.00
C186   C     0.41051   0.39697   0.85765   0.00000  Uiso   1.00
C187   C     0.42420   0.31096   0.83550   0.00000  Uiso   1.00
C188   C     0.40399   0.23519   0.86654   0.00000  Uiso   1.00
C189   C     0.38158   0.09092   0.90050   0.00000  Uiso   1.00
C190   C     0.51046   0.54079   0.86336   0.00000  Uiso   1.00
C191   C     0.60819   0.57573   0.84602   0.00000  Uiso   1.00
C192   C     0.67211   0.62105   0.88186   0.00000  Uiso   1.00
C193   C     0.80485   0.70013   0.92469   0.00000  Uiso   1.00
C194   C     0.32229   0.54154   0.83601   0.00000  Uiso   1.00
C195   C     0.26182   0.57713   0.79567   0.00000  Uiso   1.00
C196   C     0.16732   0.62310   0.80849   0.00000  Uiso   1.00
C197   C     0.00790   0.70335   0.80885   0.00000  Uiso   1.00
C198   C     0.36793   0.50728   0.92526   0.00000  Uiso   1.00
C199   C     0.37778   0.40695   0.90898   0.00000  Uiso   1.00
C200   C     0.35754   0.33130   0.94006   0.00000  Uiso   1.00
C201   C     0.37120   0.24519   0.91796   0.00000  Uiso   1.00
C202   C     0.47774   0.55078   0.91469   0.00000  Uiso   1.00
C203   C     0.54153   0.59606   0.95058   0.00000  Uiso   1.00
C204   C     0.63933   0.63105   0.93329   0.00000  Uiso   1.00
C205   C     0.28956   0.55153   0.88734   0.00000  Uiso   1.00
C206   C     0.19515   0.59746   0.90023   0.00000  Uiso   1.00
C207   C     0.13454   0.63310   0.85992   0.00000  Uiso   1.00
H208   H     0.45367   0.48113   0.79079   0.00000  Uiso   1.00
H209   H     0.44954   0.30326   0.79577   0.00000  Uiso   1.00
H210   H     0.63349   0.56800   0.80629   0.00000  Uiso   1.00
H211   H     0.28717   0.56939   0.75595   0.00000  Uiso   1.00
H212   H     0.43058   0.11046   0.82394   0.00000  Uiso   1.00
H213   H     0.81843   0.66870   0.84611   0.00000  Uiso   1.00
H214   H     0.08814   0.67164   0.73996   0.00000  Uiso   1.00
H215   H     0.34245   0.51506   0.96522   0.00000  Uiso   1.00
H216   H     0.33222   0.33904   0.97978   0.00000  Uiso   1.00
H217   H     0.51617   0.60378   0.99030   0.00000  Uiso   1.00
H218   H     0.16985   0.60517   0.93996   0.00000  Uiso   1.00
H219   H     0.33536   0.13951   0.97329   0.00000  Uiso   1.00
H220   H     0.72321   0.69775   0.99546   0.00000  Uiso   1.00
H221   H     0.99292   0.70068   0.88931   0.00000  Uiso   1.00
O222   O     0.37828   0.00859   0.90505   0.00000  Uiso   1.00
O223   O     0.88711   0.74098   0.93413   0.00000  Uiso   1.00
O224   O     0.92899   0.74484   0.79487   0.00000  Uiso   1.00
N225   N     0.40955   0.14145   0.85709   0.00000  Uiso   1.00
N226   N     0.77217   0.66336   0.87782   0.00000  Uiso   1.00
N227   N     0.08943   0.66613   0.77858   0.00000  Uiso   1.00
N228   N     0.35831   0.15708   0.93745   0.00000  Uiso   1.00
N229   N     0.72094   0.67899   0.95818   0.00000  Uiso   1.00
N230   N     0.03819   0.68176   0.85894   0.00000  Uiso   1.00
C231   C     0.80047   0.98272   0.18203   0.00000  Uiso   1.00
C232   C     0.82211   0.88069   0.17348   0.00000  Uiso   1.00
C233   C     0.81193   0.81212   0.21031   0.00000  Uiso   1.00
C234   C     0.83544   0.72300   0.19487   0.00000  Uiso   1.00
C235   C     0.86405   0.56757   0.18928   0.00000  Uiso   1.00
C236   C     0.71622   0.01015   0.14204   0.00000  Uiso   1.00
C237   C     0.61701   0.05044   0.15244   0.00000  Uiso   1.00
C238   C     0.55140   0.07031   0.11053   0.00000  Uiso   1.00
C239   C     0.41564   0.11594   0.05612   0.00000  Uiso   1.00
C240   C     0.90411   0.03242   0.16687   0.00000  Uiso   1.00
C241   C     0.96287   0.09144   0.19814   0.00000  Uiso   1.00
C242   C     0.05544   0.13007   0.17712   0.00000  Uiso   1.00
C243   C     0.21140   0.21026   0.16127   0.00000  Uiso   1.00
C244   C     0.86036   0.94640   0.08911   0.00000  Uiso   1.00
C245   C     0.85464   0.86097   0.12302   0.00000  Uiso   1.00
C246   C     0.87819   0.77193   0.10751   0.00000  Uiso   1.00
C247   C     0.86804   0.70323   0.14431   0.00000  Uiso   1.00
C248   C     0.74875   0.99043   0.09158   0.00000  Uiso   1.00
C249   C     0.68327   0.01025   0.04964   0.00000  Uiso   1.00
C250   C     0.58398   0.05054   0.05997   0.00000  Uiso   1.00
C251   C     0.93664   0.01269   0.11641   0.00000  Uiso   1.00
C252   C     0.02913   0.05124   0.09534   0.00000  Uiso   1.00
C253   C     0.08802   0.11031   0.12657   0.00000  Uiso   1.00
H254   H     0.77514   0.99808   0.22131   0.00000  Uiso   1.00
H255   H     0.78674   0.82741   0.24936   0.00000  Uiso   1.00
H256   H     0.59186   0.06570   0.19150   0.00000  Uiso   1.00
H257   H     0.93767   0.10669   0.23719   0.00000  Uiso   1.00
H258   H     0.81391   0.62949   0.25820   0.00000  Uiso   1.00
H259   H     0.40301   0.13197   0.13618   0.00000  Uiso   1.00
H260   H     0.13221   0.21840   0.23254   0.00000  Uiso   1.00
H261   H     0.88568   0.93104   0.04982   0.00000  Uiso   1.00
H262   H     0.90335   0.75668   0.06846   0.00000  Uiso   1.00
H263   H     0.70847   0.99498   0.01059   0.00000  Uiso   1.00
H264   H     0.05428   0.03596   0.05628   0.00000  Uiso   1.00
H265   H     0.90855   0.57208   0.11137   0.00000  Uiso   1.00
H266   H     0.49765   0.07456   0.98935   0.00000  Uiso   1.00
H267   H     0.22686   0.16099   0.08571   0.00000  Uiso   1.00
O268   O     0.87082   0.48729   0.20013   0.00000  Uiso   1.00
O269   O     0.33176   0.14654   0.04006   0.00000  Uiso   1.00
O270   O     0.28845   0.25993   0.16647   0.00000  Uiso   1.00
N271   N     0.83378   0.63991   0.22108   0.00000  Uiso   1.00
N272   N     0.44961   0.10968   0.10701   0.00000  Uiso   1.00
N273   N     0.13133   0.19051   0.19709   0.00000  Uiso   1.00
N274   N     0.88471   0.60902   0.14208   0.00000  Uiso   1.00
N275   N     0.50054   0.07879   0.02800   0.00000  Uiso   1.00
N276   N     0.18226   0.15962   0.11808   0.00000  Uiso   1.00
C277   C     0.57182   0.51110   0.33075   0.00000  Uiso   1.00
C278   C     0.58949   0.60303   0.35765   0.00000  Uiso   1.00
C279   C     0.57580   0.68904   0.33550   0.00000  Uiso   1.00
C280   C     0.59601   0.76481   0.36654   0.00000  Uiso   1.00
C281   C     0.61842   0.90908   0.40050   0.00000  Uiso   1.00
C282   C     0.48954   0.45921   0.36336   0.00000  Uiso   1.00
C283   C     0.39181   0.42427   0.34602   0.00000  Uiso   1.00
C284   C     0.32789   0.37895   0.38186   0.00000  Uiso   1.00
C285   C     0.19515   0.29987   0.42469   0.00000  Uiso   1.00
C286   C     0.67771   0.45846   0.33601   0.00000  Uiso   1.00
C287   C     0.73818   0.42287   0.29567   0.00000  Uiso   1.00
C288   C     0.83268   0.37690   0.30849   0.00000  Uiso   1.00
C289   C     0.99210   0.29665   0.30885   0.00000  Uiso   1.00
C290   C     0.63207   0.49272   0.42526   0.00000  Uiso   1.00
C291   C     0.62222   0.59305   0.40898   0.00000  Uiso   1.00
C292   C     0.64246   0.66870   0.44006   0.00000  Uiso   1.00
C293   C     0.62880   0.75481   0.41796   0.00000  Uiso   1.00
C294   C     0.52226   0.44922   0.41469   0.00000  Uiso   1.00
C295   C     0.45847   0.40394   0.45058   0.00000  Uiso   1.00
C296   C     0.36067   0.36895   0.43329   0.00000  Uiso   1.00
C297   C     0.71044   0.44847   0.38734   0.00000  Uiso   1.00
C298   C     0.80485   0.40254   0.40023   0.00000  Uiso   1.00
C299   C     0.86546   0.36690   0.35992   0.00000  Uiso   1.00
H300   H     0.54633   0.51887   0.29079   0.00000  Uiso   1.00
H301   H     0.55046   0.69674   0.29577   0.00000  Uiso   1.00
H302   H     0.36651   0.43200   0.30629   0.00000  Uiso   1.00
H303   H     0.71283   0.43061   0.25595   0.00000  Uiso   1.00
H304   H     0.56942   0.88954   0.32394   0.00000  Uiso   1.00
H305   H     0.18157   0.33130   0.34611   0.00000  Uiso   1.00
H306   H     0.91186   0.32836   0.23996   0.00000  Uiso   1.00
H307   H     0.65755   0.48494   0.46522   0.00000  Uiso   1.00
H308   H     0.66778   0.66096   0.47978   0.00000  Uiso   1.00
H309   H     0.48383   0.39622   0.49030   0.00000  Uiso   1.00
H310   H     0.83015   0.39483   0.43996   0.00000  Uiso   1.00
H311   H     0.66464   0.86049   0.47329   0.00000  Uiso   1.00
H312   H     0.27679   0.30225   0.49546   0.00000  Uiso   1.00
H313   H     0.00708   0.29932   0.38931   0.00000  Uiso   1.00
O314   O     0.62172   0.99141   0.40505   0.00000  Uiso   1.00
O315   O     0.11289   0.25902   0.43413   0.00000  Uiso   1.00
O316   O     0.07101   0.25516   0.29487   0.00000  Uiso   1.00
N317   N     0.59045   0.85855   0.35709   0.00000  Uiso   1.00
N318   N     0.22783   0.33664   0.37782   0.00000  Uiso   1.00
N319   N     0.91057   0.33387   0.27858   0.00000  Uiso   1.00
N320   N     0.64169   0.84292   0.43745   0.00000  Uiso   1.00
N321   N     0.27906   0.32101   0.45818   0.00000  Uiso   1.00
N322   N     0.96181   0.31824   0.35894   0.00000  Uiso   1.00
C323   C     0.19953   0.01728   0.68203   0.00000  Uiso   1.00
C324   C     0.17789   0.11931   0.67348   0.00000  Uiso   1.00
C325   C     0.18807   0.18788   0.71031   0.00000  Uiso   1.00
C326   C     0.16456   0.27700   0.69487   0.00000  Uiso   1.00
C327   C     0.13595   0.43243   0.68928   0.00000  Uiso   1.00
C328   C     0.28378   0.98985   0.64204   0.00000  Uiso   1.00
C329   C     0.38299   0.94956   0.65244   0.00000  Uiso   1.00
C330   C     0.44860   0.92969   0.61053   0.00000  Uiso   1.00
C331   C     0.58436   0.88406   0.55612   0.00000  Uiso   1.00
C332   C     0.09589   0.96758   0.66687   0.00000  Uiso   1.00
C333   C     0.03713   0.90856   0.69814   0.00000  Uiso   1.00
C334   C     0.94456   0.86993   0.67712   0.00000  Uiso   1.00
C335   C     0.78860   0.78974   0.66127   0.00000  Uiso   1.00
C336   C     0.13964   0.05360   0.58911   0.00000  Uiso   1.00
C337   C     0.14536   0.13903   0.62302   0.00000  Uiso   1.00
C338   C     0.12181   0.22807   0.60751   0.00000  Uiso   1.00
C339   C     0.13196   0.29677   0.64431   0.00000  Uiso   1.00
C340   C     0.25125   0.00957   0.59158   0.00000  Uiso   1.00
C341   C     0.31673   0.98975   0.54964   0.00000  Uiso   1.00
C342   C     0.41602   0.94946   0.55997   0.00000  Uiso   1.00
C343   C     0.06336   0.98731   0.61641   0.00000  Uiso   1.00
C344   C     0.97087   0.94876   0.59534   0.00000  Uiso   1.00
C345   C     0.91198   0.88969   0.62657   0.00000  Uiso   1.00
H346   H     0.22486   0.00192   0.72131   0.00000  Uiso   1.00
H347   H     0.21326   0.17259   0.74936   0.00000  Uiso   1.00
H348   H     0.40814   0.93430   0.69150   0.00000  Uiso   1.00
H349   H     0.06233   0.89331   0.73719   0.00000  Uiso   1.00
H350   H     0.18609   0.37051   0.75820   0.00000  Uiso   1.00
H351   H     0.59699   0.86803   0.63618   0.00000  Uiso   1.00
H352   H     0.86779   0.78160   0.73254   0.00000  Uiso   1.00
H353   H     0.11432   0.06896   0.54982   0.00000  Uiso   1.00
H354   H     0.09665   0.24332   0.56846   0.00000  Uiso   1.00
H355   H     0.29153   0.00502   0.51059   0.00000  Uiso   1.00
H356   H     0.94572   0.96404   0.55628   0.00000  Uiso   1.00
H357   H     0.09145   0.42792   0.61137   0.00000  Uiso   1.00
H358   H     0.50235   0.92544   0.48935   0.00000  Uiso   1.00
H359   H     0.77314   0.83901   0.58571   0.00000  Uiso   1.00
O360   O     0.12918   0.51271   0.70013   0.00000  Uiso   1.00
O361   O     0.66824   0.85346   0.54006   0.00000  Uiso   1.00
O362   O     0.71155   0.74007   0.66647   0.00000  Uiso   1.00
N363   N     0.16622   0.36009   0.72108   0.00000  Uiso   1.00
N364   N     0.55039   0.89032   0.60701   0.00000  Uiso   1.00
N365   N     0.86867   0.80949   0.69709   0.00000  Uiso   1.00
N366   N     0.11529   0.39098   0.64208   0.00000  Uiso   1.00
N367   N     0.49946   0.92121   0.52800   0.00000  Uiso   1.00
N368   N     0.81774   0.84038   0.61808   0.00000  Uiso   1.00
