data_job_05623
_audit_creation_date              2018-12-19
_audit_creation_method            'Materials Studio'
_symmetry_space_group_name_H-M    'P1'
_symmetry_Int_Tables_number       1
_symmetry_cell_setting            triclinic
loop_
_symmetry_equiv_pos_as_xyz
  x,y,z
_cell_length_a                    20.8438
_cell_length_b                    16.8552
_cell_length_c                    32.6265
_cell_angle_alpha                 90.0000
_cell_angle_beta                  146.5822
_cell_angle_gamma                 90.0000
loop_
_atom_site_label
_atom_site_type_symbol
_atom_site_fract_x
_atom_site_fract_y
_atom_site_fract_z
_atom_site_U_iso_or_equiv
_atom_site_adp_type
_atom_site_occupancy
C1     C     0.24992   0.65773   0.69540   0.00000  Uiso   1.00
C2     C     0.38138   0.65666   0.77221   0.00000  Uiso   1.00
C3     C     0.46368   0.62914   0.78837   0.00000  Uiso   1.00
C4     C     0.57964   0.63322   0.86211   0.00000  Uiso   1.00
C5     C     0.77882   0.62689   0.97294   0.00000  Uiso   1.00
C6     C     0.19734   0.61138   0.70298   0.00000  Uiso   1.00
C7     C     0.12490   0.54579   0.66093   0.00000  Uiso   1.00
C8     C     0.08592   0.51176   0.67640   0.00000  Uiso   1.00
C9     C     0.99932   0.43516   0.67971   0.00000  Uiso   1.00
C10    C     0.21188   0.74364   0.68105   0.00000  Uiso   1.00
C11    C     0.15162   0.78925   0.62055   0.00000  Uiso   1.00
C12    C     0.12486   0.86657   0.61755   0.00000  Uiso   1.00
C13    C     0.06083   0.99532   0.58681   0.00000  Uiso   1.00
C14    C     0.30950   0.71392   0.79761   0.00000  Uiso   1.00
C15    C     0.41373   0.68718   0.82772   0.00000  Uiso   1.00
C16    C     0.52959   0.69131   0.90146   0.00000  Uiso   1.00
C17    C     0.61206   0.66380   0.91773   0.00000  Uiso   1.00
C18    C     0.22970   0.64190   0.75850   0.00000  Uiso   1.00
C19    C     0.19081   0.60796   0.77402   0.00000  Uiso   1.00
C20    C     0.11834   0.54234   0.73202   0.00000  Uiso   1.00
C21    C     0.24424   0.77416   0.73657   0.00000  Uiso   1.00
C22    C     0.21755   0.85142   0.73365   0.00000  Uiso   1.00
C23    C     0.15728   0.89715   0.67316   0.00000  Uiso   1.00
H24    H     0.22473   0.63396   0.65217   0.00000  Uiso   1.00
H25    H     0.43860   0.60552   0.74539   0.00000  Uiso   1.00
H26    H     0.09987   0.52219   0.61797   0.00000  Uiso   1.00
H27    H     0.12660   0.76561   0.57760   0.00000  Uiso   1.00
H28    H     0.68999   0.58742   0.87323   0.00000  Uiso   1.00
H29    H     0.97572   0.41173   0.60454   0.00000  Uiso   1.00
H30    H     0.03208   0.92503   0.51941   0.00000  Uiso   1.00
H31    H     0.33469   0.73768   0.84083   0.00000  Uiso   1.00
H32    H     0.55461   0.71494   0.94441   0.00000  Uiso   1.00
H33    H     0.21587   0.63160   0.81699   0.00000  Uiso   1.00
H34    H     0.24260   0.87502   0.77662   0.00000  Uiso   1.00
H35    H     0.78414   0.67622   0.03476   0.00000  Uiso   1.00
H36    H     0.06986   0.50053   0.76607   0.00000  Uiso   1.00
H37    H     0.12623   0.01384   0.68095   0.00000  Uiso   1.00
O38    O     0.87975   0.61496   0.01873   0.00000  Uiso   1.00
O39    O     0.94263   0.38447   0.66621   0.00000  Uiso   1.00
O40    O     0.01659   0.05791   0.55453   0.00000  Uiso   1.00
N41    N     0.68197   0.61145   0.89703   0.00000  Uiso   1.00
N42    N     0.01418   0.44719   0.64583   0.00000  Uiso   1.00
N43    N     0.06685   0.92708   0.56623   0.00000  Uiso   1.00
N44    N     0.73263   0.65924   0.98395   0.00000  Uiso   1.00
N45    N     0.06484   0.49497   0.73275   0.00000  Uiso   1.00
N46    N     0.11751   0.97486   0.65315   0.00000  Uiso   1.00
C47    C     0.74992   0.15773   0.69540   0.00000  Uiso   1.00
C48    C     0.88138   0.15666   0.77221   0.00000  Uiso   1.00
C49    C     0.96368   0.12914   0.78837   0.00000  Uiso   1.00
C50    C     0.07964   0.13322   0.86211   0.00000  Uiso   1.00
C51    C     0.27882   0.12689   0.97294   0.00000  Uiso   1.00
C52    C     0.69734   0.11138   0.70298   0.00000  Uiso   1.00
C53    C     0.62490   0.04579   0.66093   0.00000  Uiso   1.00
C54    C     0.58592   0.01176   0.67640   0.00000  Uiso   1.00
C55    C     0.49932   0.93516   0.67971   0.00000  Uiso   1.00
C56    C     0.71188   0.24364   0.68105   0.00000  Uiso   1.00
C57    C     0.65162   0.28925   0.62055   0.00000  Uiso   1.00
C58    C     0.62486   0.36657   0.61755   0.00000  Uiso   1.00
C59    C     0.56083   0.49532   0.58681   0.00000  Uiso   1.00
C60    C     0.80950   0.21392   0.79761   0.00000  Uiso   1.00
C61    C     0.91373   0.18718   0.82772   0.00000  Uiso   1.00
C62    C     0.02959   0.19131   0.90146   0.00000  Uiso   1.00
C63    C     0.11206   0.16380   0.91773   0.00000  Uiso   1.00
C64    C     0.72970   0.14190   0.75850   0.00000  Uiso   1.00
C65    C     0.69081   0.10796   0.77402   0.00000  Uiso   1.00
C66    C     0.61834   0.04234   0.73202   0.00000  Uiso   1.00
C67    C     0.74424   0.27416   0.73657   0.00000  Uiso   1.00
C68    C     0.71755   0.35142   0.73365   0.00000  Uiso   1.00
C69    C     0.65728   0.39715   0.67316   0.00000  Uiso   1.00
H70    H     0.72473   0.13396   0.65217   0.00000  Uiso   1.00
H71    H     0.93860   0.10552   0.74539   0.00000  Uiso   1.00
H72    H     0.59987   0.02219   0.61797   0.00000  Uiso   1.00
H73    H     0.62660   0.26561   0.57760   0.00000  Uiso   1.00
H74    H     0.18999   0.08742   0.87323   0.00000  Uiso   1.00
H75    H     0.47572   0.91173   0.60454   0.00000  Uiso   1.00
H76    H     0.53208   0.42503   0.51941   0.00000  Uiso   1.00
H77    H     0.83469   0.23768   0.84083   0.00000  Uiso   1.00
H78    H     0.05461   0.21494   0.94441   0.00000  Uiso   1.00
H79    H     0.71587   0.13160   0.81699   0.00000  Uiso   1.00
H80    H     0.74260   0.37502   0.77662   0.00000  Uiso   1.00
H81    H     0.28414   0.17622   0.03476   0.00000  Uiso   1.00
H82    H     0.56986   0.00053   0.76607   0.00000  Uiso   1.00
H83    H     0.62623   0.51384   0.68095   0.00000  Uiso   1.00
O84    O     0.37975   0.11496   0.01873   0.00000  Uiso   1.00
O85    O     0.44263   0.88447   0.66621   0.00000  Uiso   1.00
O86    O     0.51659   0.55791   0.55453   0.00000  Uiso   1.00
N87    N     0.18197   0.11145   0.89703   0.00000  Uiso   1.00
N88    N     0.51418   0.94719   0.64583   0.00000  Uiso   1.00
N89    N     0.56685   0.42708   0.56623   0.00000  Uiso   1.00
N90    N     0.23263   0.15924   0.98395   0.00000  Uiso   1.00
N91    N     0.56484   0.99497   0.73275   0.00000  Uiso   1.00
N92    N     0.61751   0.47486   0.65315   0.00000  Uiso   1.00
C93    C     0.75008   0.65773   0.80460   0.00000  Uiso   1.00
C94    C     0.61862   0.65666   0.72779   0.00000  Uiso   1.00
C95    C     0.53632   0.62914   0.71163   0.00000  Uiso   1.00
C96    C     0.42036   0.63322   0.63789   0.00000  Uiso   1.00
C97    C     0.22118   0.62689   0.52706   0.00000  Uiso   1.00
C98    C     0.80266   0.61138   0.79702   0.00000  Uiso   1.00
C99    C     0.87510   0.54579   0.83907   0.00000  Uiso   1.00
C100   C     0.91408   0.51176   0.82360   0.00000  Uiso   1.00
C101   C     0.00068   0.43516   0.82029   0.00000  Uiso   1.00
C102   C     0.78812   0.74364   0.81895   0.00000  Uiso   1.00
C103   C     0.84838   0.78925   0.87945   0.00000  Uiso   1.00
C104   C     0.87514   0.86657   0.88245   0.00000  Uiso   1.00
C105   C     0.93917   0.99532   0.91319   0.00000  Uiso   1.00
C106   C     0.69050   0.71392   0.70239   0.00000  Uiso   1.00
C107   C     0.58627   0.68718   0.67228   0.00000  Uiso   1.00
C108   C     0.47041   0.69131   0.59854   0.00000  Uiso   1.00
C109   C     0.38794   0.66380   0.58227   0.00000  Uiso   1.00
C110   C     0.77030   0.64190   0.74150   0.00000  Uiso   1.00
C111   C     0.80919   0.60796   0.72598   0.00000  Uiso   1.00
C112   C     0.88166   0.54234   0.76798   0.00000  Uiso   1.00
C113   C     0.75576   0.77416   0.76343   0.00000  Uiso   1.00
C114   C     0.78245   0.85142   0.76635   0.00000  Uiso   1.00
C115   C     0.84272   0.89715   0.82684   0.00000  Uiso   1.00
H116   H     0.77527   0.63396   0.84783   0.00000  Uiso   1.00
H117   H     0.56140   0.60552   0.75461   0.00000  Uiso   1.00
H118   H     0.90013   0.52219   0.88203   0.00000  Uiso   1.00
H119   H     0.87340   0.76561   0.92240   0.00000  Uiso   1.00
H120   H     0.31001   0.58742   0.62677   0.00000  Uiso   1.00
H121   H     0.02428   0.41173   0.89546   0.00000  Uiso   1.00
H122   H     0.96792   0.92503   0.98059   0.00000  Uiso   1.00
H123   H     0.66531   0.73768   0.65917   0.00000  Uiso   1.00
H124   H     0.44539   0.71494   0.55559   0.00000  Uiso   1.00
H125   H     0.78413   0.63160   0.68301   0.00000  Uiso   1.00
H126   H     0.75740   0.87502   0.72338   0.00000  Uiso   1.00
H127   H     0.21586   0.67622   0.46524   0.00000  Uiso   1.00
H128   H     0.93014   0.50053   0.73393   0.00000  Uiso   1.00
H129   H     0.87377   0.01384   0.81905   0.00000  Uiso   1.00
O130   O     0.12025   0.61496   0.48127   0.00000  Uiso   1.00
O131   O     0.05737   0.38447   0.83379   0.00000  Uiso   1.00
O132   O     0.98341   0.05791   0.94547   0.00000  Uiso   1.00
N133   N     0.31803   0.61145   0.60297   0.00000  Uiso   1.00
N134   N     0.98582   0.44719   0.85417   0.00000  Uiso   1.00
N135   N     0.93315   0.92708   0.93377   0.00000  Uiso   1.00
N136   N     0.26737   0.65924   0.51605   0.00000  Uiso   1.00
N137   N     0.93516   0.49497   0.76725   0.00000  Uiso   1.00
N138   N     0.88249   0.97486   0.84685   0.00000  Uiso   1.00
C139   C     0.25008   0.15773   0.80460   0.00000  Uiso   1.00
C140   C     0.11862   0.15666   0.72779   0.00000  Uiso   1.00
C141   C     0.03632   0.12914   0.71163   0.00000  Uiso   1.00
C142   C     0.92036   0.13322   0.63789   0.00000  Uiso   1.00
C143   C     0.72118   0.12689   0.52706   0.00000  Uiso   1.00
C144   C     0.30266   0.11138   0.79702   0.00000  Uiso   1.00
C145   C     0.37510   0.04579   0.83907   0.00000  Uiso   1.00
C146   C     0.41408   0.01176   0.82360   0.00000  Uiso   1.00
C147   C     0.50068   0.93516   0.82029   0.00000  Uiso   1.00
C148   C     0.28812   0.24364   0.81895   0.00000  Uiso   1.00
C149   C     0.34838   0.28925   0.87945   0.00000  Uiso   1.00
C150   C     0.37514   0.36657   0.88245   0.00000  Uiso   1.00
C151   C     0.43917   0.49532   0.91319   0.00000  Uiso   1.00
C152   C     0.19050   0.21392   0.70239   0.00000  Uiso   1.00
C153   C     0.08627   0.18718   0.67228   0.00000  Uiso   1.00
C154   C     0.97041   0.19131   0.59854   0.00000  Uiso   1.00
C155   C     0.88794   0.16380   0.58227   0.00000  Uiso   1.00
C156   C     0.27030   0.14190   0.74150   0.00000  Uiso   1.00
C157   C     0.30919   0.10796   0.72598   0.00000  Uiso   1.00
C158   C     0.38166   0.04234   0.76798   0.00000  Uiso   1.00
C159   C     0.25576   0.27416   0.76343   0.00000  Uiso   1.00
C160   C     0.28245   0.35142   0.76635   0.00000  Uiso   1.00
C161   C     0.34272   0.39715   0.82684   0.00000  Uiso   1.00
H162   H     0.27527   0.13396   0.84783   0.00000  Uiso   1.00
H163   H     0.06140   0.10552   0.75461   0.00000  Uiso   1.00
H164   H     0.40013   0.02219   0.88203   0.00000  Uiso   1.00
H165   H     0.37340   0.26561   0.92240   0.00000  Uiso   1.00
H166   H     0.81001   0.08742   0.62677   0.00000  Uiso   1.00
H167   H     0.52428   0.91173   0.89546   0.00000  Uiso   1.00
H168   H     0.46792   0.42503   0.98059   0.00000  Uiso   1.00
H169   H     0.16531   0.23768   0.65917   0.00000  Uiso   1.00
H170   H     0.94539   0.21494   0.55559   0.00000  Uiso   1.00
H171   H     0.28413   0.13160   0.68301   0.00000  Uiso   1.00
H172   H     0.25740   0.37502   0.72338   0.00000  Uiso   1.00
H173   H     0.71586   0.17622   0.46524   0.00000  Uiso   1.00
H174   H     0.43014   0.00053   0.73393   0.00000  Uiso   1.00
H175   H     0.37377   0.51384   0.81905   0.00000  Uiso   1.00
O176   O     0.62025   0.11496   0.48127   0.00000  Uiso   1.00
O177   O     0.55737   0.88447   0.83379   0.00000  Uiso   1.00
O178   O     0.48341   0.55791   0.94547   0.00000  Uiso   1.00
N179   N     0.81803   0.11145   0.60297   0.00000  Uiso   1.00
N180   N     0.48582   0.94719   0.85417   0.00000  Uiso   1.00
N181   N     0.43315   0.42708   0.93377   0.00000  Uiso   1.00
N182   N     0.76737   0.15924   0.51605   0.00000  Uiso   1.00
N183   N     0.43516   0.99497   0.76725   0.00000  Uiso   1.00
N184   N     0.38249   0.47486   0.84685   0.00000  Uiso   1.00
C185   C     0.75008   0.34227   0.30460   0.00000  Uiso   1.00
C186   C     0.61862   0.34334   0.22779   0.00000  Uiso   1.00
C187   C     0.53632   0.37086   0.21163   0.00000  Uiso   1.00
C188   C     0.42036   0.36678   0.13789   0.00000  Uiso   1.00
C189   C     0.22118   0.37311   0.02706   0.00000  Uiso   1.00
C190   C     0.80266   0.38862   0.29702   0.00000  Uiso   1.00
C191   C     0.87510   0.45421   0.33907   0.00000  Uiso   1.00
C192   C     0.91408   0.48824   0.32360   0.00000  Uiso   1.00
C193   C     0.00068   0.56484   0.32029   0.00000  Uiso   1.00
C194   C     0.78812   0.25636   0.31895   0.00000  Uiso   1.00
C195   C     0.84838   0.21075   0.37945   0.00000  Uiso   1.00
C196   C     0.87514   0.13343   0.38245   0.00000  Uiso   1.00
C197   C     0.93917   0.00468   0.41319   0.00000  Uiso   1.00
C198   C     0.69050   0.28608   0.20239   0.00000  Uiso   1.00
C199   C     0.58627   0.31282   0.17228   0.00000  Uiso   1.00
C200   C     0.47041   0.30869   0.09854   0.00000  Uiso   1.00
C201   C     0.38794   0.33620   0.08227   0.00000  Uiso   1.00
C202   C     0.77030   0.35810   0.24150   0.00000  Uiso   1.00
C203   C     0.80919   0.39204   0.22598   0.00000  Uiso   1.00
C204   C     0.88166   0.45766   0.26798   0.00000  Uiso   1.00
C205   C     0.75576   0.22584   0.26343   0.00000  Uiso   1.00
C206   C     0.78245   0.14858   0.26635   0.00000  Uiso   1.00
C207   C     0.84272   0.10285   0.32684   0.00000  Uiso   1.00
H208   H     0.77527   0.36604   0.34783   0.00000  Uiso   1.00
H209   H     0.56140   0.39448   0.25461   0.00000  Uiso   1.00
H210   H     0.90013   0.47781   0.38203   0.00000  Uiso   1.00
H211   H     0.87340   0.23439   0.42240   0.00000  Uiso   1.00
H212   H     0.31001   0.41258   0.12677   0.00000  Uiso   1.00
H213   H     0.02428   0.58827   0.39546   0.00000  Uiso   1.00
H214   H     0.96792   0.07497   0.48059   0.00000  Uiso   1.00
H215   H     0.66531   0.26232   0.15917   0.00000  Uiso   1.00
H216   H     0.44539   0.28506   0.05559   0.00000  Uiso   1.00
H217   H     0.78413   0.36840   0.18301   0.00000  Uiso   1.00
H218   H     0.75740   0.12498   0.22338   0.00000  Uiso   1.00
H219   H     0.21586   0.32378   0.96524   0.00000  Uiso   1.00
H220   H     0.93014   0.49947   0.23393   0.00000  Uiso   1.00
H221   H     0.87377   0.98616   0.31905   0.00000  Uiso   1.00
O222   O     0.12025   0.38504   0.98127   0.00000  Uiso   1.00
O223   O     0.05737   0.61553   0.33379   0.00000  Uiso   1.00
O224   O     0.98341   0.94209   0.44547   0.00000  Uiso   1.00
N225   N     0.31803   0.38855   0.10297   0.00000  Uiso   1.00
N226   N     0.98582   0.55281   0.35417   0.00000  Uiso   1.00
N227   N     0.93315   0.07292   0.43377   0.00000  Uiso   1.00
N228   N     0.26737   0.34076   0.01605   0.00000  Uiso   1.00
N229   N     0.93516   0.50503   0.26725   0.00000  Uiso   1.00
N230   N     0.88249   0.02514   0.34685   0.00000  Uiso   1.00
C231   C     0.25008   0.84227   0.30460   0.00000  Uiso   1.00
C232   C     0.11862   0.84334   0.22779   0.00000  Uiso   1.00
C233   C     0.03632   0.87086   0.21163   0.00000  Uiso   1.00
C234   C     0.92036   0.86678   0.13789   0.00000  Uiso   1.00
C235   C     0.72118   0.87311   0.02706   0.00000  Uiso   1.00
C236   C     0.30266   0.88862   0.29702   0.00000  Uiso   1.00
C237   C     0.37510   0.95421   0.33907   0.00000  Uiso   1.00
C238   C     0.41408   0.98824   0.32360   0.00000  Uiso   1.00
C239   C     0.50068   0.06484   0.32029   0.00000  Uiso   1.00
C240   C     0.28812   0.75636   0.31895   0.00000  Uiso   1.00
C241   C     0.34838   0.71075   0.37945   0.00000  Uiso   1.00
C242   C     0.37514   0.63343   0.38245   0.00000  Uiso   1.00
C243   C     0.43917   0.50468   0.41319   0.00000  Uiso   1.00
C244   C     0.19050   0.78608   0.20239   0.00000  Uiso   1.00
C245   C     0.08627   0.81282   0.17228   0.00000  Uiso   1.00
C246   C     0.97041   0.80869   0.09854   0.00000  Uiso   1.00
C247   C     0.88794   0.83620   0.08227   0.00000  Uiso   1.00
C248   C     0.27030   0.85810   0.24150   0.00000  Uiso   1.00
C249   C     0.30919   0.89204   0.22598   0.00000  Uiso   1.00
C250   C     0.38166   0.95766   0.26798   0.00000  Uiso   1.00
C251   C     0.25576   0.72584   0.26343   0.00000  Uiso   1.00
C252   C     0.28245   0.64858   0.26635   0.00000  Uiso   1.00
C253   C     0.34272   0.60285   0.32684   0.00000  Uiso   1.00
H254   H     0.27527   0.86604   0.34783   0.00000  Uiso   1.00
H255   H     0.06140   0.89448   0.25461   0.00000  Uiso   1.00
H256   H     0.40013   0.97781   0.38203   0.00000  Uiso   1.00
H257   H     0.37340   0.73439   0.42240   0.00000  Uiso   1.00
H258   H     0.81001   0.91258   0.12677   0.00000  Uiso   1.00
H259   H     0.52428   0.08827   0.39546   0.00000  Uiso   1.00
H260   H     0.46792   0.57497   0.48059   0.00000  Uiso   1.00
H261   H     0.16531   0.76232   0.15917   0.00000  Uiso   1.00
H262   H     0.94539   0.78506   0.05559   0.00000  Uiso   1.00
H263   H     0.28413   0.86840   0.18301   0.00000  Uiso   1.00
H264   H     0.25740   0.62498   0.22338   0.00000  Uiso   1.00
H265   H     0.71586   0.82378   0.96524   0.00000  Uiso   1.00
H266   H     0.43014   0.99947   0.23393   0.00000  Uiso   1.00
H267   H     0.37377   0.48616   0.31905   0.00000  Uiso   1.00
O268   O     0.62025   0.88504   0.98127   0.00000  Uiso   1.00
O269   O     0.55737   0.11553   0.33379   0.00000  Uiso   1.00
O270   O     0.48341   0.44209   0.44547   0.00000  Uiso   1.00
N271   N     0.81803   0.88855   0.10297   0.00000  Uiso   1.00
N272   N     0.48582   0.05281   0.35417   0.00000  Uiso   1.00
N273   N     0.43315   0.57292   0.43377   0.00000  Uiso   1.00
N274   N     0.76737   0.84076   0.01605   0.00000  Uiso   1.00
N275   N     0.43516   0.00503   0.26725   0.00000  Uiso   1.00
N276   N     0.38249   0.52514   0.34685   0.00000  Uiso   1.00
C277   C     0.24992   0.34227   0.19540   0.00000  Uiso   1.00
C278   C     0.38138   0.34334   0.27221   0.00000  Uiso   1.00
C279   C     0.46368   0.37086   0.28837   0.00000  Uiso   1.00
C280   C     0.57964   0.36678   0.36211   0.00000  Uiso   1.00
C281   C     0.77882   0.37311   0.47294   0.00000  Uiso   1.00
C282   C     0.19734   0.38862   0.20298   0.00000  Uiso   1.00
C283   C     0.12490   0.45421   0.16093   0.00000  Uiso   1.00
C284   C     0.08592   0.48824   0.17640   0.00000  Uiso   1.00
C285   C     0.99932   0.56484   0.17971   0.00000  Uiso   1.00
C286   C     0.21188   0.25636   0.18105   0.00000  Uiso   1.00
C287   C     0.15162   0.21075   0.12055   0.00000  Uiso   1.00
C288   C     0.12486   0.13343   0.11755   0.00000  Uiso   1.00
C289   C     0.06083   0.00468   0.08681   0.00000  Uiso   1.00
C290   C     0.30950   0.28608   0.29761   0.00000  Uiso   1.00
C291   C     0.41373   0.31282   0.32772   0.00000  Uiso   1.00
C292   C     0.52959   0.30869   0.40146   0.00000  Uiso   1.00
C293   C     0.61206   0.33620   0.41773   0.00000  Uiso   1.00
C294   C     0.22970   0.35810   0.25850   0.00000  Uiso   1.00
C295   C     0.19081   0.39204   0.27402   0.00000  Uiso   1.00
C296   C     0.11834   0.45766   0.23202   0.00000  Uiso   1.00
C297   C     0.24424   0.22584   0.23657   0.00000  Uiso   1.00
C298   C     0.21755   0.14858   0.23365   0.00000  Uiso   1.00
C299   C     0.15728   0.10285   0.17316   0.00000  Uiso   1.00
H300   H     0.22473   0.36604   0.15217   0.00000  Uiso   1.00
H301   H     0.43860   0.39448   0.24539   0.00000  Uiso   1.00
H302   H     0.09987   0.47781   0.11797   0.00000  Uiso   1.00
H303   H     0.12660   0.23439   0.07760   0.00000  Uiso   1.00
H304   H     0.68999   0.41258   0.37323   0.00000  Uiso   1.00
H305   H     0.97572   0.58827   0.10454   0.00000  Uiso   1.00
H306   H     0.03208   0.07497   0.01941   0.00000  Uiso   1.00
H307   H     0.33469   0.26232   0.34083   0.00000  Uiso   1.00
H308   H     0.55461   0.28506   0.44441   0.00000  Uiso   1.00
H309   H     0.21587   0.36840   0.31699   0.00000  Uiso   1.00
H310   H     0.24260   0.12498   0.27662   0.00000  Uiso   1.00
H311   H     0.78414   0.32378   0.53476   0.00000  Uiso   1.00
H312   H     0.06986   0.49947   0.26607   0.00000  Uiso   1.00
H313   H     0.12623   0.98616   0.18095   0.00000  Uiso   1.00
O314   O     0.87975   0.38504   0.51873   0.00000  Uiso   1.00
O315   O     0.94263   0.61553   0.16621   0.00000  Uiso   1.00
O316   O     0.01659   0.94209   0.05453   0.00000  Uiso   1.00
N317   N     0.68197   0.38855   0.39703   0.00000  Uiso   1.00
N318   N     0.01418   0.55281   0.14583   0.00000  Uiso   1.00
N319   N     0.06685   0.07292   0.06623   0.00000  Uiso   1.00
N320   N     0.73263   0.34076   0.48395   0.00000  Uiso   1.00
N321   N     0.06484   0.50503   0.23275   0.00000  Uiso   1.00
N322   N     0.11751   0.02514   0.15315   0.00000  Uiso   1.00
C323   C     0.74992   0.84227   0.19540   0.00000  Uiso   1.00
C324   C     0.88138   0.84334   0.27221   0.00000  Uiso   1.00
C325   C     0.96368   0.87086   0.28837   0.00000  Uiso   1.00
C326   C     0.07964   0.86678   0.36211   0.00000  Uiso   1.00
C327   C     0.27882   0.87311   0.47294   0.00000  Uiso   1.00
C328   C     0.69734   0.88862   0.20298   0.00000  Uiso   1.00
C329   C     0.62490   0.95421   0.16093   0.00000  Uiso   1.00
C330   C     0.58592   0.98824   0.17640   0.00000  Uiso   1.00
C331   C     0.49932   0.06484   0.17971   0.00000  Uiso   1.00
C332   C     0.71188   0.75636   0.18105   0.00000  Uiso   1.00
C333   C     0.65162   0.71075   0.12055   0.00000  Uiso   1.00
C334   C     0.62486   0.63343   0.11755   0.00000  Uiso   1.00
C335   C     0.56083   0.50468   0.08681   0.00000  Uiso   1.00
C336   C     0.80950   0.78608   0.29761   0.00000  Uiso   1.00
C337   C     0.91373   0.81282   0.32772   0.00000  Uiso   1.00
C338   C     0.02959   0.80869   0.40146   0.00000  Uiso   1.00
C339   C     0.11206   0.83620   0.41773   0.00000  Uiso   1.00
C340   C     0.72970   0.85810   0.25850   0.00000  Uiso   1.00
C341   C     0.69081   0.89204   0.27402   0.00000  Uiso   1.00
C342   C     0.61834   0.95766   0.23202   0.00000  Uiso   1.00
C343   C     0.74424   0.72584   0.23657   0.00000  Uiso   1.00
C344   C     0.71755   0.64858   0.23365   0.00000  Uiso   1.00
C345   C     0.65728   0.60285   0.17316   0.00000  Uiso   1.00
H346   H     0.72473   0.86604   0.15217   0.00000  Uiso   1.00
H347   H     0.93860   0.89448   0.24539   0.00000  Uiso   1.00
H348   H     0.59987   0.97781   0.11797   0.00000  Uiso   1.00
H349   H     0.62660   0.73439   0.07760   0.00000  Uiso   1.00
H350   H     0.18999   0.91258   0.37323   0.00000  Uiso   1.00
H351   H     0.47572   0.08827   0.10454   0.00000  Uiso   1.00
H352   H     0.53208   0.57497   0.01941   0.00000  Uiso   1.00
H353   H     0.83469   0.76232   0.34083   0.00000  Uiso   1.00
H354   H     0.05461   0.78506   0.44441   0.00000  Uiso   1.00
H355   H     0.71587   0.86840   0.31699   0.00000  Uiso   1.00
H356   H     0.74260   0.62498   0.27662   0.00000  Uiso   1.00
H357   H     0.28414   0.82378   0.53476   0.00000  Uiso   1.00
H358   H     0.56986   0.99947   0.26607   0.00000  Uiso   1.00
H359   H     0.62623   0.48616   0.18095   0.00000  Uiso   1.00
O360   O     0.37975   0.88504   0.51873   0.00000  Uiso   1.00
O361   O     0.44263   0.11553   0.16621   0.00000  Uiso   1.00
O362   O     0.51659   0.44209   0.05453   0.00000  Uiso   1.00
N363   N     0.18197   0.88855   0.39703   0.00000  Uiso   1.00
N364   N     0.51418   0.05281   0.14583   0.00000  Uiso   1.00
N365   N     0.56685   0.57292   0.06623   0.00000  Uiso   1.00
N366   N     0.23263   0.84076   0.48395   0.00000  Uiso   1.00
N367   N     0.56484   0.00503   0.23275   0.00000  Uiso   1.00
N368   N     0.61751   0.52514   0.15315   0.00000  Uiso   1.00
