data_job_04643
_audit_creation_date              2018-12-19
_audit_creation_method            'Materials Studio'
_symmetry_space_group_name_H-M    'P1'
_symmetry_Int_Tables_number       1
_symmetry_cell_setting            triclinic
loop_
_symmetry_equiv_pos_as_xyz
  x,y,z
_cell_length_a                    12.5035
_cell_length_b                    12.5753
_cell_length_c                    20.1428
_cell_angle_alpha                 103.4959
_cell_angle_beta                  78.2107
_cell_angle_gamma                 112.4791
loop_
_atom_site_label
_atom_site_type_symbol
_atom_site_fract_x
_atom_site_fract_y
_atom_site_fract_z
_atom_site_U_iso_or_equiv
_atom_site_adp_type
_atom_site_occupancy
C1     C     0.25402   0.03107   0.77741   0.00000  Uiso   1.00
C2     C     0.37329   0.07615   0.80239   0.00000  Uiso   1.00
C3     C     0.40705   0.02533   0.84482   0.00000  Uiso   1.00
C4     C     0.51992   0.07993   0.86184   0.00000  Uiso   1.00
C5     C     0.69350   0.13449   0.90439   0.00000  Uiso   1.00
C6     C     0.20788   0.13176   0.79983   0.00000  Uiso   1.00
C7     C     0.10256   0.12769   0.84011   0.00000  Uiso   1.00
C8     C     0.07619   0.22911   0.85497   0.00000  Uiso   1.00
C9     C     0.99293   0.36997   0.89351   0.00000  Uiso   1.00
C10    C     0.27711   0.01368   0.69902   0.00000  Uiso   1.00
C11    C     0.22997   0.91032   0.65453   0.00000  Uiso   1.00
C12    C     0.26187   0.91232   0.58451   0.00000  Uiso   1.00
C13    C     0.28609   0.86984   0.46652   0.00000  Uiso   1.00
C14    C     0.39443   0.21840   0.73218   0.00000  Uiso   1.00
C15    C     0.44955   0.17791   0.77782   0.00000  Uiso   1.00
C16    C     0.56241   0.23260   0.79478   0.00000  Uiso   1.00
C17    C     0.59633   0.18187   0.83723   0.00000  Uiso   1.00
C18    C     0.28414   0.23351   0.77527   0.00000  Uiso   1.00
C19    C     0.25792   0.33495   0.79006   0.00000  Uiso   1.00
C20    C     0.15260   0.33104   0.83036   0.00000  Uiso   1.00
C21    C     0.35338   0.11543   0.67445   0.00000  Uiso   1.00
C22    C     0.38534   0.11759   0.60449   0.00000  Uiso   1.00
C23    C     0.33827   0.01426   0.55990   0.00000  Uiso   1.00
H24    H     0.19463   0.95186   0.79654   0.00000  Uiso   1.00
H25    H     0.34800   0.94660   0.86383   0.00000  Uiso   1.00
H26    H     0.04355   0.04894   0.85911   0.00000  Uiso   1.00
H27    H     0.17096   0.83160   0.67356   0.00000  Uiso   1.00
H28    H     0.55165   0.98566   0.92762   0.00000  Uiso   1.00
H29    H     0.90970   0.20144   0.91765   0.00000  Uiso   1.00
H30    H     0.17834   0.74315   0.52638   0.00000  Uiso   1.00
H31    H     0.45381   0.29762   0.71305   0.00000  Uiso   1.00
H32    H     0.62141   0.31134   0.77576   0.00000  Uiso   1.00
H33    H     0.31696   0.41368   0.77104   0.00000  Uiso   1.00
H34    H     0.44436   0.19634   0.58549   0.00000  Uiso   1.00
H35    H     0.77356   0.28170   0.85614   0.00000  Uiso   1.00
H36    H     0.13160   0.49748   0.84617   0.00000  Uiso   1.00
H37    H     0.40025   0.03919   0.45490   0.00000  Uiso   1.00
O38    O     0.76816   0.13648   0.93466   0.00000  Uiso   1.00
O39    O     0.92593   0.41956   0.92156   0.00000  Uiso   1.00
O40    O     0.27840   0.81830   0.40823   0.00000  Uiso   1.00
N41    N     0.58088   0.05344   0.90218   0.00000  Uiso   1.00
N42    N     0.98070   0.25518   0.89286   0.00000  Uiso   1.00
N43    N     0.23184   0.82673   0.52706   0.00000  Uiso   1.00
N44    N     0.70029   0.21273   0.86372   0.00000  Uiso   1.00
N45    N     0.10011   0.41448   0.85440   0.00000  Uiso   1.00
N46    N     0.35125   0.98602   0.48860   0.00000  Uiso   1.00
C47    C     0.06221   0.27618   0.13462   0.00000  Uiso   1.00
C48    C     0.10739   0.39107   0.10743   0.00000  Uiso   1.00
C49    C     0.05304   0.42068   0.06464   0.00000  Uiso   1.00
C50    C     0.10840   0.52996   0.04548   0.00000  Uiso   1.00
C51    C     0.16248   0.69665   0.99975   0.00000  Uiso   1.00
C52    C     0.15950   0.22543   0.11240   0.00000  Uiso   1.00
C53    C     0.14896   0.11576   0.07380   0.00000  Uiso   1.00
C54    C     0.24819   0.08560   0.05883   0.00000  Uiso   1.00
C55    C     0.38315   0.99510   0.02086   0.00000  Uiso   1.00
C56    C     0.05334   0.30893   0.21285   0.00000  Uiso   1.00
C57    C     0.95354   0.26946   0.25871   0.00000  Uiso   1.00
C58    C     0.96339   0.30958   0.32830   0.00000  Uiso   1.00
C59    C     0.93352   0.34873   0.44629   0.00000  Uiso   1.00
C60    C     0.25716   0.41759   0.17667   0.00000  Uiso   1.00
C61    C     0.21328   0.46788   0.13027   0.00000  Uiso   1.00
C62    C     0.26874   0.57714   0.11117   0.00000  Uiso   1.00
C63    C     0.21448   0.60691   0.06836   0.00000  Uiso   1.00
C64    C     0.26539   0.30223   0.13524   0.00000  Uiso   1.00
C65    C     0.36466   0.27222   0.12032   0.00000  Uiso   1.00
C66    C     0.35427   0.16255   0.08171   0.00000  Uiso   1.00
C67    C     0.15923   0.38574   0.23569   0.00000  Uiso   1.00
C68    C     0.16924   0.42592   0.30523   0.00000  Uiso   1.00
C69    C     0.06948   0.38652   0.35118   0.00000  Uiso   1.00
H70    H     0.97977   0.21637   0.11684   0.00000  Uiso   1.00
H71    H     0.97110   0.36121   0.04697   0.00000  Uiso   1.00
H72    H     0.06700   0.05634   0.05614   0.00000  Uiso   1.00
H73    H     0.87161   0.21002   0.24101   0.00000  Uiso   1.00
H74    H     0.00821   0.55565   0.97957   0.00000  Uiso   1.00
H75    H     0.21041   0.91280   0.99891   0.00000  Uiso   1.00
H76    H     0.79840   0.23685   0.38875   0.00000  Uiso   1.00
H77    H     0.33961   0.47739   0.19446   0.00000  Uiso   1.00
H78    H     0.35068   0.63656   0.12885   0.00000  Uiso   1.00
H79    H     0.44659   0.33168   0.13801   0.00000  Uiso   1.00
H80    H     0.25120   0.48536   0.32289   0.00000  Uiso   1.00
H81    H     0.31629   0.77913   0.04602   0.00000  Uiso   1.00
H82    H     0.51850   0.13627   0.06536   0.00000  Uiso   1.00
H83    H     0.10648   0.46033   0.45520   0.00000  Uiso   1.00
O84    O     0.16306   0.76737   0.96821   0.00000  Uiso   1.00
O85    O     0.42834   0.92396   0.99360   0.00000  Uiso   1.00
O86    O     0.88778   0.34912   0.50507   0.00000  Uiso   1.00
N87    N     0.07918   0.58641   0.00422   0.00000  Uiso   1.00
N88    N     0.26824   0.98539   0.02229   0.00000  Uiso   1.00
N89    N     0.88304   0.28832   0.38677   0.00000  Uiso   1.00
N90    N     0.24496   0.70667   0.03998   0.00000  Uiso   1.00
N91    N     0.43402   0.10564   0.05805   0.00000  Uiso   1.00
N92    N     0.04882   0.40858   0.42253   0.00000  Uiso   1.00
C93    C     0.90469   0.85773   0.16441   0.00000  Uiso   1.00
C94    C     0.84269   0.72643   0.16155   0.00000  Uiso   1.00
C95    C     0.84482   0.64124   0.10389   0.00000  Uiso   1.00
C96    C     0.78244   0.52599   0.11184   0.00000  Uiso   1.00
C97    C     0.69559   0.32652   0.09776   0.00000  Uiso   1.00
C98    C     0.81034   0.91192   0.19028   0.00000  Uiso   1.00
C99    C     0.78529   0.98271   0.15677   0.00000  Uiso   1.00
C100   C     0.69569   0.02361   0.18891   0.00000  Uiso   1.00
C101   C     0.55868   0.11220   0.21945   0.00000  Uiso   1.00
C102   C     0.98250   0.89836   0.22135   0.00000  Uiso   1.00
C103   C     0.10220   0.95778   0.21397   0.00000  Uiso   1.00
C104   C     0.15753   0.98729   0.27227   0.00000  Uiso   1.00
C105   C     0.28782   0.05482   0.35104   0.00000  Uiso   1.00
C106   C     0.79011   0.80452   0.28108   0.00000  Uiso   1.00
C107   C     0.78046   0.69754   0.22492   0.00000  Uiso   1.00
C108   C     0.71806   0.58238   0.23297   0.00000  Uiso   1.00
C109   C     0.72010   0.49703   0.17532   0.00000  Uiso   1.00
C110   C     0.74811   0.88303   0.25365   0.00000  Uiso   1.00
C111   C     0.65853   0.92384   0.28585   0.00000  Uiso   1.00
C112   C     0.63334   0.99466   0.25240   0.00000  Uiso   1.00
C113   C     0.92027   0.86946   0.28472   0.00000  Uiso   1.00
C114   C     0.97543   0.89890   0.34304   0.00000  Uiso   1.00
C115   C     0.09519   0.95834   0.33575   0.00000  Uiso   1.00
H116   H     0.95313   0.88023   0.11508   0.00000  Uiso   1.00
H117   H     0.89298   0.66364   0.05486   0.00000  Uiso   1.00
H118   H     0.83347   0.00507   0.10774   0.00000  Uiso   1.00
H119   H     0.15032   0.98013   0.16492   0.00000  Uiso   1.00
H120   H     0.79882   0.41078   0.01603   0.00000  Uiso   1.00
H121   H     0.67336   0.13071   0.12754   0.00000  Uiso   1.00
H122   H     0.34151   0.07813   0.24813   0.00000  Uiso   1.00
H123   H     0.74166   0.78202   0.33042   0.00000  Uiso   1.00
H124   H     0.66991   0.56004   0.28201   0.00000  Uiso   1.00
H125   H     0.61040   0.90146   0.33489   0.00000  Uiso   1.00
H126   H     0.92725   0.87652   0.39207   0.00000  Uiso   1.00
H127   H     0.61776   0.32669   0.20040   0.00000  Uiso   1.00
H128   H     0.49230   0.04663   0.31191   0.00000  Uiso   1.00
H129   H     0.16045   0.99404   0.43249   0.00000  Uiso   1.00
O130   O     0.66487   0.22448   0.07248   0.00000  Uiso   1.00
O131   O     0.50030   0.16903   0.21878   0.00000  Uiso   1.00
O132   O     0.37688   0.10003   0.37699   0.00000  Uiso   1.00
N133   N     0.76607   0.42145   0.06607   0.00000  Uiso   1.00
N134   N     0.64877   0.09453   0.17032   0.00000  Uiso   1.00
N135   N     0.27342   0.04540   0.28306   0.00000  Uiso   1.00
N136   N     0.66865   0.37620   0.16527   0.00000  Uiso   1.00
N137   N     0.55134   0.04929   0.26952   0.00000  Uiso   1.00
N138   N     0.17600   0.00015   0.38226   0.00000  Uiso   1.00
C139   C     0.84889   0.85375   0.73865   0.00000  Uiso   1.00
C140   C     0.71672   0.79633   0.74115   0.00000  Uiso   1.00
C141   C     0.63563   0.80553   0.79853   0.00000  Uiso   1.00
C142   C     0.51873   0.74639   0.79028   0.00000  Uiso   1.00
C143   C     0.31875   0.66720   0.80380   0.00000  Uiso   1.00
C144   C     0.89745   0.75500   0.71334   0.00000  Uiso   1.00
C145   C     0.96834   0.72947   0.74734   0.00000  Uiso   1.00
C146   C     0.00359   0.63555   0.71566   0.00000  Uiso   1.00
C147   C     0.08426   0.49226   0.68599   0.00000  Uiso   1.00
C148   C     0.88903   0.92674   0.68148   0.00000  Uiso   1.00
C149   C     0.95287   0.04560   0.68869   0.00000  Uiso   1.00
C150   C     0.98106   0.09626   0.63019   0.00000  Uiso   1.00
C151   C     0.04867   0.21962   0.55106   0.00000  Uiso   1.00
C152   C     0.78547   0.73237   0.62193   0.00000  Uiso   1.00
C153   C     0.68228   0.73040   0.67775   0.00000  Uiso   1.00
C154   C     0.56547   0.67123   0.66939   0.00000  Uiso   1.00
C155   C     0.48422   0.68034   0.72676   0.00000  Uiso   1.00
C156   C     0.86301   0.68907   0.64994   0.00000  Uiso   1.00
C157   C     0.89817   0.59517   0.61820   0.00000  Uiso   1.00
C158   C     0.96908   0.56950   0.65215   0.00000  Uiso   1.00
C159   C     0.85459   0.86081   0.61808   0.00000  Uiso   1.00
C160   C     0.88269   0.91130   0.55955   0.00000  Uiso   1.00
C161   C     0.94655   0.03022   0.56667   0.00000  Uiso   1.00
H162   H     0.87571   0.90508   0.78801   0.00000  Uiso   1.00
H163   H     0.66233   0.85655   0.84759   0.00000  Uiso   1.00
H164   H     0.99499   0.78051   0.79640   0.00000  Uiso   1.00
H165   H     0.97951   0.09659   0.73776   0.00000  Uiso   1.00
H166   H     0.41056   0.77364   0.88570   0.00000  Uiso   1.00
H167   H     0.11202   0.61333   0.77774   0.00000  Uiso   1.00
H168   H     0.07940   0.27985   0.65410   0.00000  Uiso   1.00
H169   H     0.75865   0.68104   0.57257   0.00000  Uiso   1.00
H170   H     0.53884   0.62022   0.62033   0.00000  Uiso   1.00
H171   H     0.87150   0.54418   0.56914   0.00000  Uiso   1.00
H172   H     0.85602   0.86026   0.51050   0.00000  Uiso   1.00
H173   H     0.31033   0.58182   0.70124   0.00000  Uiso   1.00
H174   H     0.01180   0.42151   0.59329   0.00000  Uiso   1.00
H175   H     0.97917   0.08803   0.46964   0.00000  Uiso   1.00
O176   O     0.21796   0.64173   0.82878   0.00000  Uiso   1.00
O177   O     0.13827   0.43143   0.68715   0.00000  Uiso   1.00
O178   O     0.09546   0.30588   0.52493   0.00000  Uiso   1.00
N179   N     0.41714   0.73686   0.83573   0.00000  Uiso   1.00
N180   N     0.07295   0.58697   0.73480   0.00000  Uiso   1.00
N181   N     0.04248   0.21010   0.61920   0.00000  Uiso   1.00
N182   N     0.36320   0.63364   0.73647   0.00000  Uiso   1.00
N183   N     0.01902   0.48375   0.63555   0.00000  Uiso   1.00
N184   N     0.98855   0.10688   0.51995   0.00000  Uiso   1.00
