data_job_04162
_audit_creation_date              2018-12-19
_audit_creation_method            'Materials Studio'
_symmetry_space_group_name_H-M    'P1'
_symmetry_Int_Tables_number       1
_symmetry_cell_setting            triclinic
loop_
_symmetry_equiv_pos_as_xyz
  x,y,z
_cell_length_a                    20.9885
_cell_length_b                    21.7641
_cell_length_c                    12.2700
_cell_angle_alpha                 90.0000
_cell_angle_beta                  90.0000
_cell_angle_gamma                 90.0000
loop_
_atom_site_label
_atom_site_type_symbol
_atom_site_fract_x
_atom_site_fract_y
_atom_site_fract_z
_atom_site_U_iso_or_equiv
_atom_site_adp_type
_atom_site_occupancy
C1     C     0.58842   0.46083   0.65804   0.00000  Uiso   1.00
C2     C     0.57916   0.42360   0.76213   0.00000  Uiso   1.00
C3     C     0.52290   0.41879   0.82093   0.00000  Uiso   1.00
C4     C     0.52419   0.38249   0.91395   0.00000  Uiso   1.00
C5     C     0.50136   0.32932   0.07060   0.00000  Uiso   1.00
C6     C     0.64334   0.50486   0.68090   0.00000  Uiso   1.00
C7     C     0.64104   0.56836   0.67139   0.00000  Uiso   1.00
C8     C     0.69637   0.60046   0.69602   0.00000  Uiso   1.00
C9     C     0.77319   0.67344   0.72647   0.00000  Uiso   1.00
C10    C     0.61290   0.41573   0.57265   0.00000  Uiso   1.00
C11    C     0.58502   0.40430   0.47211   0.00000  Uiso   1.00
C12    C     0.61472   0.36137   0.40559   0.00000  Uiso   1.00
C13    C     0.64428   0.29597   0.26797   0.00000  Uiso   1.00
C14    C     0.69076   0.40492   0.71867   0.00000  Uiso   1.00
C15    C     0.63475   0.39324   0.79506   0.00000  Uiso   1.00
C16    C     0.63612   0.35693   0.88801   0.00000  Uiso   1.00
C17    C     0.57988   0.35206   0.94694   0.00000  Uiso   1.00
C18    C     0.69892   0.47449   0.71383   0.00000  Uiso   1.00
C19    C     0.75427   0.50650   0.73847   0.00000  Uiso   1.00
C20    C     0.75205   0.57004   0.72901   0.00000  Uiso   1.00
C21    C     0.66848   0.38536   0.60558   0.00000  Uiso   1.00
C22    C     0.69824   0.34244   0.53920   0.00000  Uiso   1.00
C23    C     0.67041   0.33095   0.43858   0.00000  Uiso   1.00
H24    H     0.54515   0.48447   0.63240   0.00000  Uiso   1.00
H25    H     0.47989   0.44230   0.79543   0.00000  Uiso   1.00
H26    H     0.59802   0.59185   0.64589   0.00000  Uiso   1.00
H27    H     0.54200   0.42781   0.44665   0.00000  Uiso   1.00
H28    H     0.43207   0.38216   0.99071   0.00000  Uiso   1.00
H29    H     0.68115   0.69749   0.67538   0.00000  Uiso   1.00
H30    H     0.56302   0.35159   0.25524   0.00000  Uiso   1.00
H31    H     0.73404   0.38128   0.74431   0.00000  Uiso   1.00
H32    H     0.67915   0.33344   0.91348   0.00000  Uiso   1.00
H33    H     0.79727   0.48299   0.76394   0.00000  Uiso   1.00
H34    H     0.74126   0.31895   0.56471   0.00000  Uiso   1.00
H35    H     0.59379   0.29381   0.08653   0.00000  Uiso   1.00
H36    H     0.84288   0.60914   0.77119   0.00000  Uiso   1.00
H37    H     0.72475   0.26324   0.35106   0.00000  Uiso   1.00
O38    O     0.47342   0.30839   0.14791   0.00000  Uiso   1.00
O39    O     0.80021   0.72209   0.73418   0.00000  Uiso   1.00
O40    O     0.64523   0.26827   0.18298   0.00000  Uiso   1.00
N41    N     0.47766   0.36792   0.99004   0.00000  Uiso   1.00
N42    N     0.71053   0.66274   0.69523   0.00000  Uiso   1.00
N43    N     0.60010   0.33936   0.30243   0.00000  Uiso   1.00
N44    N     0.56468   0.32038   0.04159   0.00000  Uiso   1.00
N45    N     0.79756   0.61520   0.74679   0.00000  Uiso   1.00
N46    N     0.68713   0.29182   0.35399   0.00000  Uiso   1.00
C47    C     0.58842   0.96083   0.15804   0.00000  Uiso   1.00
C48    C     0.57916   0.92360   0.26213   0.00000  Uiso   1.00
C49    C     0.52290   0.91879   0.32093   0.00000  Uiso   1.00
C50    C     0.52419   0.88249   0.41395   0.00000  Uiso   1.00
C51    C     0.50136   0.82932   0.57060   0.00000  Uiso   1.00
C52    C     0.64334   0.00486   0.18090   0.00000  Uiso   1.00
C53    C     0.64104   0.06836   0.17139   0.00000  Uiso   1.00
C54    C     0.69637   0.10046   0.19602   0.00000  Uiso   1.00
C55    C     0.77319   0.17344   0.22647   0.00000  Uiso   1.00
C56    C     0.61290   0.91573   0.07265   0.00000  Uiso   1.00
C57    C     0.58502   0.90430   0.97211   0.00000  Uiso   1.00
C58    C     0.61472   0.86137   0.90559   0.00000  Uiso   1.00
C59    C     0.64428   0.79597   0.76797   0.00000  Uiso   1.00
C60    C     0.69076   0.90492   0.21867   0.00000  Uiso   1.00
C61    C     0.63475   0.89324   0.29506   0.00000  Uiso   1.00
C62    C     0.63612   0.85693   0.38801   0.00000  Uiso   1.00
C63    C     0.57988   0.85206   0.44694   0.00000  Uiso   1.00
C64    C     0.69892   0.97449   0.21383   0.00000  Uiso   1.00
C65    C     0.75427   0.00650   0.23847   0.00000  Uiso   1.00
C66    C     0.75205   0.07004   0.22901   0.00000  Uiso   1.00
C67    C     0.66848   0.88536   0.10558   0.00000  Uiso   1.00
C68    C     0.69824   0.84244   0.03920   0.00000  Uiso   1.00
C69    C     0.67041   0.83095   0.93858   0.00000  Uiso   1.00
H70    H     0.54515   0.98447   0.13240   0.00000  Uiso   1.00
H71    H     0.47989   0.94230   0.29543   0.00000  Uiso   1.00
H72    H     0.59802   0.09185   0.14589   0.00000  Uiso   1.00
H73    H     0.54200   0.92781   0.94665   0.00000  Uiso   1.00
H74    H     0.43207   0.88216   0.49071   0.00000  Uiso   1.00
H75    H     0.68115   0.19749   0.17538   0.00000  Uiso   1.00
H76    H     0.56302   0.85159   0.75524   0.00000  Uiso   1.00
H77    H     0.73404   0.88128   0.24431   0.00000  Uiso   1.00
H78    H     0.67915   0.83344   0.41348   0.00000  Uiso   1.00
H79    H     0.79727   0.98299   0.26394   0.00000  Uiso   1.00
H80    H     0.74126   0.81895   0.06471   0.00000  Uiso   1.00
H81    H     0.59379   0.79381   0.58653   0.00000  Uiso   1.00
H82    H     0.84288   0.10914   0.27119   0.00000  Uiso   1.00
H83    H     0.72475   0.76324   0.85106   0.00000  Uiso   1.00
O84    O     0.47342   0.80839   0.64791   0.00000  Uiso   1.00
O85    O     0.80021   0.22209   0.23418   0.00000  Uiso   1.00
O86    O     0.64523   0.76827   0.68298   0.00000  Uiso   1.00
N87    N     0.47766   0.86792   0.49004   0.00000  Uiso   1.00
N88    N     0.71053   0.16274   0.19523   0.00000  Uiso   1.00
N89    N     0.60010   0.83936   0.80243   0.00000  Uiso   1.00
N90    N     0.56468   0.82038   0.54159   0.00000  Uiso   1.00
N91    N     0.79756   0.11520   0.24679   0.00000  Uiso   1.00
N92    N     0.68713   0.79182   0.85399   0.00000  Uiso   1.00
C93    C     0.41158   0.53917   0.65804   0.00000  Uiso   1.00
C94    C     0.42084   0.57640   0.76213   0.00000  Uiso   1.00
C95    C     0.47710   0.58121   0.82093   0.00000  Uiso   1.00
C96    C     0.47581   0.61751   0.91395   0.00000  Uiso   1.00
C97    C     0.49864   0.67068   0.07060   0.00000  Uiso   1.00
C98    C     0.35666   0.49514   0.68090   0.00000  Uiso   1.00
C99    C     0.35896   0.43164   0.67139   0.00000  Uiso   1.00
C100   C     0.30363   0.39954   0.69602   0.00000  Uiso   1.00
C101   C     0.22681   0.32656   0.72647   0.00000  Uiso   1.00
C102   C     0.38710   0.58427   0.57265   0.00000  Uiso   1.00
C103   C     0.41498   0.59570   0.47211   0.00000  Uiso   1.00
C104   C     0.38528   0.63863   0.40559   0.00000  Uiso   1.00
C105   C     0.35572   0.70403   0.26797   0.00000  Uiso   1.00
C106   C     0.30924   0.59508   0.71867   0.00000  Uiso   1.00
C107   C     0.36525   0.60676   0.79506   0.00000  Uiso   1.00
C108   C     0.36388   0.64307   0.88801   0.00000  Uiso   1.00
C109   C     0.42012   0.64794   0.94694   0.00000  Uiso   1.00
C110   C     0.30108   0.52551   0.71383   0.00000  Uiso   1.00
C111   C     0.24573   0.49350   0.73847   0.00000  Uiso   1.00
C112   C     0.24795   0.42996   0.72901   0.00000  Uiso   1.00
C113   C     0.33152   0.61464   0.60558   0.00000  Uiso   1.00
C114   C     0.30176   0.65756   0.53920   0.00000  Uiso   1.00
C115   C     0.32959   0.66905   0.43858   0.00000  Uiso   1.00
H116   H     0.45485   0.51553   0.63240   0.00000  Uiso   1.00
H117   H     0.52011   0.55770   0.79543   0.00000  Uiso   1.00
H118   H     0.40198   0.40815   0.64589   0.00000  Uiso   1.00
H119   H     0.45800   0.57219   0.44665   0.00000  Uiso   1.00
H120   H     0.56793   0.61784   0.99071   0.00000  Uiso   1.00
H121   H     0.31885   0.30251   0.67538   0.00000  Uiso   1.00
H122   H     0.43698   0.64841   0.25524   0.00000  Uiso   1.00
H123   H     0.26596   0.61872   0.74431   0.00000  Uiso   1.00
H124   H     0.32085   0.66656   0.91348   0.00000  Uiso   1.00
H125   H     0.20273   0.51701   0.76394   0.00000  Uiso   1.00
H126   H     0.25874   0.68105   0.56471   0.00000  Uiso   1.00
H127   H     0.40621   0.70619   0.08653   0.00000  Uiso   1.00
H128   H     0.15712   0.39086   0.77119   0.00000  Uiso   1.00
H129   H     0.27525   0.73676   0.35106   0.00000  Uiso   1.00
O130   O     0.52658   0.69161   0.14791   0.00000  Uiso   1.00
O131   O     0.19979   0.27791   0.73418   0.00000  Uiso   1.00
O132   O     0.35477   0.73173   0.18298   0.00000  Uiso   1.00
N133   N     0.52234   0.63208   0.99004   0.00000  Uiso   1.00
N134   N     0.28947   0.33726   0.69523   0.00000  Uiso   1.00
N135   N     0.39990   0.66064   0.30243   0.00000  Uiso   1.00
N136   N     0.43532   0.67962   0.04159   0.00000  Uiso   1.00
N137   N     0.20244   0.38480   0.74679   0.00000  Uiso   1.00
N138   N     0.31287   0.70818   0.35399   0.00000  Uiso   1.00
C139   C     0.41158   0.03917   0.15804   0.00000  Uiso   1.00
C140   C     0.42084   0.07640   0.26213   0.00000  Uiso   1.00
C141   C     0.47710   0.08121   0.32093   0.00000  Uiso   1.00
C142   C     0.47581   0.11751   0.41395   0.00000  Uiso   1.00
C143   C     0.49864   0.17068   0.57060   0.00000  Uiso   1.00
C144   C     0.35666   0.99514   0.18090   0.00000  Uiso   1.00
C145   C     0.35896   0.93164   0.17139   0.00000  Uiso   1.00
C146   C     0.30363   0.89954   0.19602   0.00000  Uiso   1.00
C147   C     0.22681   0.82656   0.22647   0.00000  Uiso   1.00
C148   C     0.38710   0.08427   0.07265   0.00000  Uiso   1.00
C149   C     0.41498   0.09570   0.97211   0.00000  Uiso   1.00
C150   C     0.38528   0.13863   0.90559   0.00000  Uiso   1.00
C151   C     0.35572   0.20403   0.76797   0.00000  Uiso   1.00
C152   C     0.30924   0.09508   0.21867   0.00000  Uiso   1.00
C153   C     0.36525   0.10676   0.29506   0.00000  Uiso   1.00
C154   C     0.36388   0.14307   0.38801   0.00000  Uiso   1.00
C155   C     0.42012   0.14794   0.44694   0.00000  Uiso   1.00
C156   C     0.30108   0.02551   0.21383   0.00000  Uiso   1.00
C157   C     0.24573   0.99350   0.23847   0.00000  Uiso   1.00
C158   C     0.24795   0.92996   0.22901   0.00000  Uiso   1.00
C159   C     0.33152   0.11464   0.10558   0.00000  Uiso   1.00
C160   C     0.30176   0.15756   0.03920   0.00000  Uiso   1.00
C161   C     0.32959   0.16905   0.93858   0.00000  Uiso   1.00
H162   H     0.45485   0.01553   0.13240   0.00000  Uiso   1.00
H163   H     0.52011   0.05770   0.29543   0.00000  Uiso   1.00
H164   H     0.40198   0.90815   0.14589   0.00000  Uiso   1.00
H165   H     0.45800   0.07219   0.94665   0.00000  Uiso   1.00
H166   H     0.56793   0.11784   0.49071   0.00000  Uiso   1.00
H167   H     0.31885   0.80251   0.17538   0.00000  Uiso   1.00
H168   H     0.43698   0.14841   0.75524   0.00000  Uiso   1.00
H169   H     0.26596   0.11872   0.24431   0.00000  Uiso   1.00
H170   H     0.32085   0.16656   0.41348   0.00000  Uiso   1.00
H171   H     0.20273   0.01701   0.26394   0.00000  Uiso   1.00
H172   H     0.25874   0.18105   0.06471   0.00000  Uiso   1.00
H173   H     0.40621   0.20619   0.58653   0.00000  Uiso   1.00
H174   H     0.15712   0.89086   0.27119   0.00000  Uiso   1.00
H175   H     0.27525   0.23676   0.85106   0.00000  Uiso   1.00
O176   O     0.52658   0.19161   0.64791   0.00000  Uiso   1.00
O177   O     0.19979   0.77791   0.23418   0.00000  Uiso   1.00
O178   O     0.35477   0.23173   0.68298   0.00000  Uiso   1.00
N179   N     0.52234   0.13208   0.49004   0.00000  Uiso   1.00
N180   N     0.28947   0.83726   0.19523   0.00000  Uiso   1.00
N181   N     0.39990   0.16064   0.80243   0.00000  Uiso   1.00
N182   N     0.43532   0.17962   0.54159   0.00000  Uiso   1.00
N183   N     0.20244   0.88480   0.24679   0.00000  Uiso   1.00
N184   N     0.31287   0.20818   0.85399   0.00000  Uiso   1.00
C185   C     0.08842   0.03917   0.65804   0.00000  Uiso   1.00
C186   C     0.07916   0.07640   0.76213   0.00000  Uiso   1.00
C187   C     0.02290   0.08121   0.82093   0.00000  Uiso   1.00
C188   C     0.02419   0.11751   0.91395   0.00000  Uiso   1.00
C189   C     0.00136   0.17068   0.07060   0.00000  Uiso   1.00
C190   C     0.14334   0.99514   0.68090   0.00000  Uiso   1.00
C191   C     0.14104   0.93164   0.67139   0.00000  Uiso   1.00
C192   C     0.19637   0.89954   0.69602   0.00000  Uiso   1.00
C193   C     0.27319   0.82656   0.72647   0.00000  Uiso   1.00
C194   C     0.11290   0.08427   0.57265   0.00000  Uiso   1.00
C195   C     0.08502   0.09570   0.47211   0.00000  Uiso   1.00
C196   C     0.11472   0.13863   0.40559   0.00000  Uiso   1.00
C197   C     0.14428   0.20403   0.26797   0.00000  Uiso   1.00
C198   C     0.19076   0.09508   0.71867   0.00000  Uiso   1.00
C199   C     0.13475   0.10676   0.79506   0.00000  Uiso   1.00
C200   C     0.13612   0.14307   0.88801   0.00000  Uiso   1.00
C201   C     0.07988   0.14794   0.94694   0.00000  Uiso   1.00
C202   C     0.19892   0.02551   0.71383   0.00000  Uiso   1.00
C203   C     0.25427   0.99350   0.73847   0.00000  Uiso   1.00
C204   C     0.25205   0.92996   0.72901   0.00000  Uiso   1.00
C205   C     0.16848   0.11464   0.60558   0.00000  Uiso   1.00
C206   C     0.19824   0.15756   0.53920   0.00000  Uiso   1.00
C207   C     0.17041   0.16905   0.43858   0.00000  Uiso   1.00
H208   H     0.04515   0.01553   0.63240   0.00000  Uiso   1.00
H209   H     0.97989   0.05770   0.79543   0.00000  Uiso   1.00
H210   H     0.09802   0.90815   0.64589   0.00000  Uiso   1.00
H211   H     0.04200   0.07219   0.44665   0.00000  Uiso   1.00
H212   H     0.93207   0.11784   0.99071   0.00000  Uiso   1.00
H213   H     0.18115   0.80251   0.67538   0.00000  Uiso   1.00
H214   H     0.06302   0.14841   0.25524   0.00000  Uiso   1.00
H215   H     0.23404   0.11872   0.74431   0.00000  Uiso   1.00
H216   H     0.17915   0.16656   0.91348   0.00000  Uiso   1.00
H217   H     0.29727   0.01701   0.76394   0.00000  Uiso   1.00
H218   H     0.24126   0.18105   0.56471   0.00000  Uiso   1.00
H219   H     0.09379   0.20619   0.08653   0.00000  Uiso   1.00
H220   H     0.34288   0.89086   0.77119   0.00000  Uiso   1.00
H221   H     0.22475   0.23676   0.35106   0.00000  Uiso   1.00
O222   O     0.97342   0.19161   0.14791   0.00000  Uiso   1.00
O223   O     0.30021   0.77791   0.73418   0.00000  Uiso   1.00
O224   O     0.14523   0.23173   0.18298   0.00000  Uiso   1.00
N225   N     0.97766   0.13208   0.99004   0.00000  Uiso   1.00
N226   N     0.21053   0.83726   0.69523   0.00000  Uiso   1.00
N227   N     0.10010   0.16064   0.30243   0.00000  Uiso   1.00
N228   N     0.06468   0.17962   0.04159   0.00000  Uiso   1.00
N229   N     0.29756   0.88480   0.74679   0.00000  Uiso   1.00
N230   N     0.18713   0.20818   0.35399   0.00000  Uiso   1.00
C231   C     0.08842   0.53917   0.15804   0.00000  Uiso   1.00
C232   C     0.07916   0.57640   0.26213   0.00000  Uiso   1.00
C233   C     0.02290   0.58121   0.32093   0.00000  Uiso   1.00
C234   C     0.02419   0.61751   0.41395   0.00000  Uiso   1.00
C235   C     0.00136   0.67068   0.57060   0.00000  Uiso   1.00
C236   C     0.14334   0.49514   0.18090   0.00000  Uiso   1.00
C237   C     0.14104   0.43164   0.17139   0.00000  Uiso   1.00
C238   C     0.19637   0.39954   0.19602   0.00000  Uiso   1.00
C239   C     0.27319   0.32656   0.22647   0.00000  Uiso   1.00
C240   C     0.11290   0.58427   0.07265   0.00000  Uiso   1.00
C241   C     0.08502   0.59570   0.97211   0.00000  Uiso   1.00
C242   C     0.11472   0.63863   0.90559   0.00000  Uiso   1.00
C243   C     0.14428   0.70403   0.76797   0.00000  Uiso   1.00
C244   C     0.19076   0.59508   0.21867   0.00000  Uiso   1.00
C245   C     0.13475   0.60676   0.29506   0.00000  Uiso   1.00
C246   C     0.13612   0.64307   0.38801   0.00000  Uiso   1.00
C247   C     0.07988   0.64794   0.44694   0.00000  Uiso   1.00
C248   C     0.19892   0.52551   0.21383   0.00000  Uiso   1.00
C249   C     0.25427   0.49350   0.23847   0.00000  Uiso   1.00
C250   C     0.25205   0.42996   0.22901   0.00000  Uiso   1.00
C251   C     0.16848   0.61464   0.10558   0.00000  Uiso   1.00
C252   C     0.19824   0.65756   0.03920   0.00000  Uiso   1.00
C253   C     0.17041   0.66905   0.93858   0.00000  Uiso   1.00
H254   H     0.04515   0.51553   0.13240   0.00000  Uiso   1.00
H255   H     0.97989   0.55770   0.29543   0.00000  Uiso   1.00
H256   H     0.09802   0.40815   0.14589   0.00000  Uiso   1.00
H257   H     0.04200   0.57219   0.94665   0.00000  Uiso   1.00
H258   H     0.93207   0.61784   0.49071   0.00000  Uiso   1.00
H259   H     0.18115   0.30251   0.17538   0.00000  Uiso   1.00
H260   H     0.06302   0.64841   0.75524   0.00000  Uiso   1.00
H261   H     0.23404   0.61872   0.24431   0.00000  Uiso   1.00
H262   H     0.17915   0.66656   0.41348   0.00000  Uiso   1.00
H263   H     0.29727   0.51701   0.26394   0.00000  Uiso   1.00
H264   H     0.24126   0.68105   0.06471   0.00000  Uiso   1.00
H265   H     0.09379   0.70619   0.58653   0.00000  Uiso   1.00
H266   H     0.34288   0.39086   0.27119   0.00000  Uiso   1.00
H267   H     0.22475   0.73676   0.85106   0.00000  Uiso   1.00
O268   O     0.97342   0.69161   0.64791   0.00000  Uiso   1.00
O269   O     0.30021   0.27791   0.23418   0.00000  Uiso   1.00
O270   O     0.14523   0.73173   0.68298   0.00000  Uiso   1.00
N271   N     0.97766   0.63208   0.49004   0.00000  Uiso   1.00
N272   N     0.21053   0.33726   0.19523   0.00000  Uiso   1.00
N273   N     0.10010   0.66064   0.80243   0.00000  Uiso   1.00
N274   N     0.06468   0.67962   0.54159   0.00000  Uiso   1.00
N275   N     0.29756   0.38480   0.24679   0.00000  Uiso   1.00
N276   N     0.18713   0.70818   0.85399   0.00000  Uiso   1.00
C277   C     0.91158   0.96083   0.65804   0.00000  Uiso   1.00
C278   C     0.92084   0.92360   0.76213   0.00000  Uiso   1.00
C279   C     0.97710   0.91879   0.82093   0.00000  Uiso   1.00
C280   C     0.97581   0.88249   0.91395   0.00000  Uiso   1.00
C281   C     0.99864   0.82932   0.07060   0.00000  Uiso   1.00
C282   C     0.85666   0.00486   0.68090   0.00000  Uiso   1.00
C283   C     0.85896   0.06836   0.67139   0.00000  Uiso   1.00
C284   C     0.80363   0.10046   0.69602   0.00000  Uiso   1.00
C285   C     0.72681   0.17344   0.72647   0.00000  Uiso   1.00
C286   C     0.88710   0.91573   0.57265   0.00000  Uiso   1.00
C287   C     0.91498   0.90430   0.47211   0.00000  Uiso   1.00
C288   C     0.88528   0.86137   0.40559   0.00000  Uiso   1.00
C289   C     0.85572   0.79597   0.26797   0.00000  Uiso   1.00
C290   C     0.80924   0.90492   0.71867   0.00000  Uiso   1.00
C291   C     0.86525   0.89324   0.79506   0.00000  Uiso   1.00
C292   C     0.86388   0.85693   0.88801   0.00000  Uiso   1.00
C293   C     0.92012   0.85206   0.94694   0.00000  Uiso   1.00
C294   C     0.80108   0.97449   0.71383   0.00000  Uiso   1.00
C295   C     0.74573   0.00650   0.73847   0.00000  Uiso   1.00
C296   C     0.74795   0.07004   0.72901   0.00000  Uiso   1.00
C297   C     0.83152   0.88536   0.60558   0.00000  Uiso   1.00
C298   C     0.80176   0.84244   0.53920   0.00000  Uiso   1.00
C299   C     0.82959   0.83095   0.43858   0.00000  Uiso   1.00
H300   H     0.95485   0.98447   0.63240   0.00000  Uiso   1.00
H301   H     0.02011   0.94230   0.79543   0.00000  Uiso   1.00
H302   H     0.90198   0.09185   0.64589   0.00000  Uiso   1.00
H303   H     0.95800   0.92781   0.44665   0.00000  Uiso   1.00
H304   H     0.06793   0.88216   0.99071   0.00000  Uiso   1.00
H305   H     0.81885   0.19749   0.67538   0.00000  Uiso   1.00
H306   H     0.93698   0.85159   0.25524   0.00000  Uiso   1.00
H307   H     0.76596   0.88128   0.74431   0.00000  Uiso   1.00
H308   H     0.82085   0.83344   0.91348   0.00000  Uiso   1.00
H309   H     0.70273   0.98299   0.76394   0.00000  Uiso   1.00
H310   H     0.75874   0.81895   0.56471   0.00000  Uiso   1.00
H311   H     0.90621   0.79381   0.08653   0.00000  Uiso   1.00
H312   H     0.65712   0.10914   0.77119   0.00000  Uiso   1.00
H313   H     0.77525   0.76324   0.35106   0.00000  Uiso   1.00
O314   O     0.02658   0.80839   0.14791   0.00000  Uiso   1.00
O315   O     0.69979   0.22209   0.73418   0.00000  Uiso   1.00
O316   O     0.85477   0.76827   0.18298   0.00000  Uiso   1.00
N317   N     0.02234   0.86792   0.99004   0.00000  Uiso   1.00
N318   N     0.78947   0.16274   0.69523   0.00000  Uiso   1.00
N319   N     0.89990   0.83936   0.30243   0.00000  Uiso   1.00
N320   N     0.93532   0.82038   0.04159   0.00000  Uiso   1.00
N321   N     0.70244   0.11520   0.74679   0.00000  Uiso   1.00
N322   N     0.81287   0.79182   0.35399   0.00000  Uiso   1.00
C323   C     0.91158   0.46083   0.15804   0.00000  Uiso   1.00
C324   C     0.92084   0.42360   0.26213   0.00000  Uiso   1.00
C325   C     0.97710   0.41879   0.32093   0.00000  Uiso   1.00
C326   C     0.97581   0.38249   0.41395   0.00000  Uiso   1.00
C327   C     0.99864   0.32932   0.57060   0.00000  Uiso   1.00
C328   C     0.85666   0.50486   0.18090   0.00000  Uiso   1.00
C329   C     0.85896   0.56836   0.17139   0.00000  Uiso   1.00
C330   C     0.80363   0.60046   0.19602   0.00000  Uiso   1.00
C331   C     0.72681   0.67344   0.22647   0.00000  Uiso   1.00
C332   C     0.88710   0.41573   0.07265   0.00000  Uiso   1.00
C333   C     0.91498   0.40430   0.97211   0.00000  Uiso   1.00
C334   C     0.88528   0.36137   0.90559   0.00000  Uiso   1.00
C335   C     0.85572   0.29597   0.76797   0.00000  Uiso   1.00
C336   C     0.80924   0.40492   0.21867   0.00000  Uiso   1.00
C337   C     0.86525   0.39324   0.29506   0.00000  Uiso   1.00
C338   C     0.86388   0.35693   0.38801   0.00000  Uiso   1.00
C339   C     0.92012   0.35206   0.44694   0.00000  Uiso   1.00
C340   C     0.80108   0.47449   0.21383   0.00000  Uiso   1.00
C341   C     0.74573   0.50650   0.23847   0.00000  Uiso   1.00
C342   C     0.74795   0.57004   0.22901   0.00000  Uiso   1.00
C343   C     0.83152   0.38536   0.10558   0.00000  Uiso   1.00
C344   C     0.80176   0.34244   0.03920   0.00000  Uiso   1.00
C345   C     0.82959   0.33095   0.93858   0.00000  Uiso   1.00
H346   H     0.95485   0.48447   0.13240   0.00000  Uiso   1.00
H347   H     0.02011   0.44230   0.29543   0.00000  Uiso   1.00
H348   H     0.90198   0.59185   0.14589   0.00000  Uiso   1.00
H349   H     0.95800   0.42781   0.94665   0.00000  Uiso   1.00
H350   H     0.06793   0.38216   0.49071   0.00000  Uiso   1.00
H351   H     0.81885   0.69749   0.17538   0.00000  Uiso   1.00
H352   H     0.93698   0.35159   0.75524   0.00000  Uiso   1.00
H353   H     0.76596   0.38128   0.24431   0.00000  Uiso   1.00
H354   H     0.82085   0.33344   0.41348   0.00000  Uiso   1.00
H355   H     0.70273   0.48299   0.26394   0.00000  Uiso   1.00
H356   H     0.75874   0.31895   0.06471   0.00000  Uiso   1.00
H357   H     0.90621   0.29381   0.58653   0.00000  Uiso   1.00
H358   H     0.65712   0.60914   0.27119   0.00000  Uiso   1.00
H359   H     0.77525   0.26324   0.85106   0.00000  Uiso   1.00
O360   O     0.02658   0.30839   0.64791   0.00000  Uiso   1.00
O361   O     0.69979   0.72209   0.23418   0.00000  Uiso   1.00
O362   O     0.85477   0.26827   0.68298   0.00000  Uiso   1.00
N363   N     0.02234   0.36792   0.49004   0.00000  Uiso   1.00
N364   N     0.78947   0.66274   0.19523   0.00000  Uiso   1.00
N365   N     0.89990   0.33936   0.80243   0.00000  Uiso   1.00
N366   N     0.93532   0.32038   0.54159   0.00000  Uiso   1.00
N367   N     0.70244   0.61520   0.24679   0.00000  Uiso   1.00
N368   N     0.81287   0.29182   0.85399   0.00000  Uiso   1.00
