data_job_03519
_audit_creation_date              2018-12-19
_audit_creation_method            'Materials Studio'
_symmetry_space_group_name_H-M    'P1'
_symmetry_Int_Tables_number       1
_symmetry_cell_setting            triclinic
loop_
_symmetry_equiv_pos_as_xyz
  x,y,z
_cell_length_a                    12.3037
_cell_length_b                    12.3037
_cell_length_c                    40.8665
_cell_angle_alpha                 90.0000
_cell_angle_beta                  90.0000
_cell_angle_gamma                 90.0000
loop_
_atom_site_label
_atom_site_type_symbol
_atom_site_fract_x
_atom_site_fract_y
_atom_site_fract_z
_atom_site_U_iso_or_equiv
_atom_site_adp_type
_atom_site_occupancy
C1     C     0.39518   0.14911   0.72959   0.00000  Uiso   1.00
C2     C     0.42767   0.25295   0.71171   0.00000  Uiso   1.00
C3     C     0.52234   0.31180   0.71690   0.00000  Uiso   1.00
C4     C     0.53706   0.40456   0.69807   0.00000  Uiso   1.00
C5     C     0.59924   0.56086   0.67386   0.00000  Uiso   1.00
C6     C     0.28414   0.17170   0.74470   0.00000  Uiso   1.00
C7     C     0.25813   0.16222   0.77763   0.00000  Uiso   1.00
C8     C     0.15202   0.18658   0.78656   0.00000  Uiso   1.00
C9     C     0.99134   0.21666   0.81357   0.00000  Uiso   1.00
C10    C     0.37627   0.06387   0.70310   0.00000  Uiso   1.00
C11    C     0.42770   0.96371   0.70105   0.00000  Uiso   1.00
C12    C     0.39913   0.89727   0.67497   0.00000  Uiso   1.00
C13    C     0.38149   0.75993   0.63738   0.00000  Uiso   1.00
C14    C     0.25298   0.20920   0.68692   0.00000  Uiso   1.00
C15    C     0.35043   0.28559   0.68854   0.00000  Uiso   1.00
C16    C     0.36501   0.37828   0.66970   0.00000  Uiso   1.00
C17    C     0.45969   0.43726   0.67486   0.00000  Uiso   1.00
C18    C     0.20690   0.20434   0.72153   0.00000  Uiso   1.00
C19    C     0.10080   0.22871   0.73042   0.00000  Uiso   1.00
C20    C     0.07464   0.21928   0.76335   0.00000  Uiso   1.00
C21    C     0.29903   0.09651   0.67993   0.00000  Uiso   1.00
C22    C     0.27037   0.03020   0.65385   0.00000  Uiso   1.00
C23    C     0.32175   0.92997   0.65176   0.00000  Uiso   1.00
H24    H     0.45531   0.12370   0.74763   0.00000  Uiso   1.00
H25    H     0.58209   0.28652   0.73484   0.00000  Uiso   1.00
H26    H     0.31792   0.13695   0.79555   0.00000  Uiso   1.00
H27    H     0.48746   0.93848   0.71899   0.00000  Uiso   1.00
H28    H     0.68857   0.48144   0.71045   0.00000  Uiso   1.00
H29    H     0.13154   0.16605   0.83847   0.00000  Uiso   1.00
H30    H     0.48906   0.74752   0.67702   0.00000  Uiso   1.00
H31    H     0.19284   0.23461   0.66888   0.00000  Uiso   1.00
H32    H     0.30523   0.40352   0.65177   0.00000  Uiso   1.00
H33    H     0.04105   0.25396   0.71248   0.00000  Uiso   1.00
H34    H     0.21060   0.05549   0.63592   0.00000  Uiso   1.00
H35    H     0.46386   0.57641   0.64303   0.00000  Uiso   1.00
H36    H     0.90682   0.26101   0.77104   0.00000  Uiso   1.00
H37    H     0.26434   0.84249   0.60960   0.00000  Uiso   1.00
O38    O     0.65487   0.63806   0.66691   0.00000  Uiso   1.00
O39    O     0.92406   0.22425   0.83486   0.00000  Uiso   1.00
O40    O     0.39311   0.67516   0.62305   0.00000  Uiso   1.00
N41    N     0.62027   0.48060   0.69692   0.00000  Uiso   1.00
N42    N     0.09949   0.18574   0.81661   0.00000  Uiso   1.00
N43    N     0.43371   0.79444   0.66568   0.00000  Uiso   1.00
N44    N     0.49936   0.53171   0.66064   0.00000  Uiso   1.00
N45    N     0.97857   0.23685   0.78033   0.00000  Uiso   1.00
N46    N     0.31279   0.84555   0.62940   0.00000  Uiso   1.00
C47    C     0.60482   0.85089   0.22959   0.00000  Uiso   1.00
C48    C     0.57233   0.74705   0.21171   0.00000  Uiso   1.00
C49    C     0.47766   0.68820   0.21690   0.00000  Uiso   1.00
C50    C     0.46294   0.59544   0.19807   0.00000  Uiso   1.00
C51    C     0.40076   0.43914   0.17386   0.00000  Uiso   1.00
C52    C     0.71586   0.82830   0.24470   0.00000  Uiso   1.00
C53    C     0.74187   0.83778   0.27763   0.00000  Uiso   1.00
C54    C     0.84798   0.81342   0.28656   0.00000  Uiso   1.00
C55    C     0.00866   0.78334   0.31357   0.00000  Uiso   1.00
C56    C     0.62373   0.93613   0.20310   0.00000  Uiso   1.00
C57    C     0.57230   0.03629   0.20105   0.00000  Uiso   1.00
C58    C     0.60087   0.10273   0.17497   0.00000  Uiso   1.00
C59    C     0.61851   0.24007   0.13738   0.00000  Uiso   1.00
C60    C     0.74702   0.79080   0.18692   0.00000  Uiso   1.00
C61    C     0.64957   0.71441   0.18854   0.00000  Uiso   1.00
C62    C     0.63499   0.62172   0.16970   0.00000  Uiso   1.00
C63    C     0.54031   0.56274   0.17486   0.00000  Uiso   1.00
C64    C     0.79310   0.79566   0.22153   0.00000  Uiso   1.00
C65    C     0.89920   0.77129   0.23042   0.00000  Uiso   1.00
C66    C     0.92536   0.78072   0.26335   0.00000  Uiso   1.00
C67    C     0.70097   0.90349   0.17993   0.00000  Uiso   1.00
C68    C     0.72963   0.96980   0.15385   0.00000  Uiso   1.00
C69    C     0.67825   0.07003   0.15176   0.00000  Uiso   1.00
H70    H     0.54469   0.87630   0.24763   0.00000  Uiso   1.00
H71    H     0.41791   0.71348   0.23484   0.00000  Uiso   1.00
H72    H     0.68208   0.86305   0.29555   0.00000  Uiso   1.00
H73    H     0.51254   0.06152   0.21899   0.00000  Uiso   1.00
H74    H     0.31143   0.51856   0.21045   0.00000  Uiso   1.00
H75    H     0.86846   0.83395   0.33847   0.00000  Uiso   1.00
H76    H     0.51094   0.25248   0.17702   0.00000  Uiso   1.00
H77    H     0.80716   0.76539   0.16888   0.00000  Uiso   1.00
H78    H     0.69477   0.59648   0.15177   0.00000  Uiso   1.00
H79    H     0.95895   0.74604   0.21248   0.00000  Uiso   1.00
H80    H     0.78940   0.94451   0.13592   0.00000  Uiso   1.00
H81    H     0.53614   0.42359   0.14303   0.00000  Uiso   1.00
H82    H     0.09318   0.73899   0.27104   0.00000  Uiso   1.00
H83    H     0.73566   0.15751   0.10960   0.00000  Uiso   1.00
O84    O     0.34513   0.36194   0.16691   0.00000  Uiso   1.00
O85    O     0.07594   0.77575   0.33486   0.00000  Uiso   1.00
O86    O     0.60689   0.32484   0.12305   0.00000  Uiso   1.00
N87    N     0.37973   0.51940   0.19692   0.00000  Uiso   1.00
N88    N     0.90051   0.81426   0.31661   0.00000  Uiso   1.00
N89    N     0.56629   0.20556   0.16568   0.00000  Uiso   1.00
N90    N     0.50064   0.46829   0.16064   0.00000  Uiso   1.00
N91    N     0.02143   0.76315   0.28033   0.00000  Uiso   1.00
N92    N     0.68721   0.15445   0.12940   0.00000  Uiso   1.00
C93    C     0.35089   0.89518   0.47959   0.00000  Uiso   1.00
C94    C     0.24705   0.92767   0.46171   0.00000  Uiso   1.00
C95    C     0.18820   0.02234   0.46690   0.00000  Uiso   1.00
C96    C     0.09544   0.03706   0.44807   0.00000  Uiso   1.00
C97    C     0.93914   0.09924   0.42386   0.00000  Uiso   1.00
C98    C     0.32830   0.78414   0.49470   0.00000  Uiso   1.00
C99    C     0.33778   0.75813   0.52763   0.00000  Uiso   1.00
C100   C     0.31342   0.65202   0.53656   0.00000  Uiso   1.00
C101   C     0.28334   0.49134   0.56357   0.00000  Uiso   1.00
C102   C     0.43613   0.87627   0.45310   0.00000  Uiso   1.00
C103   C     0.53629   0.92770   0.45105   0.00000  Uiso   1.00
C104   C     0.60273   0.89913   0.42497   0.00000  Uiso   1.00
C105   C     0.74007   0.88149   0.38738   0.00000  Uiso   1.00
C106   C     0.29080   0.75298   0.43692   0.00000  Uiso   1.00
C107   C     0.21441   0.85043   0.43854   0.00000  Uiso   1.00
C108   C     0.12172   0.86501   0.41970   0.00000  Uiso   1.00
C109   C     0.06274   0.95969   0.42486   0.00000  Uiso   1.00
C110   C     0.29566   0.70690   0.47153   0.00000  Uiso   1.00
C111   C     0.27129   0.60080   0.48042   0.00000  Uiso   1.00
C112   C     0.28072   0.57464   0.51335   0.00000  Uiso   1.00
C113   C     0.40349   0.79903   0.42993   0.00000  Uiso   1.00
C114   C     0.46980   0.77037   0.40385   0.00000  Uiso   1.00
C115   C     0.57003   0.82175   0.40176   0.00000  Uiso   1.00
H116   H     0.37630   0.95531   0.49763   0.00000  Uiso   1.00
H117   H     0.21348   0.08209   0.48484   0.00000  Uiso   1.00
H118   H     0.36305   0.81792   0.54555   0.00000  Uiso   1.00
H119   H     0.56152   0.98746   0.46899   0.00000  Uiso   1.00
H120   H     0.01856   0.18857   0.46045   0.00000  Uiso   1.00
H121   H     0.33395   0.63154   0.58847   0.00000  Uiso   1.00
H122   H     0.75248   0.98906   0.42702   0.00000  Uiso   1.00
H123   H     0.26539   0.69284   0.41888   0.00000  Uiso   1.00
H124   H     0.09648   0.80523   0.40177   0.00000  Uiso   1.00
H125   H     0.24604   0.54105   0.46248   0.00000  Uiso   1.00
H126   H     0.44451   0.71060   0.38592   0.00000  Uiso   1.00
H127   H     0.92359   0.96386   0.39303   0.00000  Uiso   1.00
H128   H     0.23899   0.40682   0.52104   0.00000  Uiso   1.00
H129   H     0.65751   0.76434   0.35960   0.00000  Uiso   1.00
O130   O     0.86194   0.15487   0.41691   0.00000  Uiso   1.00
O131   O     0.27575   0.42406   0.58486   0.00000  Uiso   1.00
O132   O     0.82484   0.89311   0.37305   0.00000  Uiso   1.00
N133   N     0.01940   0.12027   0.44692   0.00000  Uiso   1.00
N134   N     0.31426   0.59949   0.56661   0.00000  Uiso   1.00
N135   N     0.70556   0.93371   0.41568   0.00000  Uiso   1.00
N136   N     0.96829   0.99936   0.41064   0.00000  Uiso   1.00
N137   N     0.26315   0.47857   0.53033   0.00000  Uiso   1.00
N138   N     0.65445   0.81279   0.37940   0.00000  Uiso   1.00
C139   C     0.64911   0.10482   0.97959   0.00000  Uiso   1.00
C140   C     0.75295   0.07233   0.96171   0.00000  Uiso   1.00
C141   C     0.81180   0.97766   0.96690   0.00000  Uiso   1.00
C142   C     0.90456   0.96294   0.94807   0.00000  Uiso   1.00
C143   C     0.06086   0.90076   0.92386   0.00000  Uiso   1.00
C144   C     0.67170   0.21586   0.99470   0.00000  Uiso   1.00
C145   C     0.66222   0.24187   0.02763   0.00000  Uiso   1.00
C146   C     0.68658   0.34798   0.03656   0.00000  Uiso   1.00
C147   C     0.71666   0.50866   0.06357   0.00000  Uiso   1.00
C148   C     0.56387   0.12373   0.95310   0.00000  Uiso   1.00
C149   C     0.46371   0.07230   0.95105   0.00000  Uiso   1.00
C150   C     0.39727   0.10087   0.92497   0.00000  Uiso   1.00
C151   C     0.25993   0.11851   0.88738   0.00000  Uiso   1.00
C152   C     0.70920   0.24702   0.93692   0.00000  Uiso   1.00
C153   C     0.78559   0.14957   0.93854   0.00000  Uiso   1.00
C154   C     0.87828   0.13499   0.91970   0.00000  Uiso   1.00
C155   C     0.93726   0.04031   0.92486   0.00000  Uiso   1.00
C156   C     0.70434   0.29310   0.97153   0.00000  Uiso   1.00
C157   C     0.72871   0.39920   0.98042   0.00000  Uiso   1.00
C158   C     0.71928   0.42536   0.01335   0.00000  Uiso   1.00
C159   C     0.59651   0.20097   0.92993   0.00000  Uiso   1.00
C160   C     0.53020   0.22963   0.90385   0.00000  Uiso   1.00
C161   C     0.42997   0.17825   0.90176   0.00000  Uiso   1.00
H162   H     0.62370   0.04469   0.99763   0.00000  Uiso   1.00
H163   H     0.78652   0.91791   0.98484   0.00000  Uiso   1.00
H164   H     0.63695   0.18208   0.04555   0.00000  Uiso   1.00
H165   H     0.43848   0.01254   0.96899   0.00000  Uiso   1.00
H166   H     0.98144   0.81143   0.96045   0.00000  Uiso   1.00
H167   H     0.66605   0.36846   0.08847   0.00000  Uiso   1.00
H168   H     0.24752   0.01094   0.92702   0.00000  Uiso   1.00
H169   H     0.73461   0.30716   0.91888   0.00000  Uiso   1.00
H170   H     0.90352   0.19477   0.90177   0.00000  Uiso   1.00
H171   H     0.75396   0.45895   0.96248   0.00000  Uiso   1.00
H172   H     0.55549   0.28940   0.88592   0.00000  Uiso   1.00
H173   H     0.07641   0.03614   0.89303   0.00000  Uiso   1.00
H174   H     0.76101   0.59318   0.02104   0.00000  Uiso   1.00
H175   H     0.34249   0.23566   0.85960   0.00000  Uiso   1.00
O176   O     0.13806   0.84513   0.91691   0.00000  Uiso   1.00
O177   O     0.72425   0.57594   0.08486   0.00000  Uiso   1.00
O178   O     0.17516   0.10689   0.87305   0.00000  Uiso   1.00
N179   N     0.98060   0.87973   0.94692   0.00000  Uiso   1.00
N180   N     0.68574   0.40051   0.06661   0.00000  Uiso   1.00
N181   N     0.29444   0.06629   0.91568   0.00000  Uiso   1.00
N182   N     0.03171   0.00064   0.91064   0.00000  Uiso   1.00
N183   N     0.73685   0.52143   0.03033   0.00000  Uiso   1.00
N184   N     0.34555   0.18721   0.87940   0.00000  Uiso   1.00
C185   C     0.10482   0.64911   0.02041   0.00000  Uiso   1.00
C186   C     0.07233   0.75295   0.03829   0.00000  Uiso   1.00
C187   C     0.97766   0.81180   0.03310   0.00000  Uiso   1.00
C188   C     0.96294   0.90456   0.05193   0.00000  Uiso   1.00
C189   C     0.90076   0.06086   0.07614   0.00000  Uiso   1.00
C190   C     0.21586   0.67170   0.00530   0.00000  Uiso   1.00
C191   C     0.24187   0.66222   0.97237   0.00000  Uiso   1.00
C192   C     0.34798   0.68658   0.96344   0.00000  Uiso   1.00
C193   C     0.50866   0.71666   0.93643   0.00000  Uiso   1.00
C194   C     0.12373   0.56387   0.04690   0.00000  Uiso   1.00
C195   C     0.07230   0.46371   0.04895   0.00000  Uiso   1.00
C196   C     0.10087   0.39727   0.07503   0.00000  Uiso   1.00
C197   C     0.11851   0.25993   0.11262   0.00000  Uiso   1.00
C198   C     0.24702   0.70920   0.06308   0.00000  Uiso   1.00
C199   C     0.14957   0.78559   0.06146   0.00000  Uiso   1.00
C200   C     0.13499   0.87828   0.08030   0.00000  Uiso   1.00
C201   C     0.04031   0.93726   0.07514   0.00000  Uiso   1.00
C202   C     0.29310   0.70434   0.02847   0.00000  Uiso   1.00
C203   C     0.39920   0.72871   0.01958   0.00000  Uiso   1.00
C204   C     0.42536   0.71928   0.98665   0.00000  Uiso   1.00
C205   C     0.20097   0.59651   0.07007   0.00000  Uiso   1.00
C206   C     0.22963   0.53020   0.09615   0.00000  Uiso   1.00
C207   C     0.17825   0.42997   0.09824   0.00000  Uiso   1.00
H208   H     0.04469   0.62370   0.00237   0.00000  Uiso   1.00
H209   H     0.91791   0.78652   0.01516   0.00000  Uiso   1.00
H210   H     0.18208   0.63695   0.95445   0.00000  Uiso   1.00
H211   H     0.01254   0.43848   0.03101   0.00000  Uiso   1.00
H212   H     0.81143   0.98144   0.03955   0.00000  Uiso   1.00
H213   H     0.36846   0.66605   0.91153   0.00000  Uiso   1.00
H214   H     0.01094   0.24752   0.07298   0.00000  Uiso   1.00
H215   H     0.30716   0.73461   0.08112   0.00000  Uiso   1.00
H216   H     0.19477   0.90352   0.09823   0.00000  Uiso   1.00
H217   H     0.45895   0.75396   0.03752   0.00000  Uiso   1.00
H218   H     0.28940   0.55549   0.11408   0.00000  Uiso   1.00
H219   H     0.03614   0.07641   0.10697   0.00000  Uiso   1.00
H220   H     0.59318   0.76101   0.97896   0.00000  Uiso   1.00
H221   H     0.23566   0.34249   0.14040   0.00000  Uiso   1.00
O222   O     0.84513   0.13806   0.08309   0.00000  Uiso   1.00
O223   O     0.57594   0.72425   0.91514   0.00000  Uiso   1.00
O224   O     0.10689   0.17516   0.12695   0.00000  Uiso   1.00
N225   N     0.87973   0.98060   0.05308   0.00000  Uiso   1.00
N226   N     0.40051   0.68574   0.93339   0.00000  Uiso   1.00
N227   N     0.06629   0.29444   0.08432   0.00000  Uiso   1.00
N228   N     0.00064   0.03171   0.08936   0.00000  Uiso   1.00
N229   N     0.52143   0.73685   0.96967   0.00000  Uiso   1.00
N230   N     0.18721   0.34555   0.12060   0.00000  Uiso   1.00
C231   C     0.89518   0.35089   0.52041   0.00000  Uiso   1.00
C232   C     0.92767   0.24705   0.53829   0.00000  Uiso   1.00
C233   C     0.02234   0.18820   0.53310   0.00000  Uiso   1.00
C234   C     0.03706   0.09544   0.55193   0.00000  Uiso   1.00
C235   C     0.09924   0.93914   0.57614   0.00000  Uiso   1.00
C236   C     0.78414   0.32830   0.50530   0.00000  Uiso   1.00
C237   C     0.75813   0.33778   0.47237   0.00000  Uiso   1.00
C238   C     0.65202   0.31342   0.46344   0.00000  Uiso   1.00
C239   C     0.49134   0.28334   0.43643   0.00000  Uiso   1.00
C240   C     0.87627   0.43613   0.54690   0.00000  Uiso   1.00
C241   C     0.92770   0.53629   0.54895   0.00000  Uiso   1.00
C242   C     0.89913   0.60273   0.57503   0.00000  Uiso   1.00
C243   C     0.88149   0.74007   0.61262   0.00000  Uiso   1.00
C244   C     0.75298   0.29080   0.56308   0.00000  Uiso   1.00
C245   C     0.85043   0.21441   0.56146   0.00000  Uiso   1.00
C246   C     0.86501   0.12172   0.58030   0.00000  Uiso   1.00
C247   C     0.95969   0.06274   0.57514   0.00000  Uiso   1.00
C248   C     0.70690   0.29566   0.52847   0.00000  Uiso   1.00
C249   C     0.60080   0.27129   0.51958   0.00000  Uiso   1.00
C250   C     0.57464   0.28072   0.48665   0.00000  Uiso   1.00
C251   C     0.79903   0.40349   0.57007   0.00000  Uiso   1.00
C252   C     0.77037   0.46980   0.59615   0.00000  Uiso   1.00
C253   C     0.82175   0.57003   0.59824   0.00000  Uiso   1.00
H254   H     0.95531   0.37630   0.50237   0.00000  Uiso   1.00
H255   H     0.08209   0.21348   0.51516   0.00000  Uiso   1.00
H256   H     0.81792   0.36305   0.45445   0.00000  Uiso   1.00
H257   H     0.98746   0.56152   0.53101   0.00000  Uiso   1.00
H258   H     0.18857   0.01856   0.53955   0.00000  Uiso   1.00
H259   H     0.63154   0.33395   0.41153   0.00000  Uiso   1.00
H260   H     0.98906   0.75248   0.57298   0.00000  Uiso   1.00
H261   H     0.69284   0.26539   0.58112   0.00000  Uiso   1.00
H262   H     0.80523   0.09648   0.59823   0.00000  Uiso   1.00
H263   H     0.54105   0.24604   0.53752   0.00000  Uiso   1.00
H264   H     0.71060   0.44451   0.61408   0.00000  Uiso   1.00
H265   H     0.96386   0.92359   0.60697   0.00000  Uiso   1.00
H266   H     0.40682   0.23899   0.47896   0.00000  Uiso   1.00
H267   H     0.76434   0.65751   0.64040   0.00000  Uiso   1.00
O268   O     0.15487   0.86194   0.58309   0.00000  Uiso   1.00
O269   O     0.42406   0.27575   0.41514   0.00000  Uiso   1.00
O270   O     0.89311   0.82484   0.62695   0.00000  Uiso   1.00
N271   N     0.12027   0.01940   0.55308   0.00000  Uiso   1.00
N272   N     0.59949   0.31426   0.43339   0.00000  Uiso   1.00
N273   N     0.93371   0.70556   0.58432   0.00000  Uiso   1.00
N274   N     0.99936   0.96829   0.58936   0.00000  Uiso   1.00
N275   N     0.47857   0.26315   0.46967   0.00000  Uiso   1.00
N276   N     0.81279   0.65445   0.62060   0.00000  Uiso   1.00
C277   C     0.14911   0.39518   0.27041   0.00000  Uiso   1.00
C278   C     0.25295   0.42767   0.28829   0.00000  Uiso   1.00
C279   C     0.31180   0.52234   0.28310   0.00000  Uiso   1.00
C280   C     0.40456   0.53706   0.30193   0.00000  Uiso   1.00
C281   C     0.56086   0.59924   0.32614   0.00000  Uiso   1.00
C282   C     0.17170   0.28414   0.25530   0.00000  Uiso   1.00
C283   C     0.16222   0.25813   0.22237   0.00000  Uiso   1.00
C284   C     0.18658   0.15202   0.21344   0.00000  Uiso   1.00
C285   C     0.21666   0.99134   0.18643   0.00000  Uiso   1.00
C286   C     0.06387   0.37627   0.29690   0.00000  Uiso   1.00
C287   C     0.96371   0.42770   0.29895   0.00000  Uiso   1.00
C288   C     0.89727   0.39913   0.32503   0.00000  Uiso   1.00
C289   C     0.75993   0.38149   0.36262   0.00000  Uiso   1.00
C290   C     0.20920   0.25298   0.31308   0.00000  Uiso   1.00
C291   C     0.28559   0.35043   0.31146   0.00000  Uiso   1.00
C292   C     0.37828   0.36501   0.33030   0.00000  Uiso   1.00
C293   C     0.43726   0.45969   0.32514   0.00000  Uiso   1.00
C294   C     0.20434   0.20690   0.27847   0.00000  Uiso   1.00
C295   C     0.22871   0.10080   0.26958   0.00000  Uiso   1.00
C296   C     0.21928   0.07464   0.23665   0.00000  Uiso   1.00
C297   C     0.09651   0.29903   0.32007   0.00000  Uiso   1.00
C298   C     0.03020   0.27037   0.34615   0.00000  Uiso   1.00
C299   C     0.92997   0.32175   0.34824   0.00000  Uiso   1.00
H300   H     0.12370   0.45531   0.25237   0.00000  Uiso   1.00
H301   H     0.28652   0.58209   0.26516   0.00000  Uiso   1.00
H302   H     0.13695   0.31792   0.20445   0.00000  Uiso   1.00
H303   H     0.93848   0.48746   0.28101   0.00000  Uiso   1.00
H304   H     0.48144   0.68857   0.28955   0.00000  Uiso   1.00
H305   H     0.16605   0.13154   0.16153   0.00000  Uiso   1.00
H306   H     0.74752   0.48906   0.32298   0.00000  Uiso   1.00
H307   H     0.23461   0.19284   0.33112   0.00000  Uiso   1.00
H308   H     0.40352   0.30523   0.34823   0.00000  Uiso   1.00
H309   H     0.25396   0.04105   0.28752   0.00000  Uiso   1.00
H310   H     0.05549   0.21060   0.36408   0.00000  Uiso   1.00
H311   H     0.57641   0.46386   0.35697   0.00000  Uiso   1.00
H312   H     0.26101   0.90682   0.22896   0.00000  Uiso   1.00
H313   H     0.84249   0.26434   0.39040   0.00000  Uiso   1.00
O314   O     0.63806   0.65487   0.33309   0.00000  Uiso   1.00
O315   O     0.22425   0.92406   0.16514   0.00000  Uiso   1.00
O316   O     0.67516   0.39311   0.37695   0.00000  Uiso   1.00
N317   N     0.48060   0.62027   0.30308   0.00000  Uiso   1.00
N318   N     0.18574   0.09949   0.18339   0.00000  Uiso   1.00
N319   N     0.79444   0.43371   0.33432   0.00000  Uiso   1.00
N320   N     0.53171   0.49936   0.33936   0.00000  Uiso   1.00
N321   N     0.23685   0.97857   0.21967   0.00000  Uiso   1.00
N322   N     0.84555   0.31279   0.37060   0.00000  Uiso   1.00
C323   C     0.85089   0.60482   0.77041   0.00000  Uiso   1.00
C324   C     0.74705   0.57233   0.78829   0.00000  Uiso   1.00
C325   C     0.68820   0.47766   0.78310   0.00000  Uiso   1.00
C326   C     0.59544   0.46294   0.80193   0.00000  Uiso   1.00
C327   C     0.43914   0.40076   0.82614   0.00000  Uiso   1.00
C328   C     0.82830   0.71586   0.75530   0.00000  Uiso   1.00
C329   C     0.83778   0.74187   0.72237   0.00000  Uiso   1.00
C330   C     0.81342   0.84798   0.71344   0.00000  Uiso   1.00
C331   C     0.78334   0.00866   0.68643   0.00000  Uiso   1.00
C332   C     0.93613   0.62373   0.79690   0.00000  Uiso   1.00
C333   C     0.03629   0.57230   0.79895   0.00000  Uiso   1.00
C334   C     0.10273   0.60087   0.82503   0.00000  Uiso   1.00
C335   C     0.24007   0.61851   0.86262   0.00000  Uiso   1.00
C336   C     0.79080   0.74702   0.81308   0.00000  Uiso   1.00
C337   C     0.71441   0.64957   0.81146   0.00000  Uiso   1.00
C338   C     0.62172   0.63499   0.83030   0.00000  Uiso   1.00
C339   C     0.56274   0.54031   0.82514   0.00000  Uiso   1.00
C340   C     0.79566   0.79310   0.77847   0.00000  Uiso   1.00
C341   C     0.77129   0.89920   0.76958   0.00000  Uiso   1.00
C342   C     0.78072   0.92536   0.73665   0.00000  Uiso   1.00
C343   C     0.90349   0.70097   0.82007   0.00000  Uiso   1.00
C344   C     0.96980   0.72963   0.84615   0.00000  Uiso   1.00
C345   C     0.07003   0.67825   0.84824   0.00000  Uiso   1.00
H346   H     0.87630   0.54469   0.75237   0.00000  Uiso   1.00
H347   H     0.71348   0.41791   0.76516   0.00000  Uiso   1.00
H348   H     0.86305   0.68208   0.70445   0.00000  Uiso   1.00
H349   H     0.06152   0.51254   0.78101   0.00000  Uiso   1.00
H350   H     0.51856   0.31143   0.78955   0.00000  Uiso   1.00
H351   H     0.83395   0.86846   0.66153   0.00000  Uiso   1.00
H352   H     0.25248   0.51094   0.82298   0.00000  Uiso   1.00
H353   H     0.76539   0.80716   0.83112   0.00000  Uiso   1.00
H354   H     0.59648   0.69477   0.84823   0.00000  Uiso   1.00
H355   H     0.74604   0.95895   0.78752   0.00000  Uiso   1.00
H356   H     0.94451   0.78940   0.86408   0.00000  Uiso   1.00
H357   H     0.42359   0.53614   0.85697   0.00000  Uiso   1.00
H358   H     0.73899   0.09318   0.72896   0.00000  Uiso   1.00
H359   H     0.15751   0.73566   0.89040   0.00000  Uiso   1.00
O360   O     0.36194   0.34513   0.83309   0.00000  Uiso   1.00
O361   O     0.77575   0.07594   0.66514   0.00000  Uiso   1.00
O362   O     0.32484   0.60689   0.87695   0.00000  Uiso   1.00
N363   N     0.51940   0.37973   0.80308   0.00000  Uiso   1.00
N364   N     0.81426   0.90051   0.68339   0.00000  Uiso   1.00
N365   N     0.20556   0.56629   0.83432   0.00000  Uiso   1.00
N366   N     0.46829   0.50064   0.83936   0.00000  Uiso   1.00
N367   N     0.76315   0.02143   0.71967   0.00000  Uiso   1.00
N368   N     0.15445   0.68721   0.87060   0.00000  Uiso   1.00
