data_job_01257
_audit_creation_date              2018-12-19
_audit_creation_method            'Materials Studio'
_symmetry_space_group_name_H-M    'P1'
_symmetry_Int_Tables_number       1
_symmetry_cell_setting            triclinic
loop_
_symmetry_equiv_pos_as_xyz
  x,y,z
_cell_length_a                    9.7975
_cell_length_b                    19.5823
_cell_length_c                    14.9085
_cell_angle_alpha                 90.0000
_cell_angle_beta                  128.2548
_cell_angle_gamma                 90.0000
loop_
_atom_site_label
_atom_site_type_symbol
_atom_site_fract_x
_atom_site_fract_y
_atom_site_fract_z
_atom_site_U_iso_or_equiv
_atom_site_adp_type
_atom_site_occupancy
C1     C     0.78769   0.67049   0.36724   0.00000  Uiso   1.00
C2     C     0.86959   0.65114   0.49018   0.00000  Uiso   1.00
C3     C     0.81550   0.59841   0.52374   0.00000  Uiso   1.00
C4     C     0.90748   0.58897   0.64032   0.00000  Uiso   1.00
C5     C     0.01315   0.55258   0.81904   0.00000  Uiso   1.00
C6     C     0.73744   0.74558   0.35475   0.00000  Uiso   1.00
C7     C     0.57225   0.77225   0.27443   0.00000  Uiso   1.00
C8     C     0.55300   0.84230   0.27701   0.00000  Uiso   1.00
C9     C     0.45355   0.95254   0.24541   0.00000  Uiso   1.00
C10    C     0.93388   0.66752   0.35777   0.00000  Uiso   1.00
C11    C     0.93383   0.62857   0.27998   0.00000  Uiso   1.00
C12    C     0.07996   0.63292   0.28508   0.00000  Uiso   1.00
C13    C     0.28550   0.62195   0.25818   0.00000  Uiso   1.00
C14    C     0.04724   0.74748   0.51459   0.00000  Uiso   1.00
C15    C     0.01057   0.69296   0.57021   0.00000  Uiso   1.00
C16    C     0.10266   0.68359   0.68678   0.00000  Uiso   1.00
C17    C     0.04872   0.63086   0.72051   0.00000  Uiso   1.00
C18    C     0.87842   0.78740   0.43478   0.00000  Uiso   1.00
C19    C     0.85941   0.85743   0.43747   0.00000  Uiso   1.00
C20    C     0.69423   0.88419   0.35719   0.00000  Uiso   1.00
C21    C     0.07486   0.70934   0.43781   0.00000  Uiso   1.00
C22    C     0.22101   0.71375   0.44302   0.00000  Uiso   1.00
C23    C     0.22119   0.67481   0.36526   0.00000  Uiso   1.00
H24    H     0.67792   0.63794   0.30492   0.00000  Uiso   1.00
H25    H     0.70638   0.56607   0.46177   0.00000  Uiso   1.00
H26    H     0.46318   0.73988   0.21250   0.00000  Uiso   1.00
H27    H     0.82472   0.59622   0.21806   0.00000  Uiso   1.00
H28    H     0.80006   0.50484   0.67097   0.00000  Uiso   1.00
H29    H     0.28727   0.87133   0.14534   0.00000  Uiso   1.00
H30    H     0.04964   0.56840   0.15705   0.00000  Uiso   1.00
H31    H     0.15700   0.78004   0.57691   0.00000  Uiso   1.00
H32    H     0.21175   0.71596   0.74869   0.00000  Uiso   1.00
H33    H     0.96854   0.88977   0.49942   0.00000  Uiso   1.00
H34    H     0.33008   0.74611   0.50497   0.00000  Uiso   1.00
H35    H     0.21023   0.62650   0.90384   0.00000  Uiso   1.00
H36    H     0.69744   0.99299   0.37821   0.00000  Uiso   1.00
H37    H     0.45981   0.69006   0.38992   0.00000  Uiso   1.00
O38    O     0.03248   0.52097   0.89550   0.00000  Uiso   1.00
O39    O     0.35973   0.00179   0.20588   0.00000  Uiso   1.00
O40    O     0.35993   0.60435   0.22125   0.00000  Uiso   1.00
N41    N     0.88910   0.54226   0.70220   0.00000  Uiso   1.00
N42    N     0.40967   0.88490   0.21078   0.00000  Uiso   1.00
N43    N     0.12239   0.60170   0.22171   0.00000  Uiso   1.00
N44    N     0.10981   0.60772   0.82751   0.00000  Uiso   1.00
N45    N     0.63038   0.95036   0.33609   0.00000  Uiso   1.00
N46    N     0.34311   0.66716   0.34701   0.00000  Uiso   1.00
C47    C     0.21231   0.17049   0.13276   0.00000  Uiso   1.00
C48    C     0.13041   0.15114   0.00982   0.00000  Uiso   1.00
C49    C     0.18450   0.09841   0.97626   0.00000  Uiso   1.00
C50    C     0.09252   0.08897   0.85968   0.00000  Uiso   1.00
C51    C     0.98685   0.05258   0.68096   0.00000  Uiso   1.00
C52    C     0.26256   0.24558   0.14525   0.00000  Uiso   1.00
C53    C     0.42775   0.27225   0.22557   0.00000  Uiso   1.00
C54    C     0.44700   0.34230   0.22299   0.00000  Uiso   1.00
C55    C     0.54645   0.45254   0.25459   0.00000  Uiso   1.00
C56    C     0.06612   0.16752   0.14223   0.00000  Uiso   1.00
C57    C     0.06617   0.12857   0.22002   0.00000  Uiso   1.00
C58    C     0.92004   0.13292   0.21492   0.00000  Uiso   1.00
C59    C     0.71450   0.12195   0.24182   0.00000  Uiso   1.00
C60    C     0.95276   0.24748   0.98541   0.00000  Uiso   1.00
C61    C     0.98943   0.19296   0.92979   0.00000  Uiso   1.00
C62    C     0.89734   0.18359   0.81322   0.00000  Uiso   1.00
C63    C     0.95128   0.13086   0.77949   0.00000  Uiso   1.00
C64    C     0.12158   0.28740   0.06522   0.00000  Uiso   1.00
C65    C     0.14059   0.35743   0.06253   0.00000  Uiso   1.00
C66    C     0.30577   0.38419   0.14281   0.00000  Uiso   1.00
C67    C     0.92514   0.20934   0.06219   0.00000  Uiso   1.00
C68    C     0.77899   0.21375   0.05698   0.00000  Uiso   1.00
C69    C     0.77881   0.17481   0.13474   0.00000  Uiso   1.00
H70    H     0.32208   0.13794   0.19508   0.00000  Uiso   1.00
H71    H     0.29362   0.06607   0.03823   0.00000  Uiso   1.00
H72    H     0.53682   0.23988   0.28750   0.00000  Uiso   1.00
H73    H     0.17528   0.09622   0.28194   0.00000  Uiso   1.00
H74    H     0.19994   0.00484   0.82903   0.00000  Uiso   1.00
H75    H     0.71273   0.37133   0.35466   0.00000  Uiso   1.00
H76    H     0.95036   0.06840   0.34295   0.00000  Uiso   1.00
H77    H     0.84300   0.28004   0.92309   0.00000  Uiso   1.00
H78    H     0.78825   0.21596   0.75131   0.00000  Uiso   1.00
H79    H     0.03146   0.38977   0.00058   0.00000  Uiso   1.00
H80    H     0.66992   0.24611   0.99503   0.00000  Uiso   1.00
H81    H     0.78977   0.12650   0.59616   0.00000  Uiso   1.00
H82    H     0.30256   0.49299   0.12179   0.00000  Uiso   1.00
H83    H     0.54019   0.19006   0.11008   0.00000  Uiso   1.00
O84    O     0.96752   0.02097   0.60450   0.00000  Uiso   1.00
O85    O     0.64027   0.50179   0.29412   0.00000  Uiso   1.00
O86    O     0.64007   0.10435   0.27875   0.00000  Uiso   1.00
N87    N     0.11090   0.04226   0.79780   0.00000  Uiso   1.00
N88    N     0.59033   0.38490   0.28922   0.00000  Uiso   1.00
N89    N     0.87761   0.10170   0.27829   0.00000  Uiso   1.00
N90    N     0.89019   0.10772   0.67249   0.00000  Uiso   1.00
N91    N     0.36962   0.45036   0.16391   0.00000  Uiso   1.00
N92    N     0.65689   0.16716   0.15299   0.00000  Uiso   1.00
C93    C     0.21231   0.32951   0.63276   0.00000  Uiso   1.00
C94    C     0.13041   0.34886   0.50982   0.00000  Uiso   1.00
C95    C     0.18450   0.40159   0.47626   0.00000  Uiso   1.00
C96    C     0.09252   0.41103   0.35968   0.00000  Uiso   1.00
C97    C     0.98685   0.44742   0.18096   0.00000  Uiso   1.00
C98    C     0.26256   0.25442   0.64525   0.00000  Uiso   1.00
C99    C     0.42775   0.22775   0.72557   0.00000  Uiso   1.00
C100   C     0.44700   0.15770   0.72299   0.00000  Uiso   1.00
C101   C     0.54645   0.04746   0.75459   0.00000  Uiso   1.00
C102   C     0.06612   0.33248   0.64223   0.00000  Uiso   1.00
C103   C     0.06617   0.37143   0.72002   0.00000  Uiso   1.00
C104   C     0.92004   0.36708   0.71492   0.00000  Uiso   1.00
C105   C     0.71450   0.37805   0.74182   0.00000  Uiso   1.00
C106   C     0.95276   0.25252   0.48541   0.00000  Uiso   1.00
C107   C     0.98943   0.30704   0.42979   0.00000  Uiso   1.00
C108   C     0.89734   0.31641   0.31322   0.00000  Uiso   1.00
C109   C     0.95128   0.36914   0.27949   0.00000  Uiso   1.00
C110   C     0.12158   0.21260   0.56522   0.00000  Uiso   1.00
C111   C     0.14059   0.14257   0.56253   0.00000  Uiso   1.00
C112   C     0.30577   0.11581   0.64281   0.00000  Uiso   1.00
C113   C     0.92514   0.29066   0.56219   0.00000  Uiso   1.00
C114   C     0.77899   0.28625   0.55698   0.00000  Uiso   1.00
C115   C     0.77881   0.32519   0.63474   0.00000  Uiso   1.00
H116   H     0.32208   0.36206   0.69508   0.00000  Uiso   1.00
H117   H     0.29362   0.43393   0.53823   0.00000  Uiso   1.00
H118   H     0.53682   0.26012   0.78750   0.00000  Uiso   1.00
H119   H     0.17528   0.40378   0.78194   0.00000  Uiso   1.00
H120   H     0.19994   0.49516   0.32903   0.00000  Uiso   1.00
H121   H     0.71273   0.12867   0.85466   0.00000  Uiso   1.00
H122   H     0.95036   0.43160   0.84295   0.00000  Uiso   1.00
H123   H     0.84300   0.21996   0.42309   0.00000  Uiso   1.00
H124   H     0.78825   0.28404   0.25131   0.00000  Uiso   1.00
H125   H     0.03146   0.11023   0.50058   0.00000  Uiso   1.00
H126   H     0.66992   0.25389   0.49503   0.00000  Uiso   1.00
H127   H     0.78977   0.37350   0.09616   0.00000  Uiso   1.00
H128   H     0.30256   0.00701   0.62179   0.00000  Uiso   1.00
H129   H     0.54019   0.30994   0.61008   0.00000  Uiso   1.00
O130   O     0.96752   0.47903   0.10450   0.00000  Uiso   1.00
O131   O     0.64027   0.99821   0.79412   0.00000  Uiso   1.00
O132   O     0.64007   0.39565   0.77875   0.00000  Uiso   1.00
N133   N     0.11090   0.45774   0.29780   0.00000  Uiso   1.00
N134   N     0.59033   0.11510   0.78922   0.00000  Uiso   1.00
N135   N     0.87761   0.39830   0.77829   0.00000  Uiso   1.00
N136   N     0.89019   0.39228   0.17249   0.00000  Uiso   1.00
N137   N     0.36962   0.04964   0.66391   0.00000  Uiso   1.00
N138   N     0.65689   0.33284   0.65299   0.00000  Uiso   1.00
C139   C     0.78769   0.82951   0.86724   0.00000  Uiso   1.00
C140   C     0.86959   0.84886   0.99018   0.00000  Uiso   1.00
C141   C     0.81550   0.90159   0.02374   0.00000  Uiso   1.00
C142   C     0.90748   0.91103   0.14032   0.00000  Uiso   1.00
C143   C     0.01315   0.94742   0.31904   0.00000  Uiso   1.00
C144   C     0.73744   0.75442   0.85475   0.00000  Uiso   1.00
C145   C     0.57225   0.72775   0.77443   0.00000  Uiso   1.00
C146   C     0.55300   0.65770   0.77701   0.00000  Uiso   1.00
C147   C     0.45355   0.54746   0.74541   0.00000  Uiso   1.00
C148   C     0.93388   0.83248   0.85777   0.00000  Uiso   1.00
C149   C     0.93383   0.87143   0.77998   0.00000  Uiso   1.00
C150   C     0.07996   0.86708   0.78508   0.00000  Uiso   1.00
C151   C     0.28550   0.87805   0.75818   0.00000  Uiso   1.00
C152   C     0.04724   0.75252   0.01459   0.00000  Uiso   1.00
C153   C     0.01057   0.80704   0.07021   0.00000  Uiso   1.00
C154   C     0.10266   0.81641   0.18678   0.00000  Uiso   1.00
C155   C     0.04872   0.86914   0.22051   0.00000  Uiso   1.00
C156   C     0.87842   0.71260   0.93478   0.00000  Uiso   1.00
C157   C     0.85941   0.64257   0.93747   0.00000  Uiso   1.00
C158   C     0.69423   0.61581   0.85719   0.00000  Uiso   1.00
C159   C     0.07486   0.79066   0.93781   0.00000  Uiso   1.00
C160   C     0.22101   0.78625   0.94302   0.00000  Uiso   1.00
C161   C     0.22119   0.82519   0.86526   0.00000  Uiso   1.00
H162   H     0.67792   0.86206   0.80492   0.00000  Uiso   1.00
H163   H     0.70638   0.93393   0.96177   0.00000  Uiso   1.00
H164   H     0.46318   0.76012   0.71250   0.00000  Uiso   1.00
H165   H     0.82472   0.90378   0.71806   0.00000  Uiso   1.00
H166   H     0.80006   0.99516   0.17097   0.00000  Uiso   1.00
H167   H     0.28727   0.62867   0.64534   0.00000  Uiso   1.00
H168   H     0.04964   0.93160   0.65705   0.00000  Uiso   1.00
H169   H     0.15700   0.71996   0.07691   0.00000  Uiso   1.00
H170   H     0.21175   0.78404   0.24869   0.00000  Uiso   1.00
H171   H     0.96854   0.61023   0.99942   0.00000  Uiso   1.00
H172   H     0.33008   0.75389   0.00497   0.00000  Uiso   1.00
H173   H     0.21023   0.87350   0.40384   0.00000  Uiso   1.00
H174   H     0.69744   0.50701   0.87821   0.00000  Uiso   1.00
H175   H     0.45981   0.80994   0.88992   0.00000  Uiso   1.00
O176   O     0.03248   0.97903   0.39550   0.00000  Uiso   1.00
O177   O     0.35973   0.49821   0.70588   0.00000  Uiso   1.00
O178   O     0.35993   0.89565   0.72125   0.00000  Uiso   1.00
N179   N     0.88910   0.95774   0.20220   0.00000  Uiso   1.00
N180   N     0.40967   0.61510   0.71078   0.00000  Uiso   1.00
N181   N     0.12239   0.89830   0.72171   0.00000  Uiso   1.00
N182   N     0.10981   0.89228   0.32751   0.00000  Uiso   1.00
N183   N     0.63038   0.54964   0.83609   0.00000  Uiso   1.00
N184   N     0.34311   0.83284   0.84701   0.00000  Uiso   1.00
