data_job_01295
_audit_creation_date              2018-12-19
_audit_creation_method            'Materials Studio'
_symmetry_space_group_name_H-M    'P1'
_symmetry_Int_Tables_number       1
_symmetry_cell_setting            triclinic
loop_
_symmetry_equiv_pos_as_xyz
  x,y,z
_cell_length_a                    17.5641
_cell_length_b                    15.2151
_cell_length_c                    18.3579
_cell_angle_alpha                 90.0000
_cell_angle_beta                  90.0000
_cell_angle_gamma                 90.0000
loop_
_atom_site_label
_atom_site_type_symbol
_atom_site_fract_x
_atom_site_fract_y
_atom_site_fract_z
_atom_site_U_iso_or_equiv
_atom_site_adp_type
_atom_site_occupancy
C1     C     0.73387   0.38795   0.75779   0.00000  Uiso   1.00
C2     C     0.68000   0.31195   0.77442   0.00000  Uiso   1.00
C3     C     0.60653   0.31971   0.80145   0.00000  Uiso   1.00
C4     C     0.56647   0.24229   0.81302   0.00000  Uiso   1.00
C5     C     0.47793   0.13678   0.84115   0.00000  Uiso   1.00
C6     C     0.80581   0.37059   0.80201   0.00000  Uiso   1.00
C7     C     0.83811   0.42767   0.85223   0.00000  Uiso   1.00
C8     C     0.90397   0.39962   0.88701   0.00000  Uiso   1.00
C9     C     0.01078   0.38519   0.95794   0.00000  Uiso   1.00
C10    C     0.75658   0.37762   0.67808   0.00000  Uiso   1.00
C11    C     0.74752   0.44062   0.62410   0.00000  Uiso   1.00
C12    C     0.77194   0.41850   0.55454   0.00000  Uiso   1.00
C13    C     0.80232   0.41498   0.43305   0.00000  Uiso   1.00
C14    C     0.79340   0.23665   0.73025   0.00000  Uiso   1.00
C15    C     0.71234   0.22977   0.75946   0.00000  Uiso   1.00
C16    C     0.67238   0.15232   0.77099   0.00000  Uiso   1.00
C17    C     0.59886   0.15996   0.79804   0.00000  Uiso   1.00
C18    C     0.83814   0.28842   0.78705   0.00000  Uiso   1.00
C19    C     0.90397   0.26028   0.82177   0.00000  Uiso   1.00
C20    C     0.93636   0.31730   0.87203   0.00000  Uiso   1.00
C21    C     0.78892   0.29545   0.66312   0.00000  Uiso   1.00
C22    C     0.81337   0.27323   0.59363   0.00000  Uiso   1.00
C23    C     0.80433   0.33617   0.53956   0.00000  Uiso   1.00
H24    H     0.70870   0.45193   0.76944   0.00000  Uiso   1.00
H25    H     0.58153   0.38332   0.81303   0.00000  Uiso   1.00
H26    H     0.81308   0.49126   0.86379   0.00000  Uiso   1.00
H27    H     0.72249   0.50420   0.63569   0.00000  Uiso   1.00
H28    H     0.45480   0.27100   0.85479   0.00000  Uiso   1.00
H29    H     0.94306   0.49863   0.96180   0.00000  Uiso   1.00
H30    H     0.75204   0.52593   0.48082   0.00000  Uiso   1.00
H31    H     0.81857   0.17267   0.71861   0.00000  Uiso   1.00
H32    H     0.69742   0.08874   0.75941   0.00000  Uiso   1.00
H33    H     0.92898   0.19669   0.81017   0.00000  Uiso   1.00
H34    H     0.83839   0.20963   0.58208   0.00000  Uiso   1.00
H35    H     0.54886   0.03191   0.81127   0.00000  Uiso   1.00
H36    H     0.03713   0.25955   0.91829   0.00000  Uiso   1.00
H37    H     0.84610   0.28684   0.43730   0.00000  Uiso   1.00
O38    O     0.42016   0.10128   0.86081   0.00000  Uiso   1.00
O39    O     0.06075   0.39993   0.00120   0.00000  Uiso   1.00
O40    O     0.81013   0.43573   0.37016   0.00000  Uiso   1.00
N41    N     0.49356   0.22625   0.83893   0.00000  Uiso   1.00
N42    N     0.95005   0.43907   0.93899   0.00000  Uiso   1.00
N43    N     0.77148   0.46459   0.48932   0.00000  Uiso   1.00
N44    N     0.54417   0.09760   0.81552   0.00000  Uiso   1.00
N45    N     0.00066   0.31042   0.91558   0.00000  Uiso   1.00
N46    N     0.82209   0.33594   0.46590   0.00000  Uiso   1.00
C47    C     0.76613   0.61205   0.25779   0.00000  Uiso   1.00
C48    C     0.82000   0.68805   0.27442   0.00000  Uiso   1.00
C49    C     0.89347   0.68029   0.30145   0.00000  Uiso   1.00
C50    C     0.93353   0.75771   0.31302   0.00000  Uiso   1.00
C51    C     0.02207   0.86322   0.34115   0.00000  Uiso   1.00
C52    C     0.69419   0.62941   0.30201   0.00000  Uiso   1.00
C53    C     0.66189   0.57233   0.35223   0.00000  Uiso   1.00
C54    C     0.59603   0.60038   0.38701   0.00000  Uiso   1.00
C55    C     0.48922   0.61481   0.45794   0.00000  Uiso   1.00
C56    C     0.74342   0.62238   0.17808   0.00000  Uiso   1.00
C57    C     0.75248   0.55938   0.12410   0.00000  Uiso   1.00
C58    C     0.72806   0.58150   0.05454   0.00000  Uiso   1.00
C59    C     0.69768   0.58502   0.93305   0.00000  Uiso   1.00
C60    C     0.70660   0.76335   0.23025   0.00000  Uiso   1.00
C61    C     0.78766   0.77023   0.25946   0.00000  Uiso   1.00
C62    C     0.82762   0.84768   0.27099   0.00000  Uiso   1.00
C63    C     0.90114   0.84004   0.29804   0.00000  Uiso   1.00
C64    C     0.66186   0.71158   0.28705   0.00000  Uiso   1.00
C65    C     0.59603   0.73972   0.32177   0.00000  Uiso   1.00
C66    C     0.56364   0.68270   0.37203   0.00000  Uiso   1.00
C67    C     0.71108   0.70455   0.16312   0.00000  Uiso   1.00
C68    C     0.68663   0.72677   0.09363   0.00000  Uiso   1.00
C69    C     0.69567   0.66383   0.03956   0.00000  Uiso   1.00
H70    H     0.79130   0.54807   0.26944   0.00000  Uiso   1.00
H71    H     0.91847   0.61668   0.31303   0.00000  Uiso   1.00
H72    H     0.68692   0.50874   0.36379   0.00000  Uiso   1.00
H73    H     0.77751   0.49580   0.13569   0.00000  Uiso   1.00
H74    H     0.04520   0.72900   0.35479   0.00000  Uiso   1.00
H75    H     0.55694   0.50137   0.46180   0.00000  Uiso   1.00
H76    H     0.74796   0.47407   0.98082   0.00000  Uiso   1.00
H77    H     0.68143   0.82733   0.21861   0.00000  Uiso   1.00
H78    H     0.80258   0.91126   0.25941   0.00000  Uiso   1.00
H79    H     0.57102   0.80331   0.31017   0.00000  Uiso   1.00
H80    H     0.66161   0.79037   0.08208   0.00000  Uiso   1.00
H81    H     0.95114   0.96809   0.31127   0.00000  Uiso   1.00
H82    H     0.46287   0.74045   0.41829   0.00000  Uiso   1.00
H83    H     0.65390   0.71316   0.93730   0.00000  Uiso   1.00
O84    O     0.07984   0.89872   0.36081   0.00000  Uiso   1.00
O85    O     0.43925   0.60007   0.50120   0.00000  Uiso   1.00
O86    O     0.68987   0.56427   0.87016   0.00000  Uiso   1.00
N87    N     0.00644   0.77375   0.33893   0.00000  Uiso   1.00
N88    N     0.54995   0.56093   0.43899   0.00000  Uiso   1.00
N89    N     0.72852   0.53541   0.98932   0.00000  Uiso   1.00
N90    N     0.95583   0.90240   0.31552   0.00000  Uiso   1.00
N91    N     0.49934   0.68958   0.41558   0.00000  Uiso   1.00
N92    N     0.67791   0.66406   0.96590   0.00000  Uiso   1.00
C93    C     0.26613   0.88795   0.74221   0.00000  Uiso   1.00
C94    C     0.32000   0.81195   0.72558   0.00000  Uiso   1.00
C95    C     0.39347   0.81971   0.69855   0.00000  Uiso   1.00
C96    C     0.43353   0.74229   0.68698   0.00000  Uiso   1.00
C97    C     0.52207   0.63678   0.65885   0.00000  Uiso   1.00
C98    C     0.19419   0.87059   0.69799   0.00000  Uiso   1.00
C99    C     0.16189   0.92767   0.64777   0.00000  Uiso   1.00
C100   C     0.09603   0.89962   0.61299   0.00000  Uiso   1.00
C101   C     0.98922   0.88519   0.54206   0.00000  Uiso   1.00
C102   C     0.24342   0.87762   0.82192   0.00000  Uiso   1.00
C103   C     0.25248   0.94062   0.87590   0.00000  Uiso   1.00
C104   C     0.22806   0.91850   0.94546   0.00000  Uiso   1.00
C105   C     0.19768   0.91498   0.06695   0.00000  Uiso   1.00
C106   C     0.20660   0.73665   0.76975   0.00000  Uiso   1.00
C107   C     0.28766   0.72977   0.74054   0.00000  Uiso   1.00
C108   C     0.32762   0.65232   0.72901   0.00000  Uiso   1.00
C109   C     0.40114   0.65996   0.70196   0.00000  Uiso   1.00
C110   C     0.16186   0.78842   0.71295   0.00000  Uiso   1.00
C111   C     0.09603   0.76028   0.67823   0.00000  Uiso   1.00
C112   C     0.06364   0.81730   0.62797   0.00000  Uiso   1.00
C113   C     0.21108   0.79545   0.83688   0.00000  Uiso   1.00
C114   C     0.18663   0.77323   0.90637   0.00000  Uiso   1.00
C115   C     0.19567   0.83617   0.96044   0.00000  Uiso   1.00
H116   H     0.29130   0.95193   0.73056   0.00000  Uiso   1.00
H117   H     0.41847   0.88332   0.68697   0.00000  Uiso   1.00
H118   H     0.18692   0.99126   0.63621   0.00000  Uiso   1.00
H119   H     0.27751   0.00420   0.86431   0.00000  Uiso   1.00
H120   H     0.54520   0.77100   0.64521   0.00000  Uiso   1.00
H121   H     0.05694   0.99863   0.53820   0.00000  Uiso   1.00
H122   H     0.24796   0.02593   0.01918   0.00000  Uiso   1.00
H123   H     0.18143   0.67267   0.78139   0.00000  Uiso   1.00
H124   H     0.30258   0.58874   0.74059   0.00000  Uiso   1.00
H125   H     0.07102   0.69669   0.68983   0.00000  Uiso   1.00
H126   H     0.16161   0.70963   0.91792   0.00000  Uiso   1.00
H127   H     0.45114   0.53191   0.68873   0.00000  Uiso   1.00
H128   H     0.96287   0.75955   0.58171   0.00000  Uiso   1.00
H129   H     0.15390   0.78684   0.06270   0.00000  Uiso   1.00
O130   O     0.57984   0.60128   0.63919   0.00000  Uiso   1.00
O131   O     0.93925   0.89993   0.49880   0.00000  Uiso   1.00
O132   O     0.18987   0.93573   0.12984   0.00000  Uiso   1.00
N133   N     0.50644   0.72625   0.66107   0.00000  Uiso   1.00
N134   N     0.04995   0.93907   0.56101   0.00000  Uiso   1.00
N135   N     0.22852   0.96459   0.01068   0.00000  Uiso   1.00
N136   N     0.45583   0.59760   0.68448   0.00000  Uiso   1.00
N137   N     0.99934   0.81042   0.58442   0.00000  Uiso   1.00
N138   N     0.17791   0.83594   0.03410   0.00000  Uiso   1.00
C139   C     0.23387   0.11205   0.24221   0.00000  Uiso   1.00
C140   C     0.18000   0.18805   0.22558   0.00000  Uiso   1.00
C141   C     0.10653   0.18029   0.19855   0.00000  Uiso   1.00
C142   C     0.06647   0.25771   0.18698   0.00000  Uiso   1.00
C143   C     0.97793   0.36322   0.15885   0.00000  Uiso   1.00
C144   C     0.30581   0.12941   0.19799   0.00000  Uiso   1.00
C145   C     0.33811   0.07233   0.14777   0.00000  Uiso   1.00
C146   C     0.40397   0.10038   0.11299   0.00000  Uiso   1.00
C147   C     0.51078   0.11481   0.04206   0.00000  Uiso   1.00
C148   C     0.25658   0.12238   0.32192   0.00000  Uiso   1.00
C149   C     0.24752   0.05938   0.37590   0.00000  Uiso   1.00
C150   C     0.27194   0.08150   0.44546   0.00000  Uiso   1.00
C151   C     0.30232   0.08502   0.56695   0.00000  Uiso   1.00
C152   C     0.29340   0.26335   0.26975   0.00000  Uiso   1.00
C153   C     0.21234   0.27023   0.24054   0.00000  Uiso   1.00
C154   C     0.17238   0.34768   0.22901   0.00000  Uiso   1.00
C155   C     0.09886   0.34004   0.20196   0.00000  Uiso   1.00
C156   C     0.33814   0.21158   0.21295   0.00000  Uiso   1.00
C157   C     0.40397   0.23972   0.17823   0.00000  Uiso   1.00
C158   C     0.43636   0.18270   0.12797   0.00000  Uiso   1.00
C159   C     0.28892   0.20455   0.33688   0.00000  Uiso   1.00
C160   C     0.31337   0.22677   0.40637   0.00000  Uiso   1.00
C161   C     0.30433   0.16383   0.46044   0.00000  Uiso   1.00
H162   H     0.20870   0.04807   0.23056   0.00000  Uiso   1.00
H163   H     0.08153   0.11668   0.18697   0.00000  Uiso   1.00
H164   H     0.31308   0.00874   0.13621   0.00000  Uiso   1.00
H165   H     0.22249   0.99580   0.36431   0.00000  Uiso   1.00
H166   H     0.95480   0.22900   0.14521   0.00000  Uiso   1.00
H167   H     0.44306   0.00137   0.03820   0.00000  Uiso   1.00
H168   H     0.25204   0.97407   0.51918   0.00000  Uiso   1.00
H169   H     0.31857   0.32733   0.28139   0.00000  Uiso   1.00
H170   H     0.19742   0.41126   0.24059   0.00000  Uiso   1.00
H171   H     0.42898   0.30331   0.18983   0.00000  Uiso   1.00
H172   H     0.33839   0.29037   0.41792   0.00000  Uiso   1.00
H173   H     0.04886   0.46809   0.18873   0.00000  Uiso   1.00
H174   H     0.53713   0.24045   0.08171   0.00000  Uiso   1.00
H175   H     0.34610   0.21316   0.56270   0.00000  Uiso   1.00
O176   O     0.92016   0.39872   0.13919   0.00000  Uiso   1.00
O177   O     0.56075   0.10007   0.99880   0.00000  Uiso   1.00
O178   O     0.31013   0.06427   0.62984   0.00000  Uiso   1.00
N179   N     0.99356   0.27375   0.16107   0.00000  Uiso   1.00
N180   N     0.45005   0.06093   0.06101   0.00000  Uiso   1.00
N181   N     0.27148   0.03541   0.51068   0.00000  Uiso   1.00
N182   N     0.04417   0.40240   0.18448   0.00000  Uiso   1.00
N183   N     0.50066   0.18958   0.08442   0.00000  Uiso   1.00
N184   N     0.32209   0.16406   0.53410   0.00000  Uiso   1.00
C185   C     0.26613   0.61205   0.24221   0.00000  Uiso   1.00
C186   C     0.32000   0.68805   0.22558   0.00000  Uiso   1.00
C187   C     0.39347   0.68029   0.19855   0.00000  Uiso   1.00
C188   C     0.43353   0.75771   0.18698   0.00000  Uiso   1.00
C189   C     0.52207   0.86322   0.15885   0.00000  Uiso   1.00
C190   C     0.19419   0.62941   0.19799   0.00000  Uiso   1.00
C191   C     0.16189   0.57233   0.14777   0.00000  Uiso   1.00
C192   C     0.09603   0.60038   0.11299   0.00000  Uiso   1.00
C193   C     0.98922   0.61481   0.04206   0.00000  Uiso   1.00
C194   C     0.24342   0.62238   0.32192   0.00000  Uiso   1.00
C195   C     0.25248   0.55938   0.37590   0.00000  Uiso   1.00
C196   C     0.22806   0.58150   0.44546   0.00000  Uiso   1.00
C197   C     0.19768   0.58502   0.56695   0.00000  Uiso   1.00
C198   C     0.20660   0.76335   0.26975   0.00000  Uiso   1.00
C199   C     0.28766   0.77023   0.24054   0.00000  Uiso   1.00
C200   C     0.32762   0.84768   0.22901   0.00000  Uiso   1.00
C201   C     0.40114   0.84004   0.20196   0.00000  Uiso   1.00
C202   C     0.16186   0.71158   0.21295   0.00000  Uiso   1.00
C203   C     0.09603   0.73972   0.17823   0.00000  Uiso   1.00
C204   C     0.06364   0.68270   0.12797   0.00000  Uiso   1.00
C205   C     0.21108   0.70455   0.33688   0.00000  Uiso   1.00
C206   C     0.18663   0.72677   0.40637   0.00000  Uiso   1.00
C207   C     0.19567   0.66383   0.46044   0.00000  Uiso   1.00
H208   H     0.29130   0.54807   0.23056   0.00000  Uiso   1.00
H209   H     0.41847   0.61668   0.18697   0.00000  Uiso   1.00
H210   H     0.18692   0.50874   0.13621   0.00000  Uiso   1.00
H211   H     0.27751   0.49580   0.36431   0.00000  Uiso   1.00
H212   H     0.54520   0.72900   0.14521   0.00000  Uiso   1.00
H213   H     0.05694   0.50137   0.03820   0.00000  Uiso   1.00
H214   H     0.24796   0.47407   0.51918   0.00000  Uiso   1.00
H215   H     0.18143   0.82733   0.28139   0.00000  Uiso   1.00
H216   H     0.30258   0.91126   0.24059   0.00000  Uiso   1.00
H217   H     0.07102   0.80331   0.18983   0.00000  Uiso   1.00
H218   H     0.16161   0.79037   0.41792   0.00000  Uiso   1.00
H219   H     0.45114   0.96809   0.18873   0.00000  Uiso   1.00
H220   H     0.96287   0.74045   0.08171   0.00000  Uiso   1.00
H221   H     0.15390   0.71316   0.56270   0.00000  Uiso   1.00
O222   O     0.57984   0.89872   0.13919   0.00000  Uiso   1.00
O223   O     0.93925   0.60007   0.99880   0.00000  Uiso   1.00
O224   O     0.18987   0.56427   0.62984   0.00000  Uiso   1.00
N225   N     0.50644   0.77375   0.16107   0.00000  Uiso   1.00
N226   N     0.04995   0.56093   0.06101   0.00000  Uiso   1.00
N227   N     0.22852   0.53541   0.51068   0.00000  Uiso   1.00
N228   N     0.45583   0.90240   0.18448   0.00000  Uiso   1.00
N229   N     0.99934   0.68958   0.08442   0.00000  Uiso   1.00
N230   N     0.17791   0.66406   0.53410   0.00000  Uiso   1.00
C231   C     0.23387   0.38795   0.74221   0.00000  Uiso   1.00
C232   C     0.18000   0.31195   0.72558   0.00000  Uiso   1.00
C233   C     0.10653   0.31971   0.69855   0.00000  Uiso   1.00
C234   C     0.06647   0.24229   0.68698   0.00000  Uiso   1.00
C235   C     0.97793   0.13678   0.65885   0.00000  Uiso   1.00
C236   C     0.30581   0.37059   0.69799   0.00000  Uiso   1.00
C237   C     0.33811   0.42767   0.64777   0.00000  Uiso   1.00
C238   C     0.40397   0.39962   0.61299   0.00000  Uiso   1.00
C239   C     0.51078   0.38519   0.54206   0.00000  Uiso   1.00
C240   C     0.25658   0.37762   0.82192   0.00000  Uiso   1.00
C241   C     0.24752   0.44062   0.87590   0.00000  Uiso   1.00
C242   C     0.27194   0.41850   0.94546   0.00000  Uiso   1.00
C243   C     0.30232   0.41498   0.06695   0.00000  Uiso   1.00
C244   C     0.29340   0.23665   0.76975   0.00000  Uiso   1.00
C245   C     0.21234   0.22977   0.74054   0.00000  Uiso   1.00
C246   C     0.17238   0.15232   0.72901   0.00000  Uiso   1.00
C247   C     0.09886   0.15996   0.70196   0.00000  Uiso   1.00
C248   C     0.33814   0.28842   0.71295   0.00000  Uiso   1.00
C249   C     0.40397   0.26028   0.67823   0.00000  Uiso   1.00
C250   C     0.43636   0.31730   0.62797   0.00000  Uiso   1.00
C251   C     0.28892   0.29545   0.83688   0.00000  Uiso   1.00
C252   C     0.31337   0.27323   0.90637   0.00000  Uiso   1.00
C253   C     0.30433   0.33617   0.96044   0.00000  Uiso   1.00
H254   H     0.20870   0.45193   0.73056   0.00000  Uiso   1.00
H255   H     0.08153   0.38332   0.68697   0.00000  Uiso   1.00
H256   H     0.31308   0.49126   0.63621   0.00000  Uiso   1.00
H257   H     0.22249   0.50420   0.86431   0.00000  Uiso   1.00
H258   H     0.95480   0.27100   0.64521   0.00000  Uiso   1.00
H259   H     0.44306   0.49863   0.53820   0.00000  Uiso   1.00
H260   H     0.25204   0.52593   0.01918   0.00000  Uiso   1.00
H261   H     0.31857   0.17267   0.78139   0.00000  Uiso   1.00
H262   H     0.19742   0.08874   0.74059   0.00000  Uiso   1.00
H263   H     0.42898   0.19669   0.68983   0.00000  Uiso   1.00
H264   H     0.33839   0.20963   0.91792   0.00000  Uiso   1.00
H265   H     0.04886   0.03191   0.68873   0.00000  Uiso   1.00
H266   H     0.53713   0.25955   0.58171   0.00000  Uiso   1.00
H267   H     0.34610   0.28684   0.06270   0.00000  Uiso   1.00
O268   O     0.92016   0.10128   0.63919   0.00000  Uiso   1.00
O269   O     0.56075   0.39993   0.49880   0.00000  Uiso   1.00
O270   O     0.31013   0.43573   0.12984   0.00000  Uiso   1.00
N271   N     0.99356   0.22625   0.66107   0.00000  Uiso   1.00
N272   N     0.45005   0.43907   0.56101   0.00000  Uiso   1.00
N273   N     0.27148   0.46459   0.01068   0.00000  Uiso   1.00
N274   N     0.04417   0.09760   0.68448   0.00000  Uiso   1.00
N275   N     0.50066   0.31042   0.58442   0.00000  Uiso   1.00
N276   N     0.32209   0.33594   0.03410   0.00000  Uiso   1.00
C277   C     0.73387   0.11205   0.25779   0.00000  Uiso   1.00
C278   C     0.68000   0.18805   0.27442   0.00000  Uiso   1.00
C279   C     0.60653   0.18029   0.30145   0.00000  Uiso   1.00
C280   C     0.56647   0.25771   0.31302   0.00000  Uiso   1.00
C281   C     0.47793   0.36322   0.34115   0.00000  Uiso   1.00
C282   C     0.80581   0.12941   0.30201   0.00000  Uiso   1.00
C283   C     0.83811   0.07233   0.35223   0.00000  Uiso   1.00
C284   C     0.90397   0.10038   0.38701   0.00000  Uiso   1.00
C285   C     0.01078   0.11481   0.45794   0.00000  Uiso   1.00
C286   C     0.75658   0.12238   0.17808   0.00000  Uiso   1.00
C287   C     0.74752   0.05938   0.12410   0.00000  Uiso   1.00
C288   C     0.77194   0.08150   0.05454   0.00000  Uiso   1.00
C289   C     0.80232   0.08502   0.93305   0.00000  Uiso   1.00
C290   C     0.79340   0.26335   0.23025   0.00000  Uiso   1.00
C291   C     0.71234   0.27023   0.25946   0.00000  Uiso   1.00
C292   C     0.67238   0.34768   0.27099   0.00000  Uiso   1.00
C293   C     0.59886   0.34004   0.29804   0.00000  Uiso   1.00
C294   C     0.83814   0.21158   0.28705   0.00000  Uiso   1.00
C295   C     0.90397   0.23972   0.32177   0.00000  Uiso   1.00
C296   C     0.93636   0.18270   0.37203   0.00000  Uiso   1.00
C297   C     0.78892   0.20455   0.16312   0.00000  Uiso   1.00
C298   C     0.81337   0.22677   0.09363   0.00000  Uiso   1.00
C299   C     0.80433   0.16383   0.03956   0.00000  Uiso   1.00
H300   H     0.70870   0.04807   0.26944   0.00000  Uiso   1.00
H301   H     0.58153   0.11668   0.31303   0.00000  Uiso   1.00
H302   H     0.81308   0.00874   0.36379   0.00000  Uiso   1.00
H303   H     0.72249   0.99580   0.13569   0.00000  Uiso   1.00
H304   H     0.45480   0.22900   0.35479   0.00000  Uiso   1.00
H305   H     0.94306   0.00137   0.46180   0.00000  Uiso   1.00
H306   H     0.75204   0.97407   0.98082   0.00000  Uiso   1.00
H307   H     0.81857   0.32733   0.21861   0.00000  Uiso   1.00
H308   H     0.69742   0.41126   0.25941   0.00000  Uiso   1.00
H309   H     0.92898   0.30331   0.31017   0.00000  Uiso   1.00
H310   H     0.83839   0.29037   0.08208   0.00000  Uiso   1.00
H311   H     0.54886   0.46809   0.31127   0.00000  Uiso   1.00
H312   H     0.03713   0.24045   0.41829   0.00000  Uiso   1.00
H313   H     0.84610   0.21316   0.93730   0.00000  Uiso   1.00
O314   O     0.42016   0.39872   0.36081   0.00000  Uiso   1.00
O315   O     0.06075   0.10007   0.50120   0.00000  Uiso   1.00
O316   O     0.81013   0.06427   0.87016   0.00000  Uiso   1.00
N317   N     0.49356   0.27375   0.33893   0.00000  Uiso   1.00
N318   N     0.95005   0.06093   0.43899   0.00000  Uiso   1.00
N319   N     0.77148   0.03541   0.98932   0.00000  Uiso   1.00
N320   N     0.54417   0.40240   0.31552   0.00000  Uiso   1.00
N321   N     0.00066   0.18958   0.41558   0.00000  Uiso   1.00
N322   N     0.82209   0.16406   0.96590   0.00000  Uiso   1.00
C323   C     0.76613   0.88795   0.75779   0.00000  Uiso   1.00
C324   C     0.82000   0.81195   0.77442   0.00000  Uiso   1.00
C325   C     0.89347   0.81971   0.80145   0.00000  Uiso   1.00
C326   C     0.93353   0.74229   0.81302   0.00000  Uiso   1.00
C327   C     0.02207   0.63678   0.84115   0.00000  Uiso   1.00
C328   C     0.69419   0.87059   0.80201   0.00000  Uiso   1.00
C329   C     0.66189   0.92767   0.85223   0.00000  Uiso   1.00
C330   C     0.59603   0.89962   0.88701   0.00000  Uiso   1.00
C331   C     0.48922   0.88519   0.95794   0.00000  Uiso   1.00
C332   C     0.74342   0.87762   0.67808   0.00000  Uiso   1.00
C333   C     0.75248   0.94062   0.62410   0.00000  Uiso   1.00
C334   C     0.72806   0.91850   0.55454   0.00000  Uiso   1.00
C335   C     0.69768   0.91498   0.43305   0.00000  Uiso   1.00
C336   C     0.70660   0.73665   0.73025   0.00000  Uiso   1.00
C337   C     0.78766   0.72977   0.75946   0.00000  Uiso   1.00
C338   C     0.82762   0.65232   0.77099   0.00000  Uiso   1.00
C339   C     0.90114   0.65996   0.79804   0.00000  Uiso   1.00
C340   C     0.66186   0.78842   0.78705   0.00000  Uiso   1.00
C341   C     0.59603   0.76028   0.82177   0.00000  Uiso   1.00
C342   C     0.56364   0.81730   0.87203   0.00000  Uiso   1.00
C343   C     0.71108   0.79545   0.66312   0.00000  Uiso   1.00
C344   C     0.68663   0.77323   0.59363   0.00000  Uiso   1.00
C345   C     0.69567   0.83617   0.53956   0.00000  Uiso   1.00
H346   H     0.79130   0.95193   0.76944   0.00000  Uiso   1.00
H347   H     0.91847   0.88332   0.81303   0.00000  Uiso   1.00
H348   H     0.68692   0.99126   0.86379   0.00000  Uiso   1.00
H349   H     0.77751   0.00420   0.63569   0.00000  Uiso   1.00
H350   H     0.04520   0.77100   0.85479   0.00000  Uiso   1.00
H351   H     0.55694   0.99863   0.96180   0.00000  Uiso   1.00
H352   H     0.74796   0.02593   0.48082   0.00000  Uiso   1.00
H353   H     0.68143   0.67267   0.71861   0.00000  Uiso   1.00
H354   H     0.80258   0.58874   0.75941   0.00000  Uiso   1.00
H355   H     0.57102   0.69669   0.81017   0.00000  Uiso   1.00
H356   H     0.66161   0.70963   0.58208   0.00000  Uiso   1.00
H357   H     0.95114   0.53191   0.81127   0.00000  Uiso   1.00
H358   H     0.46287   0.75955   0.91829   0.00000  Uiso   1.00
H359   H     0.65390   0.78684   0.43730   0.00000  Uiso   1.00
O360   O     0.07984   0.60128   0.86081   0.00000  Uiso   1.00
O361   O     0.43925   0.89993   0.00120   0.00000  Uiso   1.00
O362   O     0.68987   0.93573   0.37016   0.00000  Uiso   1.00
N363   N     0.00644   0.72625   0.83893   0.00000  Uiso   1.00
N364   N     0.54995   0.93907   0.93899   0.00000  Uiso   1.00
N365   N     0.72852   0.96459   0.48932   0.00000  Uiso   1.00
N366   N     0.95583   0.59760   0.81552   0.00000  Uiso   1.00
N367   N     0.49934   0.81042   0.91558   0.00000  Uiso   1.00
N368   N     0.67791   0.83594   0.46590   0.00000  Uiso   1.00
