data_job_04895
_audit_creation_date              2018-12-19
_audit_creation_method            'Materials Studio'
_symmetry_space_group_name_H-M    'P1'
_symmetry_Int_Tables_number       1
_symmetry_cell_setting            triclinic
loop_
_symmetry_equiv_pos_as_xyz
  x,y,z
_cell_length_a                    36.4030
_cell_length_b                    14.7274
_cell_length_c                    9.4320
_cell_angle_alpha                 90.0000
_cell_angle_beta                  90.0000
_cell_angle_gamma                 90.0000
loop_
_atom_site_label
_atom_site_type_symbol
_atom_site_fract_x
_atom_site_fract_y
_atom_site_fract_z
_atom_site_U_iso_or_equiv
_atom_site_adp_type
_atom_site_occupancy
C1     C     0.14097   0.32574   0.98318   0.00000  Uiso   1.00
C2     C     0.12084   0.26318   0.08594   0.00000  Uiso   1.00
C3     C     0.12175   0.26920   0.23273   0.00000  Uiso   1.00
C4     C     0.10147   0.20553   0.30793   0.00000  Uiso   1.00
C5     C     0.07333   0.11859   0.47803   0.00000  Uiso   1.00
C6     C     0.16465   0.26420   0.89070   0.00000  Uiso   1.00
C7     C     0.20240   0.27108   0.87331   0.00000  Uiso   1.00
C8     C     0.21899   0.20828   0.78413   0.00000  Uiso   1.00
C9     C     0.25888   0.12297   0.65103   0.00000  Uiso   1.00
C10    C     0.11161   0.36502   0.88553   0.00000  Uiso   1.00
C11    C     0.10477   0.45668   0.86376   0.00000  Uiso   1.00
C12    C     0.07671   0.47876   0.77020   0.00000  Uiso   1.00
C13    C     0.03425   0.54999   0.62908   0.00000  Uiso   1.00
C14    C     0.10330   0.20199   0.85569   0.00000  Uiso   1.00
C15    C     0.10038   0.19597   0.01669   0.00000  Uiso   1.00
C16    C     0.08008   0.13228   0.09169   0.00000  Uiso   1.00
C17    C     0.08097   0.13820   0.23856   0.00000  Uiso   1.00
C18    C     0.14419   0.19699   0.82145   0.00000  Uiso   1.00
C19    C     0.16073   0.13417   0.73227   0.00000  Uiso   1.00
C20    C     0.19850   0.14094   0.71476   0.00000  Uiso   1.00
C21    C     0.09115   0.29781   0.81628   0.00000  Uiso   1.00
C22    C     0.06310   0.31976   0.72273   0.00000  Uiso   1.00
C23    C     0.05622   0.41142   0.70083   0.00000  Uiso   1.00
H24    H     0.15690   0.37807   0.03708   0.00000  Uiso   1.00
H25    H     0.13759   0.32122   0.28628   0.00000  Uiso   1.00
H26    H     0.21823   0.32311   0.92690   0.00000  Uiso   1.00
H27    H     0.12061   0.50867   0.91737   0.00000  Uiso   1.00
H28    H     0.10718   0.22853   0.53203   0.00000  Uiso   1.00
H29    H     0.27720   0.23254   0.77422   0.00000  Uiso   1.00
H30    H     0.07136   0.62383   0.75411   0.00000  Uiso   1.00
H31    H     0.08737   0.14966   0.80178   0.00000  Uiso   1.00
H32    H     0.06425   0.08027   0.03807   0.00000  Uiso   1.00
H33    H     0.14489   0.08216   0.67870   0.00000  Uiso   1.00
H34    H     0.04727   0.26772   0.66916   0.00000  Uiso   1.00
H35    H     0.04766   0.03296   0.33058   0.00000  Uiso   1.00
H36    H     0.21768   0.03697   0.57276   0.00000  Uiso   1.00
H37    H     0.01183   0.42827   0.55266   0.00000  Uiso   1.00
O38    O     0.06347   0.08920   0.59099   0.00000  Uiso   1.00
O39    O     0.28653   0.09448   0.59676   0.00000  Uiso   1.00
O40    O     0.01647   0.60785   0.57038   0.00000  Uiso   1.00
N41    N     0.09634   0.19203   0.45219   0.00000  Uiso   1.00
N42    N     0.25530   0.19577   0.74370   0.00000  Uiso   1.00
N43    N     0.06286   0.56160   0.72487   0.00000  Uiso   1.00
N44    N     0.06431   0.08680   0.34379   0.00000  Uiso   1.00
N45    N     0.22327   0.09054   0.63530   0.00000  Uiso   1.00
N46    N     0.03083   0.45637   0.61647   0.00000  Uiso   1.00
C47    C     0.35903   0.67426   0.98318   0.00000  Uiso   1.00
C48    C     0.37916   0.73682   0.08594   0.00000  Uiso   1.00
C49    C     0.37825   0.73080   0.23273   0.00000  Uiso   1.00
C50    C     0.39853   0.79447   0.30793   0.00000  Uiso   1.00
C51    C     0.42667   0.88141   0.47803   0.00000  Uiso   1.00
C52    C     0.33535   0.73580   0.89070   0.00000  Uiso   1.00
C53    C     0.29760   0.72892   0.87331   0.00000  Uiso   1.00
C54    C     0.28101   0.79172   0.78413   0.00000  Uiso   1.00
C55    C     0.24112   0.87703   0.65103   0.00000  Uiso   1.00
C56    C     0.38839   0.63498   0.88553   0.00000  Uiso   1.00
C57    C     0.39523   0.54332   0.86376   0.00000  Uiso   1.00
C58    C     0.42329   0.52124   0.77020   0.00000  Uiso   1.00
C59    C     0.46575   0.45001   0.62908   0.00000  Uiso   1.00
C60    C     0.39670   0.79801   0.85569   0.00000  Uiso   1.00
C61    C     0.39962   0.80403   0.01669   0.00000  Uiso   1.00
C62    C     0.41992   0.86772   0.09169   0.00000  Uiso   1.00
C63    C     0.41903   0.86180   0.23856   0.00000  Uiso   1.00
C64    C     0.35581   0.80301   0.82145   0.00000  Uiso   1.00
C65    C     0.33927   0.86583   0.73227   0.00000  Uiso   1.00
C66    C     0.30150   0.85906   0.71476   0.00000  Uiso   1.00
C67    C     0.40885   0.70219   0.81628   0.00000  Uiso   1.00
C68    C     0.43690   0.68024   0.72273   0.00000  Uiso   1.00
C69    C     0.44378   0.58858   0.70083   0.00000  Uiso   1.00
H70    H     0.34310   0.62193   0.03708   0.00000  Uiso   1.00
H71    H     0.36241   0.67878   0.28628   0.00000  Uiso   1.00
H72    H     0.28177   0.67689   0.92690   0.00000  Uiso   1.00
H73    H     0.37939   0.49133   0.91737   0.00000  Uiso   1.00
H74    H     0.39282   0.77147   0.53203   0.00000  Uiso   1.00
H75    H     0.22280   0.76746   0.77422   0.00000  Uiso   1.00
H76    H     0.42864   0.37617   0.75411   0.00000  Uiso   1.00
H77    H     0.41263   0.85034   0.80178   0.00000  Uiso   1.00
H78    H     0.43575   0.91973   0.03807   0.00000  Uiso   1.00
H79    H     0.35511   0.91784   0.67870   0.00000  Uiso   1.00
H80    H     0.45273   0.73228   0.66916   0.00000  Uiso   1.00
H81    H     0.45234   0.96704   0.33058   0.00000  Uiso   1.00
H82    H     0.28232   0.96303   0.57276   0.00000  Uiso   1.00
H83    H     0.48817   0.57173   0.55266   0.00000  Uiso   1.00
O84    O     0.43653   0.91080   0.59099   0.00000  Uiso   1.00
O85    O     0.21347   0.90552   0.59676   0.00000  Uiso   1.00
O86    O     0.48353   0.39215   0.57038   0.00000  Uiso   1.00
N87    N     0.40366   0.80797   0.45219   0.00000  Uiso   1.00
N88    N     0.24470   0.80423   0.74370   0.00000  Uiso   1.00
N89    N     0.43714   0.43840   0.72487   0.00000  Uiso   1.00
N90    N     0.43569   0.91320   0.34379   0.00000  Uiso   1.00
N91    N     0.27673   0.90946   0.63530   0.00000  Uiso   1.00
N92    N     0.46917   0.54363   0.61647   0.00000  Uiso   1.00
C93    C     0.85903   0.32574   0.51682   0.00000  Uiso   1.00
C94    C     0.87916   0.26318   0.41406   0.00000  Uiso   1.00
C95    C     0.87825   0.26920   0.26727   0.00000  Uiso   1.00
C96    C     0.89853   0.20553   0.19207   0.00000  Uiso   1.00
C97    C     0.92667   0.11859   0.02197   0.00000  Uiso   1.00
C98    C     0.83535   0.26420   0.60930   0.00000  Uiso   1.00
C99    C     0.79760   0.27108   0.62669   0.00000  Uiso   1.00
C100   C     0.78101   0.20828   0.71587   0.00000  Uiso   1.00
C101   C     0.74112   0.12297   0.84897   0.00000  Uiso   1.00
C102   C     0.88839   0.36502   0.61447   0.00000  Uiso   1.00
C103   C     0.89523   0.45668   0.63624   0.00000  Uiso   1.00
C104   C     0.92329   0.47876   0.72980   0.00000  Uiso   1.00
C105   C     0.96575   0.54999   0.87092   0.00000  Uiso   1.00
C106   C     0.89670   0.20199   0.64431   0.00000  Uiso   1.00
C107   C     0.89962   0.19597   0.48331   0.00000  Uiso   1.00
C108   C     0.91992   0.13228   0.40831   0.00000  Uiso   1.00
C109   C     0.91903   0.13820   0.26144   0.00000  Uiso   1.00
C110   C     0.85581   0.19699   0.67855   0.00000  Uiso   1.00
C111   C     0.83927   0.13417   0.76773   0.00000  Uiso   1.00
C112   C     0.80150   0.14094   0.78524   0.00000  Uiso   1.00
C113   C     0.90885   0.29781   0.68372   0.00000  Uiso   1.00
C114   C     0.93690   0.31976   0.77727   0.00000  Uiso   1.00
C115   C     0.94378   0.41142   0.79917   0.00000  Uiso   1.00
H116   H     0.84310   0.37807   0.46292   0.00000  Uiso   1.00
H117   H     0.86241   0.32122   0.21372   0.00000  Uiso   1.00
H118   H     0.78177   0.32311   0.57310   0.00000  Uiso   1.00
H119   H     0.87939   0.50867   0.58263   0.00000  Uiso   1.00
H120   H     0.89282   0.22853   0.96797   0.00000  Uiso   1.00
H121   H     0.72280   0.23254   0.72578   0.00000  Uiso   1.00
H122   H     0.92864   0.62383   0.74589   0.00000  Uiso   1.00
H123   H     0.91263   0.14966   0.69822   0.00000  Uiso   1.00
H124   H     0.93575   0.08027   0.46193   0.00000  Uiso   1.00
H125   H     0.85511   0.08216   0.82130   0.00000  Uiso   1.00
H126   H     0.95273   0.26772   0.83084   0.00000  Uiso   1.00
H127   H     0.95234   0.03296   0.16942   0.00000  Uiso   1.00
H128   H     0.78232   0.03697   0.92724   0.00000  Uiso   1.00
H129   H     0.98817   0.42827   0.94734   0.00000  Uiso   1.00
O130   O     0.93653   0.08920   0.90901   0.00000  Uiso   1.00
O131   O     0.71347   0.09448   0.90324   0.00000  Uiso   1.00
O132   O     0.98353   0.60785   0.92962   0.00000  Uiso   1.00
N133   N     0.90366   0.19203   0.04781   0.00000  Uiso   1.00
N134   N     0.74470   0.19577   0.75630   0.00000  Uiso   1.00
N135   N     0.93714   0.56160   0.77513   0.00000  Uiso   1.00
N136   N     0.93569   0.08680   0.15621   0.00000  Uiso   1.00
N137   N     0.77673   0.09054   0.86470   0.00000  Uiso   1.00
N138   N     0.96917   0.45637   0.88353   0.00000  Uiso   1.00
C139   C     0.64097   0.67426   0.51682   0.00000  Uiso   1.00
C140   C     0.62084   0.73682   0.41406   0.00000  Uiso   1.00
C141   C     0.62175   0.73080   0.26727   0.00000  Uiso   1.00
C142   C     0.60147   0.79447   0.19207   0.00000  Uiso   1.00
C143   C     0.57333   0.88141   0.02197   0.00000  Uiso   1.00
C144   C     0.66465   0.73580   0.60930   0.00000  Uiso   1.00
C145   C     0.70240   0.72892   0.62669   0.00000  Uiso   1.00
C146   C     0.71899   0.79172   0.71587   0.00000  Uiso   1.00
C147   C     0.75888   0.87703   0.84897   0.00000  Uiso   1.00
C148   C     0.61161   0.63498   0.61447   0.00000  Uiso   1.00
C149   C     0.60477   0.54332   0.63624   0.00000  Uiso   1.00
C150   C     0.57671   0.52124   0.72980   0.00000  Uiso   1.00
C151   C     0.53425   0.45001   0.87092   0.00000  Uiso   1.00
C152   C     0.60330   0.79801   0.64431   0.00000  Uiso   1.00
C153   C     0.60038   0.80403   0.48331   0.00000  Uiso   1.00
C154   C     0.58008   0.86772   0.40831   0.00000  Uiso   1.00
C155   C     0.58097   0.86180   0.26144   0.00000  Uiso   1.00
C156   C     0.64419   0.80301   0.67855   0.00000  Uiso   1.00
C157   C     0.66073   0.86583   0.76773   0.00000  Uiso   1.00
C158   C     0.69850   0.85906   0.78524   0.00000  Uiso   1.00
C159   C     0.59115   0.70219   0.68372   0.00000  Uiso   1.00
C160   C     0.56310   0.68024   0.77727   0.00000  Uiso   1.00
C161   C     0.55622   0.58858   0.79917   0.00000  Uiso   1.00
H162   H     0.65690   0.62193   0.46292   0.00000  Uiso   1.00
H163   H     0.63759   0.67878   0.21372   0.00000  Uiso   1.00
H164   H     0.71823   0.67689   0.57310   0.00000  Uiso   1.00
H165   H     0.62061   0.49133   0.58263   0.00000  Uiso   1.00
H166   H     0.60718   0.77147   0.96797   0.00000  Uiso   1.00
H167   H     0.77720   0.76746   0.72578   0.00000  Uiso   1.00
H168   H     0.57136   0.37617   0.74589   0.00000  Uiso   1.00
H169   H     0.58737   0.85034   0.69822   0.00000  Uiso   1.00
H170   H     0.56425   0.91973   0.46193   0.00000  Uiso   1.00
H171   H     0.64489   0.91784   0.82130   0.00000  Uiso   1.00
H172   H     0.54727   0.73228   0.83084   0.00000  Uiso   1.00
H173   H     0.54766   0.96704   0.16942   0.00000  Uiso   1.00
H174   H     0.71768   0.96303   0.92724   0.00000  Uiso   1.00
H175   H     0.51183   0.57173   0.94734   0.00000  Uiso   1.00
O176   O     0.56347   0.91080   0.90901   0.00000  Uiso   1.00
O177   O     0.78653   0.90552   0.90324   0.00000  Uiso   1.00
O178   O     0.51647   0.39215   0.92962   0.00000  Uiso   1.00
N179   N     0.59634   0.80797   0.04781   0.00000  Uiso   1.00
N180   N     0.75530   0.80423   0.75630   0.00000  Uiso   1.00
N181   N     0.56286   0.43840   0.77513   0.00000  Uiso   1.00
N182   N     0.56431   0.91320   0.15621   0.00000  Uiso   1.00
N183   N     0.72327   0.90946   0.86470   0.00000  Uiso   1.00
N184   N     0.53083   0.54363   0.88353   0.00000  Uiso   1.00
C185   C     0.85903   0.67426   0.01682   0.00000  Uiso   1.00
C186   C     0.87916   0.73682   0.91406   0.00000  Uiso   1.00
C187   C     0.87825   0.73080   0.76727   0.00000  Uiso   1.00
C188   C     0.89853   0.79447   0.69207   0.00000  Uiso   1.00
C189   C     0.92667   0.88141   0.52197   0.00000  Uiso   1.00
C190   C     0.83535   0.73580   0.10930   0.00000  Uiso   1.00
C191   C     0.79760   0.72892   0.12669   0.00000  Uiso   1.00
C192   C     0.78101   0.79172   0.21587   0.00000  Uiso   1.00
C193   C     0.74112   0.87703   0.34897   0.00000  Uiso   1.00
C194   C     0.88839   0.63498   0.11447   0.00000  Uiso   1.00
C195   C     0.89523   0.54332   0.13624   0.00000  Uiso   1.00
C196   C     0.92329   0.52124   0.22980   0.00000  Uiso   1.00
C197   C     0.96575   0.45001   0.37092   0.00000  Uiso   1.00
C198   C     0.89670   0.79801   0.14431   0.00000  Uiso   1.00
C199   C     0.89962   0.80403   0.98331   0.00000  Uiso   1.00
C200   C     0.91992   0.86772   0.90831   0.00000  Uiso   1.00
C201   C     0.91903   0.86180   0.76144   0.00000  Uiso   1.00
C202   C     0.85581   0.80301   0.17855   0.00000  Uiso   1.00
C203   C     0.83927   0.86583   0.26773   0.00000  Uiso   1.00
C204   C     0.80150   0.85906   0.28524   0.00000  Uiso   1.00
C205   C     0.90885   0.70219   0.18372   0.00000  Uiso   1.00
C206   C     0.93690   0.68024   0.27727   0.00000  Uiso   1.00
C207   C     0.94378   0.58858   0.29917   0.00000  Uiso   1.00
H208   H     0.84310   0.62193   0.96292   0.00000  Uiso   1.00
H209   H     0.86241   0.67878   0.71372   0.00000  Uiso   1.00
H210   H     0.78177   0.67689   0.07310   0.00000  Uiso   1.00
H211   H     0.87939   0.49133   0.08263   0.00000  Uiso   1.00
H212   H     0.89282   0.77147   0.46797   0.00000  Uiso   1.00
H213   H     0.72280   0.76746   0.22578   0.00000  Uiso   1.00
H214   H     0.92864   0.37617   0.24589   0.00000  Uiso   1.00
H215   H     0.91263   0.85034   0.19822   0.00000  Uiso   1.00
H216   H     0.93575   0.91973   0.96193   0.00000  Uiso   1.00
H217   H     0.85511   0.91784   0.32130   0.00000  Uiso   1.00
H218   H     0.95273   0.73228   0.33084   0.00000  Uiso   1.00
H219   H     0.95234   0.96704   0.66942   0.00000  Uiso   1.00
H220   H     0.78232   0.96303   0.42724   0.00000  Uiso   1.00
H221   H     0.98817   0.57173   0.44734   0.00000  Uiso   1.00
O222   O     0.93653   0.91080   0.40901   0.00000  Uiso   1.00
O223   O     0.71347   0.90552   0.40324   0.00000  Uiso   1.00
O224   O     0.98353   0.39215   0.42962   0.00000  Uiso   1.00
N225   N     0.90366   0.80797   0.54781   0.00000  Uiso   1.00
N226   N     0.74470   0.80423   0.25630   0.00000  Uiso   1.00
N227   N     0.93714   0.43840   0.27513   0.00000  Uiso   1.00
N228   N     0.93569   0.91320   0.65621   0.00000  Uiso   1.00
N229   N     0.77673   0.90946   0.36470   0.00000  Uiso   1.00
N230   N     0.96917   0.54363   0.38353   0.00000  Uiso   1.00
C231   C     0.64097   0.32574   0.01682   0.00000  Uiso   1.00
C232   C     0.62084   0.26318   0.91406   0.00000  Uiso   1.00
C233   C     0.62175   0.26920   0.76727   0.00000  Uiso   1.00
C234   C     0.60147   0.20553   0.69207   0.00000  Uiso   1.00
C235   C     0.57333   0.11859   0.52197   0.00000  Uiso   1.00
C236   C     0.66465   0.26420   0.10930   0.00000  Uiso   1.00
C237   C     0.70240   0.27108   0.12669   0.00000  Uiso   1.00
C238   C     0.71899   0.20828   0.21587   0.00000  Uiso   1.00
C239   C     0.75888   0.12297   0.34897   0.00000  Uiso   1.00
C240   C     0.61161   0.36502   0.11447   0.00000  Uiso   1.00
C241   C     0.60477   0.45668   0.13624   0.00000  Uiso   1.00
C242   C     0.57671   0.47876   0.22980   0.00000  Uiso   1.00
C243   C     0.53425   0.54999   0.37092   0.00000  Uiso   1.00
C244   C     0.60330   0.20199   0.14431   0.00000  Uiso   1.00
C245   C     0.60038   0.19597   0.98331   0.00000  Uiso   1.00
C246   C     0.58008   0.13228   0.90831   0.00000  Uiso   1.00
C247   C     0.58097   0.13820   0.76144   0.00000  Uiso   1.00
C248   C     0.64419   0.19699   0.17855   0.00000  Uiso   1.00
C249   C     0.66073   0.13417   0.26773   0.00000  Uiso   1.00
C250   C     0.69850   0.14094   0.28524   0.00000  Uiso   1.00
C251   C     0.59115   0.29781   0.18372   0.00000  Uiso   1.00
C252   C     0.56310   0.31976   0.27727   0.00000  Uiso   1.00
C253   C     0.55622   0.41142   0.29917   0.00000  Uiso   1.00
H254   H     0.65690   0.37807   0.96292   0.00000  Uiso   1.00
H255   H     0.63759   0.32122   0.71372   0.00000  Uiso   1.00
H256   H     0.71823   0.32311   0.07310   0.00000  Uiso   1.00
H257   H     0.62061   0.50867   0.08263   0.00000  Uiso   1.00
H258   H     0.60718   0.22853   0.46797   0.00000  Uiso   1.00
H259   H     0.77720   0.23254   0.22578   0.00000  Uiso   1.00
H260   H     0.57136   0.62383   0.24589   0.00000  Uiso   1.00
H261   H     0.58737   0.14966   0.19822   0.00000  Uiso   1.00
H262   H     0.56425   0.08027   0.96193   0.00000  Uiso   1.00
H263   H     0.64489   0.08216   0.32130   0.00000  Uiso   1.00
H264   H     0.54727   0.26772   0.33084   0.00000  Uiso   1.00
H265   H     0.54766   0.03296   0.66942   0.00000  Uiso   1.00
H266   H     0.71768   0.03697   0.42724   0.00000  Uiso   1.00
H267   H     0.51183   0.42827   0.44734   0.00000  Uiso   1.00
O268   O     0.56347   0.08920   0.40901   0.00000  Uiso   1.00
O269   O     0.78653   0.09448   0.40324   0.00000  Uiso   1.00
O270   O     0.51647   0.60785   0.42962   0.00000  Uiso   1.00
N271   N     0.59634   0.19203   0.54781   0.00000  Uiso   1.00
N272   N     0.75530   0.19577   0.25630   0.00000  Uiso   1.00
N273   N     0.56286   0.56160   0.27513   0.00000  Uiso   1.00
N274   N     0.56431   0.08680   0.65621   0.00000  Uiso   1.00
N275   N     0.72327   0.09054   0.36470   0.00000  Uiso   1.00
N276   N     0.53083   0.45637   0.38353   0.00000  Uiso   1.00
C277   C     0.14097   0.67426   0.48318   0.00000  Uiso   1.00
C278   C     0.12084   0.73682   0.58594   0.00000  Uiso   1.00
C279   C     0.12175   0.73080   0.73273   0.00000  Uiso   1.00
C280   C     0.10147   0.79447   0.80793   0.00000  Uiso   1.00
C281   C     0.07333   0.88141   0.97803   0.00000  Uiso   1.00
C282   C     0.16465   0.73580   0.39070   0.00000  Uiso   1.00
C283   C     0.20240   0.72892   0.37331   0.00000  Uiso   1.00
C284   C     0.21899   0.79172   0.28413   0.00000  Uiso   1.00
C285   C     0.25888   0.87703   0.15103   0.00000  Uiso   1.00
C286   C     0.11161   0.63498   0.38553   0.00000  Uiso   1.00
C287   C     0.10477   0.54332   0.36376   0.00000  Uiso   1.00
C288   C     0.07671   0.52124   0.27020   0.00000  Uiso   1.00
C289   C     0.03425   0.45001   0.12908   0.00000  Uiso   1.00
C290   C     0.10330   0.79801   0.35569   0.00000  Uiso   1.00
C291   C     0.10038   0.80403   0.51669   0.00000  Uiso   1.00
C292   C     0.08008   0.86772   0.59169   0.00000  Uiso   1.00
C293   C     0.08097   0.86180   0.73856   0.00000  Uiso   1.00
C294   C     0.14419   0.80301   0.32145   0.00000  Uiso   1.00
C295   C     0.16073   0.86583   0.23227   0.00000  Uiso   1.00
C296   C     0.19850   0.85906   0.21476   0.00000  Uiso   1.00
C297   C     0.09115   0.70219   0.31628   0.00000  Uiso   1.00
C298   C     0.06310   0.68024   0.22273   0.00000  Uiso   1.00
C299   C     0.05622   0.58858   0.20083   0.00000  Uiso   1.00
H300   H     0.15690   0.62193   0.53708   0.00000  Uiso   1.00
H301   H     0.13759   0.67878   0.78628   0.00000  Uiso   1.00
H302   H     0.21823   0.67689   0.42690   0.00000  Uiso   1.00
H303   H     0.12061   0.49133   0.41737   0.00000  Uiso   1.00
H304   H     0.10718   0.77147   0.03203   0.00000  Uiso   1.00
H305   H     0.27720   0.76746   0.27422   0.00000  Uiso   1.00
H306   H     0.07136   0.37617   0.25411   0.00000  Uiso   1.00
H307   H     0.08737   0.85034   0.30178   0.00000  Uiso   1.00
H308   H     0.06425   0.91973   0.53807   0.00000  Uiso   1.00
H309   H     0.14489   0.91784   0.17870   0.00000  Uiso   1.00
H310   H     0.04727   0.73228   0.16916   0.00000  Uiso   1.00
H311   H     0.04766   0.96704   0.83058   0.00000  Uiso   1.00
H312   H     0.21768   0.96303   0.07276   0.00000  Uiso   1.00
H313   H     0.01183   0.57173   0.05266   0.00000  Uiso   1.00
O314   O     0.06347   0.91080   0.09099   0.00000  Uiso   1.00
O315   O     0.28653   0.90552   0.09676   0.00000  Uiso   1.00
O316   O     0.01647   0.39215   0.07038   0.00000  Uiso   1.00
N317   N     0.09634   0.80797   0.95219   0.00000  Uiso   1.00
N318   N     0.25530   0.80423   0.24370   0.00000  Uiso   1.00
N319   N     0.06286   0.43840   0.22487   0.00000  Uiso   1.00
N320   N     0.06431   0.91320   0.84379   0.00000  Uiso   1.00
N321   N     0.22327   0.90946   0.13530   0.00000  Uiso   1.00
N322   N     0.03083   0.54363   0.11647   0.00000  Uiso   1.00
C323   C     0.35903   0.32574   0.48318   0.00000  Uiso   1.00
C324   C     0.37916   0.26318   0.58594   0.00000  Uiso   1.00
C325   C     0.37825   0.26920   0.73273   0.00000  Uiso   1.00
C326   C     0.39853   0.20553   0.80793   0.00000  Uiso   1.00
C327   C     0.42667   0.11859   0.97803   0.00000  Uiso   1.00
C328   C     0.33535   0.26420   0.39070   0.00000  Uiso   1.00
C329   C     0.29760   0.27108   0.37331   0.00000  Uiso   1.00
C330   C     0.28101   0.20828   0.28413   0.00000  Uiso   1.00
C331   C     0.24112   0.12297   0.15103   0.00000  Uiso   1.00
C332   C     0.38839   0.36502   0.38553   0.00000  Uiso   1.00
C333   C     0.39523   0.45668   0.36376   0.00000  Uiso   1.00
C334   C     0.42329   0.47876   0.27020   0.00000  Uiso   1.00
C335   C     0.46575   0.54999   0.12908   0.00000  Uiso   1.00
C336   C     0.39670   0.20199   0.35569   0.00000  Uiso   1.00
C337   C     0.39962   0.19597   0.51669   0.00000  Uiso   1.00
C338   C     0.41992   0.13228   0.59169   0.00000  Uiso   1.00
C339   C     0.41903   0.13820   0.73856   0.00000  Uiso   1.00
C340   C     0.35581   0.19699   0.32145   0.00000  Uiso   1.00
C341   C     0.33927   0.13417   0.23227   0.00000  Uiso   1.00
C342   C     0.30150   0.14094   0.21476   0.00000  Uiso   1.00
C343   C     0.40885   0.29781   0.31628   0.00000  Uiso   1.00
C344   C     0.43690   0.31976   0.22273   0.00000  Uiso   1.00
C345   C     0.44378   0.41142   0.20083   0.00000  Uiso   1.00
H346   H     0.34310   0.37807   0.53708   0.00000  Uiso   1.00
H347   H     0.36241   0.32122   0.78628   0.00000  Uiso   1.00
H348   H     0.28177   0.32311   0.42690   0.00000  Uiso   1.00
H349   H     0.37939   0.50867   0.41737   0.00000  Uiso   1.00
H350   H     0.39282   0.22853   0.03203   0.00000  Uiso   1.00
H351   H     0.22280   0.23254   0.27422   0.00000  Uiso   1.00
H352   H     0.42864   0.62383   0.25411   0.00000  Uiso   1.00
H353   H     0.41263   0.14966   0.30178   0.00000  Uiso   1.00
H354   H     0.43575   0.08027   0.53807   0.00000  Uiso   1.00
H355   H     0.35511   0.08216   0.17870   0.00000  Uiso   1.00
H356   H     0.45273   0.26772   0.16916   0.00000  Uiso   1.00
H357   H     0.45234   0.03296   0.83058   0.00000  Uiso   1.00
H358   H     0.28232   0.03697   0.07276   0.00000  Uiso   1.00
H359   H     0.48817   0.42827   0.05266   0.00000  Uiso   1.00
O360   O     0.43653   0.08920   0.09099   0.00000  Uiso   1.00
O361   O     0.21347   0.09448   0.09676   0.00000  Uiso   1.00
O362   O     0.48353   0.60785   0.07038   0.00000  Uiso   1.00
N363   N     0.40366   0.19203   0.95219   0.00000  Uiso   1.00
N364   N     0.24470   0.19577   0.24370   0.00000  Uiso   1.00
N365   N     0.43714   0.56160   0.22487   0.00000  Uiso   1.00
N366   N     0.43569   0.08680   0.84379   0.00000  Uiso   1.00
N367   N     0.27673   0.09054   0.13530   0.00000  Uiso   1.00
N368   N     0.46917   0.45637   0.11647   0.00000  Uiso   1.00
