data_job_01929
_audit_creation_date              2018-12-19
_audit_creation_method            'Materials Studio'
_symmetry_space_group_name_H-M    'P1'
_symmetry_Int_Tables_number       1
_symmetry_cell_setting            triclinic
loop_
_symmetry_equiv_pos_as_xyz
  x,y,z
_cell_length_a                    17.8733
_cell_length_b                    18.6929
_cell_length_c                    9.3192
_cell_angle_alpha                 90.0000
_cell_angle_beta                  95.8615
_cell_angle_gamma                 90.0000
loop_
_atom_site_label
_atom_site_type_symbol
_atom_site_fract_x
_atom_site_fract_y
_atom_site_fract_z
_atom_site_U_iso_or_equiv
_atom_site_adp_type
_atom_site_occupancy
C1     C     0.28591   0.15972   0.07902   0.00000  Uiso   1.00
C2     C     0.35338   0.17451   0.18881   0.00000  Uiso   1.00
C3     C     0.38872   0.24016   0.21276   0.00000  Uiso   1.00
C4     C     0.44954   0.24264   0.31798   0.00000  Uiso   1.00
C5     C     0.55059   0.27489   0.47648   0.00000  Uiso   1.00
C6     C     0.30995   0.09960   0.98307   0.00000  Uiso   1.00
C7     C     0.30877   0.10227   0.83403   0.00000  Uiso   1.00
C8     C     0.33303   0.04168   0.76607   0.00000  Uiso   1.00
C9     C     0.36661   0.95761   0.60514   0.00000  Uiso   1.00
C10    C     0.22535   0.12805   0.16406   0.00000  Uiso   1.00
C11    C     0.15303   0.15462   0.16717   0.00000  Uiso   1.00
C12    C     0.10605   0.11797   0.25157   0.00000  Uiso   1.00
C13    C     0.00827   0.07807   0.37166   0.00000  Uiso   1.00
C14    C     0.33106   0.04738   0.22333   0.00000  Uiso   1.00
C15    C     0.37790   0.11349   0.26719   0.00000  Uiso   1.00
C16    C     0.43868   0.11587   0.37241   0.00000  Uiso   1.00
C17    C     0.47410   0.18152   0.39651   0.00000  Uiso   1.00
C18    C     0.33448   0.03859   0.06145   0.00000  Uiso   1.00
C19    C     0.35873   0.97798   0.99369   0.00000  Uiso   1.00
C20    C     0.35760   0.98055   0.84459   0.00000  Uiso   1.00
C21    C     0.24988   0.06704   0.24245   0.00000  Uiso   1.00
C22    C     0.20299   0.03034   0.32684   0.00000  Uiso   1.00
C23    C     0.13062   0.05685   0.33008   0.00000  Uiso   1.00
H24    H     0.26682   0.20722   0.01799   0.00000  Uiso   1.00
H25    H     0.36973   0.28737   0.15207   0.00000  Uiso   1.00
H26    H     0.28978   0.14949   0.77341   0.00000  Uiso   1.00
H27    H     0.13407   0.20184   0.10650   0.00000  Uiso   1.00
H28    H     0.49465   0.34931   0.33524   0.00000  Uiso   1.00
H29    H     0.32607   0.05858   0.53681   0.00000  Uiso   1.00
H30    H     0.99771   0.16897   0.23920   0.00000  Uiso   1.00
H31    H     0.35016   0.99988   0.28435   0.00000  Uiso   1.00
H32    H     0.45765   0.06865   0.43305   0.00000  Uiso   1.00
H33    H     0.37771   0.93077   0.05438   0.00000  Uiso   1.00
H34    H     0.22199   0.98312   0.38748   0.00000  Uiso   1.00
H35    H     0.56602   0.17179   0.56329   0.00000  Uiso   1.00
H36    H     0.39743   0.88106   0.76485   0.00000  Uiso   1.00
H37    H     0.06907   0.99145   0.46725   0.00000  Uiso   1.00
O38    O     0.59955   0.30953   0.54224   0.00000  Uiso   1.00
O39    O     0.37836   0.92810   0.49472   0.00000  Uiso   1.00
O40    O     0.94757   0.07293   0.41626   0.00000  Uiso   1.00
N41    N     0.49669   0.29810   0.36853   0.00000  Uiso   1.00
N42    N     0.33908   0.02629   0.62204   0.00000  Uiso   1.00
N43    N     0.03209   0.12948   0.27869   0.00000  Uiso   1.00
N44    N     0.53509   0.20258   0.49124   0.00000  Uiso   1.00
N45    N     0.37748   0.93077   0.74475   0.00000  Uiso   1.00
N46    N     0.07049   0.03396   0.40140   0.00000  Uiso   1.00
C47    C     0.71409   0.65972   0.42098   0.00000  Uiso   1.00
C48    C     0.64662   0.67451   0.31119   0.00000  Uiso   1.00
C49    C     0.61128   0.74016   0.28724   0.00000  Uiso   1.00
C50    C     0.55046   0.74264   0.18202   0.00000  Uiso   1.00
C51    C     0.44941   0.77489   0.02352   0.00000  Uiso   1.00
C52    C     0.69005   0.59960   0.51693   0.00000  Uiso   1.00
C53    C     0.69123   0.60227   0.66597   0.00000  Uiso   1.00
C54    C     0.66697   0.54168   0.73393   0.00000  Uiso   1.00
C55    C     0.63339   0.45761   0.89486   0.00000  Uiso   1.00
C56    C     0.77465   0.62805   0.33594   0.00000  Uiso   1.00
C57    C     0.84697   0.65462   0.33283   0.00000  Uiso   1.00
C58    C     0.89395   0.61797   0.24843   0.00000  Uiso   1.00
C59    C     0.99173   0.57807   0.12834   0.00000  Uiso   1.00
C60    C     0.66894   0.54738   0.27667   0.00000  Uiso   1.00
C61    C     0.62210   0.61349   0.23281   0.00000  Uiso   1.00
C62    C     0.56132   0.61587   0.12759   0.00000  Uiso   1.00
C63    C     0.52590   0.68152   0.10349   0.00000  Uiso   1.00
C64    C     0.66552   0.53859   0.43855   0.00000  Uiso   1.00
C65    C     0.64127   0.47798   0.50631   0.00000  Uiso   1.00
C66    C     0.64240   0.48055   0.65541   0.00000  Uiso   1.00
C67    C     0.75012   0.56704   0.25755   0.00000  Uiso   1.00
C68    C     0.79701   0.53034   0.17316   0.00000  Uiso   1.00
C69    C     0.86938   0.55685   0.16992   0.00000  Uiso   1.00
H70    H     0.73318   0.70722   0.48201   0.00000  Uiso   1.00
H71    H     0.63027   0.78737   0.34793   0.00000  Uiso   1.00
H72    H     0.71022   0.64949   0.72659   0.00000  Uiso   1.00
H73    H     0.86593   0.70184   0.39350   0.00000  Uiso   1.00
H74    H     0.50535   0.84931   0.16476   0.00000  Uiso   1.00
H75    H     0.67393   0.55858   0.96319   0.00000  Uiso   1.00
H76    H     0.00229   0.66897   0.26080   0.00000  Uiso   1.00
H77    H     0.64984   0.49988   0.21565   0.00000  Uiso   1.00
H78    H     0.54235   0.56865   0.06695   0.00000  Uiso   1.00
H79    H     0.62229   0.43077   0.44562   0.00000  Uiso   1.00
H80    H     0.77801   0.48312   0.11252   0.00000  Uiso   1.00
H81    H     0.43398   0.67179   0.93671   0.00000  Uiso   1.00
H82    H     0.60257   0.38106   0.73515   0.00000  Uiso   1.00
H83    H     0.93093   0.49145   0.03275   0.00000  Uiso   1.00
O84    O     0.40045   0.80953   0.95776   0.00000  Uiso   1.00
O85    O     0.62164   0.42810   0.00528   0.00000  Uiso   1.00
O86    O     0.05243   0.57293   0.08374   0.00000  Uiso   1.00
N87    N     0.50331   0.79810   0.13147   0.00000  Uiso   1.00
N88    N     0.66092   0.52629   0.87796   0.00000  Uiso   1.00
N89    N     0.96791   0.62948   0.22131   0.00000  Uiso   1.00
N90    N     0.46491   0.70258   0.00876   0.00000  Uiso   1.00
N91    N     0.62252   0.43077   0.75525   0.00000  Uiso   1.00
N92    N     0.92951   0.53396   0.09860   0.00000  Uiso   1.00
C93    C     0.71409   0.84028   0.92098   0.00000  Uiso   1.00
C94    C     0.64662   0.82549   0.81119   0.00000  Uiso   1.00
C95    C     0.61128   0.75984   0.78724   0.00000  Uiso   1.00
C96    C     0.55046   0.75736   0.68202   0.00000  Uiso   1.00
C97    C     0.44941   0.72511   0.52352   0.00000  Uiso   1.00
C98    C     0.69005   0.90040   0.01693   0.00000  Uiso   1.00
C99    C     0.69123   0.89773   0.16597   0.00000  Uiso   1.00
C100   C     0.66697   0.95832   0.23393   0.00000  Uiso   1.00
C101   C     0.63339   0.04239   0.39486   0.00000  Uiso   1.00
C102   C     0.77465   0.87195   0.83594   0.00000  Uiso   1.00
C103   C     0.84697   0.84538   0.83283   0.00000  Uiso   1.00
C104   C     0.89395   0.88203   0.74843   0.00000  Uiso   1.00
C105   C     0.99173   0.92193   0.62834   0.00000  Uiso   1.00
C106   C     0.66894   0.95262   0.77667   0.00000  Uiso   1.00
C107   C     0.62210   0.88651   0.73281   0.00000  Uiso   1.00
C108   C     0.56132   0.88413   0.62759   0.00000  Uiso   1.00
C109   C     0.52590   0.81848   0.60349   0.00000  Uiso   1.00
C110   C     0.66552   0.96141   0.93855   0.00000  Uiso   1.00
C111   C     0.64127   0.02202   0.00631   0.00000  Uiso   1.00
C112   C     0.64240   0.01945   0.15541   0.00000  Uiso   1.00
C113   C     0.75012   0.93296   0.75755   0.00000  Uiso   1.00
C114   C     0.79701   0.96966   0.67316   0.00000  Uiso   1.00
C115   C     0.86938   0.94315   0.66992   0.00000  Uiso   1.00
H116   H     0.73318   0.79278   0.98201   0.00000  Uiso   1.00
H117   H     0.63027   0.71263   0.84793   0.00000  Uiso   1.00
H118   H     0.71022   0.85051   0.22659   0.00000  Uiso   1.00
H119   H     0.86593   0.79816   0.89350   0.00000  Uiso   1.00
H120   H     0.50535   0.65069   0.66476   0.00000  Uiso   1.00
H121   H     0.67393   0.94142   0.46319   0.00000  Uiso   1.00
H122   H     0.00229   0.83103   0.76080   0.00000  Uiso   1.00
H123   H     0.64984   0.00012   0.71565   0.00000  Uiso   1.00
H124   H     0.54235   0.93135   0.56695   0.00000  Uiso   1.00
H125   H     0.62229   0.06923   0.94562   0.00000  Uiso   1.00
H126   H     0.77801   0.01688   0.61252   0.00000  Uiso   1.00
H127   H     0.43398   0.82821   0.43671   0.00000  Uiso   1.00
H128   H     0.60257   0.11894   0.23515   0.00000  Uiso   1.00
H129   H     0.93093   0.00855   0.53275   0.00000  Uiso   1.00
O130   O     0.40045   0.69047   0.45776   0.00000  Uiso   1.00
O131   O     0.62164   0.07190   0.50528   0.00000  Uiso   1.00
O132   O     0.05243   0.92707   0.58374   0.00000  Uiso   1.00
N133   N     0.50331   0.70190   0.63147   0.00000  Uiso   1.00
N134   N     0.66092   0.97371   0.37796   0.00000  Uiso   1.00
N135   N     0.96791   0.87052   0.72131   0.00000  Uiso   1.00
N136   N     0.46491   0.79742   0.50876   0.00000  Uiso   1.00
N137   N     0.62252   0.06923   0.25525   0.00000  Uiso   1.00
N138   N     0.92951   0.96604   0.59860   0.00000  Uiso   1.00
C139   C     0.28591   0.34028   0.57902   0.00000  Uiso   1.00
C140   C     0.35338   0.32549   0.68881   0.00000  Uiso   1.00
C141   C     0.38872   0.25984   0.71276   0.00000  Uiso   1.00
C142   C     0.44954   0.25736   0.81798   0.00000  Uiso   1.00
C143   C     0.55059   0.22511   0.97648   0.00000  Uiso   1.00
C144   C     0.30995   0.40040   0.48307   0.00000  Uiso   1.00
C145   C     0.30877   0.39773   0.33403   0.00000  Uiso   1.00
C146   C     0.33303   0.45832   0.26607   0.00000  Uiso   1.00
C147   C     0.36661   0.54239   0.10514   0.00000  Uiso   1.00
C148   C     0.22535   0.37195   0.66406   0.00000  Uiso   1.00
C149   C     0.15303   0.34538   0.66717   0.00000  Uiso   1.00
C150   C     0.10605   0.38203   0.75157   0.00000  Uiso   1.00
C151   C     0.00827   0.42193   0.87166   0.00000  Uiso   1.00
C152   C     0.33106   0.45262   0.72333   0.00000  Uiso   1.00
C153   C     0.37790   0.38651   0.76719   0.00000  Uiso   1.00
C154   C     0.43868   0.38413   0.87241   0.00000  Uiso   1.00
C155   C     0.47410   0.31848   0.89651   0.00000  Uiso   1.00
C156   C     0.33448   0.46141   0.56145   0.00000  Uiso   1.00
C157   C     0.35873   0.52202   0.49369   0.00000  Uiso   1.00
C158   C     0.35760   0.51945   0.34459   0.00000  Uiso   1.00
C159   C     0.24988   0.43296   0.74245   0.00000  Uiso   1.00
C160   C     0.20299   0.46966   0.82684   0.00000  Uiso   1.00
C161   C     0.13062   0.44315   0.83008   0.00000  Uiso   1.00
H162   H     0.26682   0.29278   0.51799   0.00000  Uiso   1.00
H163   H     0.36973   0.21263   0.65207   0.00000  Uiso   1.00
H164   H     0.28978   0.35051   0.27341   0.00000  Uiso   1.00
H165   H     0.13407   0.29816   0.60650   0.00000  Uiso   1.00
H166   H     0.49465   0.15069   0.83524   0.00000  Uiso   1.00
H167   H     0.32607   0.44142   0.03681   0.00000  Uiso   1.00
H168   H     0.99771   0.33103   0.73920   0.00000  Uiso   1.00
H169   H     0.35016   0.50012   0.78435   0.00000  Uiso   1.00
H170   H     0.45765   0.43135   0.93305   0.00000  Uiso   1.00
H171   H     0.37771   0.56923   0.55438   0.00000  Uiso   1.00
H172   H     0.22199   0.51688   0.88748   0.00000  Uiso   1.00
H173   H     0.56602   0.32821   0.06329   0.00000  Uiso   1.00
H174   H     0.39743   0.61894   0.26485   0.00000  Uiso   1.00
H175   H     0.06907   0.50855   0.96725   0.00000  Uiso   1.00
O176   O     0.59955   0.19047   0.04224   0.00000  Uiso   1.00
O177   O     0.37836   0.57190   0.99472   0.00000  Uiso   1.00
O178   O     0.94757   0.42707   0.91626   0.00000  Uiso   1.00
N179   N     0.49669   0.20190   0.86853   0.00000  Uiso   1.00
N180   N     0.33908   0.47371   0.12204   0.00000  Uiso   1.00
N181   N     0.03209   0.37052   0.77869   0.00000  Uiso   1.00
N182   N     0.53509   0.29742   0.99124   0.00000  Uiso   1.00
N183   N     0.37748   0.56923   0.24475   0.00000  Uiso   1.00
N184   N     0.07049   0.46604   0.90140   0.00000  Uiso   1.00
