data_job_04973
_audit_creation_date              2018-12-19
_audit_creation_method            'Materials Studio'
_symmetry_space_group_name_H-M    'P1'
_symmetry_Int_Tables_number       1
_symmetry_cell_setting            triclinic
loop_
_symmetry_equiv_pos_as_xyz
  x,y,z
_cell_length_a                    12.1260
_cell_length_b                    8.7240
_cell_length_c                    25.8771
_cell_angle_alpha                 90.0000
_cell_angle_beta                  112.4627
_cell_angle_gamma                 90.0000
loop_
_atom_site_label
_atom_site_type_symbol
_atom_site_fract_x
_atom_site_fract_y
_atom_site_fract_z
_atom_site_U_iso_or_equiv
_atom_site_adp_type
_atom_site_occupancy
C1     C     0.23884   0.38006   0.13490   0.00000  Uiso   1.00
C2     C     0.25951   0.26813   0.09423   0.00000  Uiso   1.00
C3     C     0.30977   0.30401   0.05573   0.00000  Uiso   1.00
C4     C     0.32099   0.18541   0.02230   0.00000  Uiso   1.00
C5     C     0.35877   0.03430   0.95838   0.00000  Uiso   1.00
C6     C     0.10601   0.37143   0.12361   0.00000  Uiso   1.00
C7     C     0.02723   0.49417   0.10981   0.00000  Uiso   1.00
C8     C     0.90924   0.46253   0.10111   0.00000  Uiso   1.00
C9     C     0.70874   0.47182   0.08284   0.00000  Uiso   1.00
C10    C     0.30337   0.31256   0.19307   0.00000  Uiso   1.00
C11    C     0.39051   0.38582   0.23770   0.00000  Uiso   1.00
C12    C     0.43867   0.30463   0.28749   0.00000  Uiso   1.00
C13    C     0.54460   0.22251   0.37708   0.00000  Uiso   1.00
C14    C     0.16938   0.10562   0.14398   0.00000  Uiso   1.00
C15    C     0.22178   0.11907   0.09916   0.00000  Uiso   1.00
C16    C     0.23293   0.00038   0.06578   0.00000  Uiso   1.00
C17    C     0.28320   0.03608   0.02724   0.00000  Uiso   1.00
C18    C     0.06829   0.22237   0.12853   0.00000  Uiso   1.00
C19    C     0.95038   0.19054   0.11986   0.00000  Uiso   1.00
C20    C     0.87144   0.31320   0.10605   0.00000  Uiso   1.00
C21    C     0.26565   0.16349   0.19801   0.00000  Uiso   1.00
C22    C     0.31367   0.08218   0.24774   0.00000  Uiso   1.00
C23    C     0.40087   0.15530   0.29243   0.00000  Uiso   1.00
H24    H     0.26820   0.49611   0.13106   0.00000  Uiso   1.00
H25    H     0.33895   0.41938   0.05193   0.00000  Uiso   1.00
H26    H     0.05645   0.60951   0.10601   0.00000  Uiso   1.00
H27    H     0.41968   0.50117   0.23387   0.00000  Uiso   1.00
H28    H     0.40071   0.26859   0.96636   0.00000  Uiso   1.00
H29    H     0.80506   0.66950   0.08040   0.00000  Uiso   1.00
H30    H     0.57100   0.44104   0.35003   0.00000  Uiso   1.00
H31    H     0.14000   0.98957   0.14781   0.00000  Uiso   1.00
H32    H     0.20372   0.88504   0.06960   0.00000  Uiso   1.00
H33    H     0.92122   0.07518   0.12368   0.00000  Uiso   1.00
H34    H     0.28445   0.96683   0.25154   0.00000  Uiso   1.00
H35    H     0.29095   0.83490   0.98070   0.00000  Uiso   1.00
H36    H     0.69530   0.23582   0.09474   0.00000  Uiso   1.00
H37    H     0.46124   0.00735   0.36437   0.00000  Uiso   1.00
O38    O     0.39002   0.99214   0.92176   0.00000  Uiso   1.00
O39    O     0.60856   0.51812   0.07140   0.00000  Uiso   1.00
O40    O     0.61346   0.21838   0.42513   0.00000  Uiso   1.00
N41    N     0.36615   0.18086   0.98047   0.00000  Uiso   1.00
N42    N     0.80925   0.55568   0.08709   0.00000  Uiso   1.00
N43    N     0.52532   0.34211   0.33917   0.00000  Uiso   1.00
N44    N     0.30710   0.94750   0.98819   0.00000  Uiso   1.00
N45    N     0.75020   0.32232   0.09481   0.00000  Uiso   1.00
N46    N     0.46626   0.10875   0.34689   0.00000  Uiso   1.00
C47    C     0.76116   0.88006   0.36510   0.00000  Uiso   1.00
C48    C     0.74049   0.76813   0.40577   0.00000  Uiso   1.00
C49    C     0.69023   0.80401   0.44427   0.00000  Uiso   1.00
C50    C     0.67901   0.68541   0.47770   0.00000  Uiso   1.00
C51    C     0.64123   0.53430   0.54162   0.00000  Uiso   1.00
C52    C     0.89399   0.87143   0.37639   0.00000  Uiso   1.00
C53    C     0.97277   0.99417   0.39019   0.00000  Uiso   1.00
C54    C     0.09076   0.96253   0.39889   0.00000  Uiso   1.00
C55    C     0.29126   0.97182   0.41716   0.00000  Uiso   1.00
C56    C     0.69663   0.81256   0.30693   0.00000  Uiso   1.00
C57    C     0.60949   0.88582   0.26230   0.00000  Uiso   1.00
C58    C     0.56133   0.80463   0.21251   0.00000  Uiso   1.00
C59    C     0.45540   0.72251   0.12292   0.00000  Uiso   1.00
C60    C     0.83062   0.60562   0.35602   0.00000  Uiso   1.00
C61    C     0.77822   0.61907   0.40084   0.00000  Uiso   1.00
C62    C     0.76707   0.50038   0.43422   0.00000  Uiso   1.00
C63    C     0.71680   0.53608   0.47276   0.00000  Uiso   1.00
C64    C     0.93171   0.72237   0.37147   0.00000  Uiso   1.00
C65    C     0.04962   0.69054   0.38014   0.00000  Uiso   1.00
C66    C     0.12856   0.81320   0.39395   0.00000  Uiso   1.00
C67    C     0.73435   0.66349   0.30199   0.00000  Uiso   1.00
C68    C     0.68633   0.58218   0.25226   0.00000  Uiso   1.00
C69    C     0.59913   0.65530   0.20757   0.00000  Uiso   1.00
H70    H     0.73180   0.99611   0.36894   0.00000  Uiso   1.00
H71    H     0.66105   0.91938   0.44807   0.00000  Uiso   1.00
H72    H     0.94355   0.10951   0.39399   0.00000  Uiso   1.00
H73    H     0.58032   0.00117   0.26613   0.00000  Uiso   1.00
H74    H     0.59929   0.76859   0.53364   0.00000  Uiso   1.00
H75    H     0.19494   0.16950   0.41960   0.00000  Uiso   1.00
H76    H     0.42900   0.94104   0.14997   0.00000  Uiso   1.00
H77    H     0.86000   0.48957   0.35219   0.00000  Uiso   1.00
H78    H     0.79628   0.38504   0.43040   0.00000  Uiso   1.00
H79    H     0.07878   0.57518   0.37632   0.00000  Uiso   1.00
H80    H     0.71555   0.46683   0.24846   0.00000  Uiso   1.00
H81    H     0.70905   0.33490   0.51930   0.00000  Uiso   1.00
H82    H     0.30470   0.73582   0.40526   0.00000  Uiso   1.00
H83    H     0.53876   0.50735   0.13563   0.00000  Uiso   1.00
O84    O     0.60998   0.49214   0.57824   0.00000  Uiso   1.00
O85    O     0.39144   0.01812   0.42860   0.00000  Uiso   1.00
O86    O     0.38654   0.71838   0.07487   0.00000  Uiso   1.00
N87    N     0.63385   0.68086   0.51953   0.00000  Uiso   1.00
N88    N     0.19075   0.05568   0.41291   0.00000  Uiso   1.00
N89    N     0.47468   0.84211   0.16083   0.00000  Uiso   1.00
N90    N     0.69290   0.44750   0.51181   0.00000  Uiso   1.00
N91    N     0.24980   0.82232   0.40519   0.00000  Uiso   1.00
N92    N     0.53374   0.60875   0.15311   0.00000  Uiso   1.00
C93    C     0.76116   0.61994   0.86510   0.00000  Uiso   1.00
C94    C     0.74049   0.73187   0.90577   0.00000  Uiso   1.00
C95    C     0.69023   0.69599   0.94427   0.00000  Uiso   1.00
C96    C     0.67901   0.81459   0.97770   0.00000  Uiso   1.00
C97    C     0.64123   0.96570   0.04162   0.00000  Uiso   1.00
C98    C     0.89399   0.62857   0.87639   0.00000  Uiso   1.00
C99    C     0.97277   0.50583   0.89019   0.00000  Uiso   1.00
C100   C     0.09076   0.53747   0.89889   0.00000  Uiso   1.00
C101   C     0.29126   0.52818   0.91716   0.00000  Uiso   1.00
C102   C     0.69663   0.68744   0.80693   0.00000  Uiso   1.00
C103   C     0.60949   0.61418   0.76230   0.00000  Uiso   1.00
C104   C     0.56133   0.69537   0.71251   0.00000  Uiso   1.00
C105   C     0.45540   0.77749   0.62292   0.00000  Uiso   1.00
C106   C     0.83062   0.89438   0.85602   0.00000  Uiso   1.00
C107   C     0.77822   0.88093   0.90084   0.00000  Uiso   1.00
C108   C     0.76707   0.99962   0.93422   0.00000  Uiso   1.00
C109   C     0.71680   0.96392   0.97276   0.00000  Uiso   1.00
C110   C     0.93171   0.77763   0.87147   0.00000  Uiso   1.00
C111   C     0.04962   0.80946   0.88014   0.00000  Uiso   1.00
C112   C     0.12856   0.68680   0.89395   0.00000  Uiso   1.00
C113   C     0.73435   0.83651   0.80199   0.00000  Uiso   1.00
C114   C     0.68633   0.91782   0.75226   0.00000  Uiso   1.00
C115   C     0.59913   0.84470   0.70757   0.00000  Uiso   1.00
H116   H     0.73180   0.50389   0.86894   0.00000  Uiso   1.00
H117   H     0.66105   0.58062   0.94807   0.00000  Uiso   1.00
H118   H     0.94355   0.39049   0.89399   0.00000  Uiso   1.00
H119   H     0.58032   0.49883   0.76613   0.00000  Uiso   1.00
H120   H     0.59929   0.73141   0.03364   0.00000  Uiso   1.00
H121   H     0.19494   0.33050   0.91960   0.00000  Uiso   1.00
H122   H     0.42900   0.55896   0.64997   0.00000  Uiso   1.00
H123   H     0.86000   0.01043   0.85219   0.00000  Uiso   1.00
H124   H     0.79628   0.11496   0.93040   0.00000  Uiso   1.00
H125   H     0.07878   0.92482   0.87632   0.00000  Uiso   1.00
H126   H     0.71555   0.03317   0.74846   0.00000  Uiso   1.00
H127   H     0.70905   0.16510   0.01930   0.00000  Uiso   1.00
H128   H     0.30470   0.76418   0.90526   0.00000  Uiso   1.00
H129   H     0.53876   0.99265   0.63563   0.00000  Uiso   1.00
O130   O     0.60998   0.00786   0.07824   0.00000  Uiso   1.00
O131   O     0.39144   0.48188   0.92860   0.00000  Uiso   1.00
O132   O     0.38654   0.78162   0.57487   0.00000  Uiso   1.00
N133   N     0.63385   0.81914   0.01953   0.00000  Uiso   1.00
N134   N     0.19075   0.44432   0.91291   0.00000  Uiso   1.00
N135   N     0.47468   0.65789   0.66083   0.00000  Uiso   1.00
N136   N     0.69290   0.05250   0.01181   0.00000  Uiso   1.00
N137   N     0.24980   0.67768   0.90519   0.00000  Uiso   1.00
N138   N     0.53374   0.89125   0.65311   0.00000  Uiso   1.00
C139   C     0.23884   0.11994   0.63490   0.00000  Uiso   1.00
C140   C     0.25951   0.23187   0.59423   0.00000  Uiso   1.00
C141   C     0.30977   0.19599   0.55573   0.00000  Uiso   1.00
C142   C     0.32099   0.31459   0.52230   0.00000  Uiso   1.00
C143   C     0.35877   0.46570   0.45838   0.00000  Uiso   1.00
C144   C     0.10601   0.12857   0.62361   0.00000  Uiso   1.00
C145   C     0.02723   0.00583   0.60981   0.00000  Uiso   1.00
C146   C     0.90924   0.03747   0.60111   0.00000  Uiso   1.00
C147   C     0.70874   0.02818   0.58284   0.00000  Uiso   1.00
C148   C     0.30337   0.18744   0.69307   0.00000  Uiso   1.00
C149   C     0.39051   0.11418   0.73770   0.00000  Uiso   1.00
C150   C     0.43867   0.19537   0.78749   0.00000  Uiso   1.00
C151   C     0.54460   0.27749   0.87708   0.00000  Uiso   1.00
C152   C     0.16938   0.39438   0.64398   0.00000  Uiso   1.00
C153   C     0.22178   0.38093   0.59916   0.00000  Uiso   1.00
C154   C     0.23293   0.49962   0.56578   0.00000  Uiso   1.00
C155   C     0.28320   0.46392   0.52724   0.00000  Uiso   1.00
C156   C     0.06829   0.27763   0.62853   0.00000  Uiso   1.00
C157   C     0.95038   0.30946   0.61986   0.00000  Uiso   1.00
C158   C     0.87144   0.18680   0.60605   0.00000  Uiso   1.00
C159   C     0.26565   0.33651   0.69801   0.00000  Uiso   1.00
C160   C     0.31367   0.41782   0.74774   0.00000  Uiso   1.00
C161   C     0.40087   0.34470   0.79243   0.00000  Uiso   1.00
H162   H     0.26820   0.00389   0.63106   0.00000  Uiso   1.00
H163   H     0.33895   0.08062   0.55193   0.00000  Uiso   1.00
H164   H     0.05645   0.89049   0.60601   0.00000  Uiso   1.00
H165   H     0.41968   0.99883   0.73387   0.00000  Uiso   1.00
H166   H     0.40071   0.23141   0.46636   0.00000  Uiso   1.00
H167   H     0.80506   0.83050   0.58040   0.00000  Uiso   1.00
H168   H     0.57100   0.05896   0.85003   0.00000  Uiso   1.00
H169   H     0.14000   0.51043   0.64781   0.00000  Uiso   1.00
H170   H     0.20372   0.61496   0.56960   0.00000  Uiso   1.00
H171   H     0.92122   0.42482   0.62368   0.00000  Uiso   1.00
H172   H     0.28445   0.53317   0.75154   0.00000  Uiso   1.00
H173   H     0.29095   0.66510   0.48070   0.00000  Uiso   1.00
H174   H     0.69530   0.26418   0.59474   0.00000  Uiso   1.00
H175   H     0.46124   0.49265   0.86437   0.00000  Uiso   1.00
O176   O     0.39002   0.50786   0.42176   0.00000  Uiso   1.00
O177   O     0.60856   0.98188   0.57140   0.00000  Uiso   1.00
O178   O     0.61346   0.28162   0.92513   0.00000  Uiso   1.00
N179   N     0.36615   0.31914   0.48047   0.00000  Uiso   1.00
N180   N     0.80925   0.94432   0.58709   0.00000  Uiso   1.00
N181   N     0.52532   0.15789   0.83917   0.00000  Uiso   1.00
N182   N     0.30710   0.55250   0.48819   0.00000  Uiso   1.00
N183   N     0.75020   0.17768   0.59481   0.00000  Uiso   1.00
N184   N     0.46626   0.39125   0.84689   0.00000  Uiso   1.00
