data_job_04638
_audit_creation_date              2018-12-19
_audit_creation_method            'Materials Studio'
_symmetry_space_group_name_H-M    'P1'
_symmetry_Int_Tables_number       1
_symmetry_cell_setting            triclinic
loop_
_symmetry_equiv_pos_as_xyz
  x,y,z
_cell_length_a                    19.0111
_cell_length_b                    12.4584
_cell_length_c                    24.0567
_cell_angle_alpha                 90.0000
_cell_angle_beta                  90.0000
_cell_angle_gamma                 90.0000
loop_
_atom_site_label
_atom_site_type_symbol
_atom_site_fract_x
_atom_site_fract_y
_atom_site_fract_z
_atom_site_U_iso_or_equiv
_atom_site_adp_type
_atom_site_occupancy
C1     C     0.93214   0.20288   0.14065   0.00000  Uiso   1.00
C2     C     0.99266   0.28012   0.12922   0.00000  Uiso   1.00
C3     C     0.00828   0.37157   0.15976   0.00000  Uiso   1.00
C4     C     0.06583   0.43164   0.14260   0.00000  Uiso   1.00
C5     C     0.15363   0.55623   0.13184   0.00000  Uiso   1.00
C6     C     0.88932   0.19787   0.08711   0.00000  Uiso   1.00
C7     C     0.81806   0.22015   0.08225   0.00000  Uiso   1.00
C8     C     0.78863   0.21097   0.02964   0.00000  Uiso   1.00
C9     C     0.71599   0.20778   0.95351   0.00000  Uiso   1.00
C10    C     0.96543   0.09233   0.14752   0.00000  Uiso   1.00
C11    C     0.95815   0.02584   0.19345   0.00000  Uiso   1.00
C12    C     0.99279   0.92778   0.19170   0.00000  Uiso   1.00
C13    C     0.03832   0.76071   0.20937   0.00000  Uiso   1.00
C14    C     0.00657   0.14695   0.05587   0.00000  Uiso   1.00
C15    C     0.03308   0.24974   0.08317   0.00000  Uiso   1.00
C16    C     0.09063   0.30969   0.06596   0.00000  Uiso   1.00
C17    C     0.10634   0.40120   0.09647   0.00000  Uiso   1.00
C18    C     0.92975   0.16749   0.04106   0.00000  Uiso   1.00
C19    C     0.90042   0.15827   0.98845   0.00000  Uiso   1.00
C20    C     0.82913   0.18053   0.98351   0.00000  Uiso   1.00
C21    C     0.00587   0.06194   0.10147   0.00000  Uiso   1.00
C22    C     0.04051   0.96396   0.09965   0.00000  Uiso   1.00
C23    C     0.03329   0.89734   0.14557   0.00000  Uiso   1.00
H24    H     0.90065   0.22654   0.17650   0.00000  Uiso   1.00
H25    H     0.97697   0.39506   0.19539   0.00000  Uiso   1.00
H26    H     0.78678   0.24365   0.11789   0.00000  Uiso   1.00
H27    H     0.92686   0.04938   0.22908   0.00000  Uiso   1.00
H28    H     0.07939   0.56852   0.19601   0.00000  Uiso   1.00
H29    H     0.67837   0.24924   0.03260   0.00000  Uiso   1.00
H30    H     0.97375   0.83956   0.26707   0.00000  Uiso   1.00
H31    H     0.03805   0.12329   0.02002   0.00000  Uiso   1.00
H32    H     0.12191   0.28615   0.03033   0.00000  Uiso   1.00
H33    H     0.93172   0.13475   0.95283   0.00000  Uiso   1.00
H34    H     0.07180   0.94047   0.06401   0.00000  Uiso   1.00
H35    H     0.19703   0.48014   0.06204   0.00000  Uiso   1.00
H36    H     0.79600   0.16084   0.89863   0.00000  Uiso   1.00
H37    H     0.09138   0.75118   0.13309   0.00000  Uiso   1.00
O38    O     0.19088   0.63335   0.13862   0.00000  Uiso   1.00
O39    O     0.66475   0.21443   0.92424   0.00000  Uiso   1.00
O40    O     0.05228   0.67696   0.23184   0.00000  Uiso   1.00
N41    N     0.09558   0.52536   0.16308   0.00000  Uiso   1.00
N42    N     0.72065   0.22686   0.01030   0.00000  Uiso   1.00
N43    N     0.99678   0.84384   0.22949   0.00000  Uiso   1.00
N44    N     0.15888   0.47780   0.09099   0.00000  Uiso   1.00
N45    N     0.78395   0.17930   0.93821   0.00000  Uiso   1.00
N46    N     0.06008   0.79628   0.15740   0.00000  Uiso   1.00
C47    C     0.82452   0.70352   0.83550   0.00000  Uiso   1.00
C48    C     0.76417   0.78083   0.84735   0.00000  Uiso   1.00
C49    C     0.74851   0.87264   0.81712   0.00000  Uiso   1.00
C50    C     0.69114   0.93271   0.83464   0.00000  Uiso   1.00
C51    C     0.60357   0.05747   0.84606   0.00000  Uiso   1.00
C52    C     0.86763   0.69782   0.88888   0.00000  Uiso   1.00
C53    C     0.93895   0.71982   0.89355   0.00000  Uiso   1.00
C54    C     0.96866   0.71000   0.94603   0.00000  Uiso   1.00
C55    C     0.04171   0.70579   0.02190   0.00000  Uiso   1.00
C56    C     0.79103   0.59314   0.82844   0.00000  Uiso   1.00
C57    C     0.79797   0.52710   0.78230   0.00000  Uiso   1.00
C58    C     0.76321   0.42913   0.78390   0.00000  Uiso   1.00
C59    C     0.71734   0.26240   0.76592   0.00000  Uiso   1.00
C60    C     0.75048   0.64694   0.92038   0.00000  Uiso   1.00
C61    C     0.72396   0.75010   0.89346   0.00000  Uiso   1.00
C62    C     0.66659   0.81005   0.91103   0.00000  Uiso   1.00
C63    C     0.65084   0.90193   0.88083   0.00000  Uiso   1.00
C64    C     0.82741   0.66709   0.93498   0.00000  Uiso   1.00
C65    C     0.85702   0.65723   0.98746   0.00000  Uiso   1.00
C66    C     0.92837   0.67921   0.99222   0.00000  Uiso   1.00
C67    C     0.75082   0.56241   0.87454   0.00000  Uiso   1.00
C68    C     0.71604   0.46452   0.87621   0.00000  Uiso   1.00
C69    C     0.72292   0.39835   0.83008   0.00000  Uiso   1.00
H70    H     0.85584   0.72744   0.79961   0.00000  Uiso   1.00
H71    H     0.77965   0.89640   0.78145   0.00000  Uiso   1.00
H72    H     0.97006   0.74358   0.85787   0.00000  Uiso   1.00
H73    H     0.82910   0.55091   0.74663   0.00000  Uiso   1.00
H74    H     0.67747   0.07019   0.78166   0.00000  Uiso   1.00
H75    H     0.07895   0.74794   0.94279   0.00000  Uiso   1.00
H76    H     0.78171   0.34164   0.70823   0.00000  Uiso   1.00
H77    H     0.71917   0.62302   0.95627   0.00000  Uiso   1.00
H78    H     0.63548   0.78625   0.94671   0.00000  Uiso   1.00
H79    H     0.82589   0.63344   0.02313   0.00000  Uiso   1.00
H80    H     0.68493   0.44077   0.91189   0.00000  Uiso   1.00
H81    H     0.56045   0.98080   0.91579   0.00000  Uiso   1.00
H82    H     0.96194   0.65854   0.07692   0.00000  Uiso   1.00
H83    H     0.66470   0.25225   0.84236   0.00000  Uiso   1.00
O84    O     0.56639   0.13478   0.83962   0.00000  Uiso   1.00
O85    O     0.09312   0.71198   0.05101   0.00000  Uiso   1.00
O86    O     0.70315   0.17893   0.74327   0.00000  Uiso   1.00
N87    N     0.66140   0.02674   0.81453   0.00000  Uiso   1.00
N88    N     0.03676   0.72547   0.96518   0.00000  Uiso   1.00
N89    N     0.75889   0.34560   0.74589   0.00000  Uiso   1.00
N90    N     0.59844   0.97863   0.88671   0.00000  Uiso   1.00
N91    N     0.97380   0.67737   0.03736   0.00000  Uiso   1.00
N92    N     0.69592   0.29750   0.81807   0.00000  Uiso   1.00
C93    C     0.06786   0.79712   0.64065   0.00000  Uiso   1.00
C94    C     0.00734   0.71988   0.62922   0.00000  Uiso   1.00
C95    C     0.99172   0.62843   0.65976   0.00000  Uiso   1.00
C96    C     0.93417   0.56836   0.64260   0.00000  Uiso   1.00
C97    C     0.84637   0.44377   0.63184   0.00000  Uiso   1.00
C98    C     0.11068   0.80213   0.58711   0.00000  Uiso   1.00
C99    C     0.18194   0.77985   0.58225   0.00000  Uiso   1.00
C100   C     0.21137   0.78903   0.52964   0.00000  Uiso   1.00
C101   C     0.28401   0.79222   0.45351   0.00000  Uiso   1.00
C102   C     0.03457   0.90767   0.64752   0.00000  Uiso   1.00
C103   C     0.04185   0.97416   0.69345   0.00000  Uiso   1.00
C104   C     0.00721   0.07222   0.69170   0.00000  Uiso   1.00
C105   C     0.96168   0.23929   0.70937   0.00000  Uiso   1.00
C106   C     0.99343   0.85305   0.55587   0.00000  Uiso   1.00
C107   C     0.96692   0.75026   0.58317   0.00000  Uiso   1.00
C108   C     0.90937   0.69031   0.56596   0.00000  Uiso   1.00
C109   C     0.89366   0.59880   0.59647   0.00000  Uiso   1.00
C110   C     0.07025   0.83251   0.54106   0.00000  Uiso   1.00
C111   C     0.09958   0.84173   0.48845   0.00000  Uiso   1.00
C112   C     0.17087   0.81947   0.48351   0.00000  Uiso   1.00
C113   C     0.99413   0.93806   0.60147   0.00000  Uiso   1.00
C114   C     0.95949   0.03604   0.59965   0.00000  Uiso   1.00
C115   C     0.96671   0.10266   0.64557   0.00000  Uiso   1.00
H116   H     0.09935   0.77346   0.67650   0.00000  Uiso   1.00
H117   H     0.02303   0.60494   0.69539   0.00000  Uiso   1.00
H118   H     0.21322   0.75635   0.61789   0.00000  Uiso   1.00
H119   H     0.07314   0.95062   0.72908   0.00000  Uiso   1.00
H120   H     0.92061   0.43148   0.69601   0.00000  Uiso   1.00
H121   H     0.32163   0.75076   0.53260   0.00000  Uiso   1.00
H122   H     0.02625   0.16044   0.76707   0.00000  Uiso   1.00
H123   H     0.96195   0.87671   0.52002   0.00000  Uiso   1.00
H124   H     0.87809   0.71385   0.53033   0.00000  Uiso   1.00
H125   H     0.06828   0.86525   0.45283   0.00000  Uiso   1.00
H126   H     0.92820   0.05953   0.56401   0.00000  Uiso   1.00
H127   H     0.80297   0.51986   0.56204   0.00000  Uiso   1.00
H128   H     0.20400   0.83916   0.39863   0.00000  Uiso   1.00
H129   H     0.90862   0.24882   0.63309   0.00000  Uiso   1.00
O130   O     0.80912   0.36665   0.63862   0.00000  Uiso   1.00
O131   O     0.33525   0.78557   0.42424   0.00000  Uiso   1.00
O132   O     0.94772   0.32304   0.73184   0.00000  Uiso   1.00
N133   N     0.90442   0.47464   0.66308   0.00000  Uiso   1.00
N134   N     0.27935   0.77314   0.51030   0.00000  Uiso   1.00
N135   N     0.00322   0.15616   0.72949   0.00000  Uiso   1.00
N136   N     0.84112   0.52220   0.59099   0.00000  Uiso   1.00
N137   N     0.21605   0.82070   0.43821   0.00000  Uiso   1.00
N138   N     0.93992   0.20372   0.65740   0.00000  Uiso   1.00
C139   C     0.17548   0.29648   0.33550   0.00000  Uiso   1.00
C140   C     0.23583   0.21917   0.34735   0.00000  Uiso   1.00
C141   C     0.25149   0.12736   0.31712   0.00000  Uiso   1.00
C142   C     0.30886   0.06729   0.33464   0.00000  Uiso   1.00
C143   C     0.39643   0.94253   0.34606   0.00000  Uiso   1.00
C144   C     0.13237   0.30218   0.38888   0.00000  Uiso   1.00
C145   C     0.06105   0.28018   0.39355   0.00000  Uiso   1.00
C146   C     0.03134   0.29000   0.44603   0.00000  Uiso   1.00
C147   C     0.95829   0.29421   0.52190   0.00000  Uiso   1.00
C148   C     0.20897   0.40686   0.32844   0.00000  Uiso   1.00
C149   C     0.20203   0.47290   0.28230   0.00000  Uiso   1.00
C150   C     0.23679   0.57087   0.28390   0.00000  Uiso   1.00
C151   C     0.28266   0.73760   0.26592   0.00000  Uiso   1.00
C152   C     0.24952   0.35306   0.42038   0.00000  Uiso   1.00
C153   C     0.27604   0.24990   0.39346   0.00000  Uiso   1.00
C154   C     0.33341   0.18995   0.41103   0.00000  Uiso   1.00
C155   C     0.34916   0.09807   0.38083   0.00000  Uiso   1.00
C156   C     0.17259   0.33291   0.43498   0.00000  Uiso   1.00
C157   C     0.14298   0.34277   0.48746   0.00000  Uiso   1.00
C158   C     0.07163   0.32079   0.49222   0.00000  Uiso   1.00
C159   C     0.24918   0.43759   0.37454   0.00000  Uiso   1.00
C160   C     0.28396   0.53548   0.37621   0.00000  Uiso   1.00
C161   C     0.27708   0.60165   0.33008   0.00000  Uiso   1.00
H162   H     0.14416   0.27256   0.29961   0.00000  Uiso   1.00
H163   H     0.22035   0.10360   0.28145   0.00000  Uiso   1.00
H164   H     0.02994   0.25642   0.35787   0.00000  Uiso   1.00
H165   H     0.17090   0.44909   0.24663   0.00000  Uiso   1.00
H166   H     0.32253   0.92981   0.28166   0.00000  Uiso   1.00
H167   H     0.92105   0.25206   0.44279   0.00000  Uiso   1.00
H168   H     0.21829   0.65836   0.20823   0.00000  Uiso   1.00
H169   H     0.28083   0.37698   0.45627   0.00000  Uiso   1.00
H170   H     0.36452   0.21375   0.44671   0.00000  Uiso   1.00
H171   H     0.17411   0.36656   0.52313   0.00000  Uiso   1.00
H172   H     0.31507   0.55923   0.41189   0.00000  Uiso   1.00
H173   H     0.43955   0.01920   0.41579   0.00000  Uiso   1.00
H174   H     0.03806   0.34146   0.57692   0.00000  Uiso   1.00
H175   H     0.33530   0.74775   0.34236   0.00000  Uiso   1.00
O176   O     0.43361   0.86522   0.33962   0.00000  Uiso   1.00
O177   O     0.90688   0.28802   0.55101   0.00000  Uiso   1.00
O178   O     0.29685   0.82107   0.24327   0.00000  Uiso   1.00
N179   N     0.33860   0.97326   0.31453   0.00000  Uiso   1.00
N180   N     0.96324   0.27453   0.46518   0.00000  Uiso   1.00
N181   N     0.24111   0.65440   0.24589   0.00000  Uiso   1.00
N182   N     0.40156   0.02137   0.38671   0.00000  Uiso   1.00
N183   N     0.02620   0.32263   0.53736   0.00000  Uiso   1.00
N184   N     0.30408   0.70250   0.31807   0.00000  Uiso   1.00
C185   C     0.43214   0.79712   0.14065   0.00000  Uiso   1.00
C186   C     0.49266   0.71988   0.12922   0.00000  Uiso   1.00
C187   C     0.50828   0.62843   0.15976   0.00000  Uiso   1.00
C188   C     0.56583   0.56836   0.14260   0.00000  Uiso   1.00
C189   C     0.65363   0.44377   0.13184   0.00000  Uiso   1.00
C190   C     0.38932   0.80213   0.08711   0.00000  Uiso   1.00
C191   C     0.31806   0.77985   0.08225   0.00000  Uiso   1.00
C192   C     0.28863   0.78903   0.02964   0.00000  Uiso   1.00
C193   C     0.21599   0.79222   0.95351   0.00000  Uiso   1.00
C194   C     0.46543   0.90767   0.14752   0.00000  Uiso   1.00
C195   C     0.45815   0.97416   0.19345   0.00000  Uiso   1.00
C196   C     0.49279   0.07222   0.19170   0.00000  Uiso   1.00
C197   C     0.53832   0.23929   0.20937   0.00000  Uiso   1.00
C198   C     0.50657   0.85305   0.05587   0.00000  Uiso   1.00
C199   C     0.53308   0.75026   0.08317   0.00000  Uiso   1.00
C200   C     0.59063   0.69031   0.06596   0.00000  Uiso   1.00
C201   C     0.60634   0.59880   0.09647   0.00000  Uiso   1.00
C202   C     0.42975   0.83251   0.04106   0.00000  Uiso   1.00
C203   C     0.40042   0.84173   0.98845   0.00000  Uiso   1.00
C204   C     0.32913   0.81947   0.98351   0.00000  Uiso   1.00
C205   C     0.50587   0.93806   0.10147   0.00000  Uiso   1.00
C206   C     0.54051   0.03604   0.09965   0.00000  Uiso   1.00
C207   C     0.53329   0.10266   0.14557   0.00000  Uiso   1.00
H208   H     0.40065   0.77346   0.17650   0.00000  Uiso   1.00
H209   H     0.47697   0.60494   0.19539   0.00000  Uiso   1.00
H210   H     0.28678   0.75635   0.11789   0.00000  Uiso   1.00
H211   H     0.42686   0.95062   0.22908   0.00000  Uiso   1.00
H212   H     0.57939   0.43148   0.19601   0.00000  Uiso   1.00
H213   H     0.17837   0.75076   0.03260   0.00000  Uiso   1.00
H214   H     0.47375   0.16044   0.26707   0.00000  Uiso   1.00
H215   H     0.53805   0.87671   0.02002   0.00000  Uiso   1.00
H216   H     0.62191   0.71385   0.03033   0.00000  Uiso   1.00
H217   H     0.43172   0.86525   0.95283   0.00000  Uiso   1.00
H218   H     0.57180   0.05953   0.06401   0.00000  Uiso   1.00
H219   H     0.69703   0.51986   0.06204   0.00000  Uiso   1.00
H220   H     0.29600   0.83916   0.89863   0.00000  Uiso   1.00
H221   H     0.59138   0.24882   0.13309   0.00000  Uiso   1.00
O222   O     0.69088   0.36665   0.13862   0.00000  Uiso   1.00
O223   O     0.16475   0.78557   0.92424   0.00000  Uiso   1.00
O224   O     0.55228   0.32304   0.23184   0.00000  Uiso   1.00
N225   N     0.59558   0.47464   0.16308   0.00000  Uiso   1.00
N226   N     0.22065   0.77314   0.01030   0.00000  Uiso   1.00
N227   N     0.49678   0.15616   0.22949   0.00000  Uiso   1.00
N228   N     0.65888   0.52220   0.09099   0.00000  Uiso   1.00
N229   N     0.28395   0.82070   0.93821   0.00000  Uiso   1.00
N230   N     0.56008   0.20372   0.15740   0.00000  Uiso   1.00
C231   C     0.32452   0.29648   0.83550   0.00000  Uiso   1.00
C232   C     0.26417   0.21917   0.84735   0.00000  Uiso   1.00
C233   C     0.24851   0.12736   0.81712   0.00000  Uiso   1.00
C234   C     0.19114   0.06729   0.83464   0.00000  Uiso   1.00
C235   C     0.10357   0.94253   0.84606   0.00000  Uiso   1.00
C236   C     0.36763   0.30218   0.88888   0.00000  Uiso   1.00
C237   C     0.43895   0.28018   0.89355   0.00000  Uiso   1.00
C238   C     0.46866   0.29000   0.94603   0.00000  Uiso   1.00
C239   C     0.54171   0.29421   0.02190   0.00000  Uiso   1.00
C240   C     0.29103   0.40686   0.82844   0.00000  Uiso   1.00
C241   C     0.29797   0.47290   0.78230   0.00000  Uiso   1.00
C242   C     0.26321   0.57087   0.78390   0.00000  Uiso   1.00
C243   C     0.21734   0.73760   0.76592   0.00000  Uiso   1.00
C244   C     0.25048   0.35306   0.92038   0.00000  Uiso   1.00
C245   C     0.22396   0.24990   0.89346   0.00000  Uiso   1.00
C246   C     0.16659   0.18995   0.91103   0.00000  Uiso   1.00
C247   C     0.15084   0.09807   0.88083   0.00000  Uiso   1.00
C248   C     0.32741   0.33291   0.93498   0.00000  Uiso   1.00
C249   C     0.35702   0.34277   0.98746   0.00000  Uiso   1.00
C250   C     0.42837   0.32079   0.99222   0.00000  Uiso   1.00
C251   C     0.25082   0.43759   0.87454   0.00000  Uiso   1.00
C252   C     0.21604   0.53548   0.87621   0.00000  Uiso   1.00
C253   C     0.22292   0.60165   0.83008   0.00000  Uiso   1.00
H254   H     0.35584   0.27256   0.79961   0.00000  Uiso   1.00
H255   H     0.27965   0.10360   0.78145   0.00000  Uiso   1.00
H256   H     0.47006   0.25642   0.85787   0.00000  Uiso   1.00
H257   H     0.32910   0.44909   0.74663   0.00000  Uiso   1.00
H258   H     0.17747   0.92981   0.78166   0.00000  Uiso   1.00
H259   H     0.57895   0.25206   0.94279   0.00000  Uiso   1.00
H260   H     0.28171   0.65836   0.70823   0.00000  Uiso   1.00
H261   H     0.21917   0.37698   0.95627   0.00000  Uiso   1.00
H262   H     0.13548   0.21375   0.94671   0.00000  Uiso   1.00
H263   H     0.32589   0.36656   0.02313   0.00000  Uiso   1.00
H264   H     0.18493   0.55923   0.91189   0.00000  Uiso   1.00
H265   H     0.06045   0.01920   0.91579   0.00000  Uiso   1.00
H266   H     0.46194   0.34146   0.07692   0.00000  Uiso   1.00
H267   H     0.16470   0.74775   0.84236   0.00000  Uiso   1.00
O268   O     0.06639   0.86522   0.83962   0.00000  Uiso   1.00
O269   O     0.59312   0.28802   0.05101   0.00000  Uiso   1.00
O270   O     0.20315   0.82107   0.74327   0.00000  Uiso   1.00
N271   N     0.16140   0.97326   0.81453   0.00000  Uiso   1.00
N272   N     0.53676   0.27453   0.96518   0.00000  Uiso   1.00
N273   N     0.25889   0.65440   0.74589   0.00000  Uiso   1.00
N274   N     0.09844   0.02137   0.88671   0.00000  Uiso   1.00
N275   N     0.47380   0.32263   0.03736   0.00000  Uiso   1.00
N276   N     0.19592   0.70250   0.81807   0.00000  Uiso   1.00
C277   C     0.56786   0.20288   0.64065   0.00000  Uiso   1.00
C278   C     0.50734   0.28012   0.62922   0.00000  Uiso   1.00
C279   C     0.49172   0.37157   0.65976   0.00000  Uiso   1.00
C280   C     0.43417   0.43164   0.64260   0.00000  Uiso   1.00
C281   C     0.34637   0.55623   0.63184   0.00000  Uiso   1.00
C282   C     0.61068   0.19787   0.58711   0.00000  Uiso   1.00
C283   C     0.68194   0.22015   0.58225   0.00000  Uiso   1.00
C284   C     0.71137   0.21097   0.52964   0.00000  Uiso   1.00
C285   C     0.78401   0.20778   0.45351   0.00000  Uiso   1.00
C286   C     0.53457   0.09233   0.64752   0.00000  Uiso   1.00
C287   C     0.54185   0.02584   0.69345   0.00000  Uiso   1.00
C288   C     0.50721   0.92778   0.69170   0.00000  Uiso   1.00
C289   C     0.46168   0.76071   0.70937   0.00000  Uiso   1.00
C290   C     0.49343   0.14695   0.55587   0.00000  Uiso   1.00
C291   C     0.46692   0.24974   0.58317   0.00000  Uiso   1.00
C292   C     0.40937   0.30969   0.56596   0.00000  Uiso   1.00
C293   C     0.39366   0.40120   0.59647   0.00000  Uiso   1.00
C294   C     0.57025   0.16749   0.54106   0.00000  Uiso   1.00
C295   C     0.59958   0.15827   0.48845   0.00000  Uiso   1.00
C296   C     0.67087   0.18053   0.48351   0.00000  Uiso   1.00
C297   C     0.49413   0.06194   0.60147   0.00000  Uiso   1.00
C298   C     0.45949   0.96396   0.59965   0.00000  Uiso   1.00
C299   C     0.46671   0.89734   0.64557   0.00000  Uiso   1.00
H300   H     0.59935   0.22654   0.67650   0.00000  Uiso   1.00
H301   H     0.52303   0.39506   0.69539   0.00000  Uiso   1.00
H302   H     0.71322   0.24365   0.61789   0.00000  Uiso   1.00
H303   H     0.57314   0.04938   0.72908   0.00000  Uiso   1.00
H304   H     0.42061   0.56852   0.69601   0.00000  Uiso   1.00
H305   H     0.82163   0.24924   0.53260   0.00000  Uiso   1.00
H306   H     0.52625   0.83956   0.76707   0.00000  Uiso   1.00
H307   H     0.46195   0.12329   0.52002   0.00000  Uiso   1.00
H308   H     0.37809   0.28615   0.53033   0.00000  Uiso   1.00
H309   H     0.56828   0.13475   0.45283   0.00000  Uiso   1.00
H310   H     0.42820   0.94047   0.56401   0.00000  Uiso   1.00
H311   H     0.30297   0.48014   0.56204   0.00000  Uiso   1.00
H312   H     0.70400   0.16084   0.39863   0.00000  Uiso   1.00
H313   H     0.40862   0.75118   0.63309   0.00000  Uiso   1.00
O314   O     0.30912   0.63335   0.63862   0.00000  Uiso   1.00
O315   O     0.83525   0.21443   0.42424   0.00000  Uiso   1.00
O316   O     0.44772   0.67696   0.73184   0.00000  Uiso   1.00
N317   N     0.40442   0.52536   0.66308   0.00000  Uiso   1.00
N318   N     0.77935   0.22686   0.51030   0.00000  Uiso   1.00
N319   N     0.50322   0.84384   0.72949   0.00000  Uiso   1.00
N320   N     0.34112   0.47780   0.59099   0.00000  Uiso   1.00
N321   N     0.71605   0.17930   0.43821   0.00000  Uiso   1.00
N322   N     0.43992   0.79628   0.65740   0.00000  Uiso   1.00
C323   C     0.67548   0.70352   0.33550   0.00000  Uiso   1.00
C324   C     0.73583   0.78083   0.34735   0.00000  Uiso   1.00
C325   C     0.75149   0.87264   0.31712   0.00000  Uiso   1.00
C326   C     0.80886   0.93271   0.33464   0.00000  Uiso   1.00
C327   C     0.89643   0.05747   0.34606   0.00000  Uiso   1.00
C328   C     0.63237   0.69782   0.38888   0.00000  Uiso   1.00
C329   C     0.56105   0.71982   0.39355   0.00000  Uiso   1.00
C330   C     0.53134   0.71000   0.44603   0.00000  Uiso   1.00
C331   C     0.45829   0.70579   0.52190   0.00000  Uiso   1.00
C332   C     0.70897   0.59314   0.32844   0.00000  Uiso   1.00
C333   C     0.70203   0.52710   0.28230   0.00000  Uiso   1.00
C334   C     0.73679   0.42913   0.28390   0.00000  Uiso   1.00
C335   C     0.78266   0.26240   0.26592   0.00000  Uiso   1.00
C336   C     0.74952   0.64694   0.42038   0.00000  Uiso   1.00
C337   C     0.77604   0.75010   0.39346   0.00000  Uiso   1.00
C338   C     0.83341   0.81005   0.41103   0.00000  Uiso   1.00
C339   C     0.84916   0.90193   0.38083   0.00000  Uiso   1.00
C340   C     0.67259   0.66709   0.43498   0.00000  Uiso   1.00
C341   C     0.64298   0.65723   0.48746   0.00000  Uiso   1.00
C342   C     0.57163   0.67921   0.49222   0.00000  Uiso   1.00
C343   C     0.74918   0.56241   0.37454   0.00000  Uiso   1.00
C344   C     0.78396   0.46452   0.37621   0.00000  Uiso   1.00
C345   C     0.77708   0.39835   0.33008   0.00000  Uiso   1.00
H346   H     0.64416   0.72744   0.29961   0.00000  Uiso   1.00
H347   H     0.72035   0.89640   0.28145   0.00000  Uiso   1.00
H348   H     0.52994   0.74358   0.35787   0.00000  Uiso   1.00
H349   H     0.67090   0.55091   0.24663   0.00000  Uiso   1.00
H350   H     0.82253   0.07019   0.28166   0.00000  Uiso   1.00
H351   H     0.42105   0.74794   0.44279   0.00000  Uiso   1.00
H352   H     0.71829   0.34164   0.20823   0.00000  Uiso   1.00
H353   H     0.78083   0.62302   0.45627   0.00000  Uiso   1.00
H354   H     0.86452   0.78625   0.44671   0.00000  Uiso   1.00
H355   H     0.67411   0.63344   0.52313   0.00000  Uiso   1.00
H356   H     0.81507   0.44077   0.41189   0.00000  Uiso   1.00
H357   H     0.93955   0.98080   0.41579   0.00000  Uiso   1.00
H358   H     0.53806   0.65854   0.57692   0.00000  Uiso   1.00
H359   H     0.83530   0.25225   0.34236   0.00000  Uiso   1.00
O360   O     0.93361   0.13478   0.33962   0.00000  Uiso   1.00
O361   O     0.40688   0.71198   0.55101   0.00000  Uiso   1.00
O362   O     0.79685   0.17893   0.24327   0.00000  Uiso   1.00
N363   N     0.83860   0.02674   0.31453   0.00000  Uiso   1.00
N364   N     0.46324   0.72547   0.46518   0.00000  Uiso   1.00
N365   N     0.74111   0.34560   0.24589   0.00000  Uiso   1.00
N366   N     0.90156   0.97863   0.38671   0.00000  Uiso   1.00
N367   N     0.52620   0.67737   0.53736   0.00000  Uiso   1.00
N368   N     0.80408   0.29750   0.31807   0.00000  Uiso   1.00
