data_job_02527
_audit_creation_date              2018-12-19
_audit_creation_method            'Materials Studio'
_symmetry_space_group_name_H-M    'P1'
_symmetry_Int_Tables_number       1
_symmetry_cell_setting            triclinic
loop_
_symmetry_equiv_pos_as_xyz
  x,y,z
_cell_length_a                    21.3927
_cell_length_b                    40.6546
_cell_length_c                    13.7053
_cell_angle_alpha                 90.0000
_cell_angle_beta                  146.3969
_cell_angle_gamma                 90.0000
loop_
_atom_site_label
_atom_site_type_symbol
_atom_site_fract_x
_atom_site_fract_y
_atom_site_fract_z
_atom_site_U_iso_or_equiv
_atom_site_adp_type
_atom_site_occupancy
C1     C     0.01618   0.66598   0.74099   0.00000  Uiso   1.00
C2     C     0.91043   0.68328   0.56607   0.00000  Uiso   1.00
C3     C     0.82791   0.69785   0.51627   0.00000  Uiso   1.00
C4     C     0.73766   0.71240   0.35077   0.00000  Uiso   1.00
C5     C     0.57454   0.73926   0.09611   0.00000  Uiso   1.00
C6     C     0.01304   0.63137   0.69411   0.00000  Uiso   1.00
C7     C     0.01681   0.60229   0.75198   0.00000  Uiso   1.00
C8     C     0.01295   0.57314   0.69427   0.00000  Uiso   1.00
C9     C     0.00921   0.51940   0.63850   0.00000  Uiso   1.00
C10    C     0.11581   0.68324   0.82204   0.00000  Uiso   1.00
C11    C     0.20602   0.69778   0.98750   0.00000  Uiso   1.00
C12    C     0.28871   0.71231   0.03752   0.00000  Uiso   1.00
C13    C     0.44455   0.73911   0.18038   0.00000  Uiso   1.00
C14    C     0.00266   0.66591   0.53564   0.00000  Uiso   1.00
C15    C     0.90308   0.68324   0.45454   0.00000  Uiso   1.00
C16    C     0.81294   0.69778   0.28907   0.00000  Uiso   1.00
C17    C     0.73030   0.71237   0.23903   0.00000  Uiso   1.00
C18    C     0.00569   0.63133   0.58258   0.00000  Uiso   1.00
C19    C     0.00184   0.60222   0.52478   0.00000  Uiso   1.00
C20    C     0.00559   0.57311   0.58254   0.00000  Uiso   1.00
C21    C     0.10847   0.68321   0.71050   0.00000  Uiso   1.00
C22    C     0.19104   0.69771   0.76029   0.00000  Uiso   1.00
C23    C     0.28135   0.71227   0.92579   0.00000  Uiso   1.00
H24    H     0.02191   0.66600   0.82782   0.00000  Uiso   1.00
H25    H     0.83362   0.69787   0.60262   0.00000  Uiso   1.00
H26    H     0.02250   0.60233   0.83831   0.00000  Uiso   1.00
H27    H     0.21168   0.69781   0.07378   0.00000  Uiso   1.00
H28    H     0.62161   0.73317   0.30372   0.00000  Uiso   1.00
H29    H     0.01991   0.53171   0.80073   0.00000  Uiso   1.00
H30    H     0.41883   0.73305   0.29728   0.00000  Uiso   1.00
H31    H     0.99694   0.66588   0.44880   0.00000  Uiso   1.00
H32    H     0.80728   0.69775   0.20278   0.00000  Uiso   1.00
H33    H     0.99615   0.60220   0.43847   0.00000  Uiso   1.00
H34    H     0.18533   0.69768   0.67395   0.00000  Uiso   1.00
H35    H     0.60023   0.73307   0.97920   0.00000  Uiso   1.00
H36    H     0.99853   0.53161   0.47622   0.00000  Uiso   1.00
H37    H     0.39744   0.73295   0.97275   0.00000  Uiso   1.00
O38    O     0.48659   0.75407   0.98644   0.00000  Uiso   1.00
O39    O     0.00916   0.48977   0.63853   0.00000  Uiso   1.00
O40    O     0.53253   0.75391   0.28998   0.00000  Uiso   1.00
N41    N     0.64262   0.72878   0.26112   0.00000  Uiso   1.00
N42    N     0.01499   0.54043   0.72577   0.00000  Uiso   1.00
N43    N     0.38796   0.72865   0.19002   0.00000  Uiso   1.00
N44    N     0.63111   0.72873   0.08650   0.00000  Uiso   1.00
N45    N     0.00348   0.54037   0.55115   0.00000  Uiso   1.00
N46    N     0.37645   0.72860   0.01540   0.00000  Uiso   1.00
C47    C     0.98382   0.16598   0.75901   0.00000  Uiso   1.00
C48    C     0.08957   0.18328   0.93393   0.00000  Uiso   1.00
C49    C     0.17209   0.19785   0.98373   0.00000  Uiso   1.00
C50    C     0.26234   0.21240   0.14923   0.00000  Uiso   1.00
C51    C     0.42546   0.23926   0.40389   0.00000  Uiso   1.00
C52    C     0.98696   0.13137   0.80589   0.00000  Uiso   1.00
C53    C     0.98319   0.10229   0.74802   0.00000  Uiso   1.00
C54    C     0.98705   0.07314   0.80573   0.00000  Uiso   1.00
C55    C     0.99079   0.01940   0.86150   0.00000  Uiso   1.00
C56    C     0.88419   0.18324   0.67796   0.00000  Uiso   1.00
C57    C     0.79398   0.19778   0.51250   0.00000  Uiso   1.00
C58    C     0.71129   0.21231   0.46248   0.00000  Uiso   1.00
C59    C     0.55545   0.23911   0.31962   0.00000  Uiso   1.00
C60    C     0.99734   0.16591   0.96436   0.00000  Uiso   1.00
C61    C     0.09692   0.18324   0.04546   0.00000  Uiso   1.00
C62    C     0.18706   0.19778   0.21093   0.00000  Uiso   1.00
C63    C     0.26970   0.21237   0.26097   0.00000  Uiso   1.00
C64    C     0.99431   0.13133   0.91742   0.00000  Uiso   1.00
C65    C     0.99816   0.10222   0.97522   0.00000  Uiso   1.00
C66    C     0.99441   0.07311   0.91746   0.00000  Uiso   1.00
C67    C     0.89153   0.18321   0.78950   0.00000  Uiso   1.00
C68    C     0.80896   0.19771   0.73971   0.00000  Uiso   1.00
C69    C     0.71865   0.21227   0.57421   0.00000  Uiso   1.00
H70    H     0.97809   0.16600   0.67218   0.00000  Uiso   1.00
H71    H     0.16638   0.19787   0.89738   0.00000  Uiso   1.00
H72    H     0.97750   0.10233   0.66169   0.00000  Uiso   1.00
H73    H     0.78832   0.19781   0.42622   0.00000  Uiso   1.00
H74    H     0.37839   0.23317   0.19628   0.00000  Uiso   1.00
H75    H     0.98009   0.03171   0.69927   0.00000  Uiso   1.00
H76    H     0.58117   0.23305   0.20272   0.00000  Uiso   1.00
H77    H     0.00306   0.16588   0.05120   0.00000  Uiso   1.00
H78    H     0.19272   0.19775   0.29722   0.00000  Uiso   1.00
H79    H     0.00385   0.10220   0.06153   0.00000  Uiso   1.00
H80    H     0.81467   0.19768   0.82605   0.00000  Uiso   1.00
H81    H     0.39977   0.23307   0.52080   0.00000  Uiso   1.00
H82    H     0.00147   0.03161   0.02378   0.00000  Uiso   1.00
H83    H     0.60256   0.23295   0.52725   0.00000  Uiso   1.00
O84    O     0.51341   0.25407   0.51356   0.00000  Uiso   1.00
O85    O     0.99084   0.98977   0.86147   0.00000  Uiso   1.00
O86    O     0.46747   0.25391   0.21002   0.00000  Uiso   1.00
N87    N     0.35738   0.22878   0.23888   0.00000  Uiso   1.00
N88    N     0.98501   0.04043   0.77423   0.00000  Uiso   1.00
N89    N     0.61204   0.22865   0.30998   0.00000  Uiso   1.00
N90    N     0.36889   0.22873   0.41350   0.00000  Uiso   1.00
N91    N     0.99652   0.04037   0.94885   0.00000  Uiso   1.00
N92    N     0.62355   0.22860   0.48460   0.00000  Uiso   1.00
C93    C     0.98382   0.33402   0.25901   0.00000  Uiso   1.00
C94    C     0.08957   0.31672   0.43393   0.00000  Uiso   1.00
C95    C     0.17209   0.30215   0.48373   0.00000  Uiso   1.00
C96    C     0.26234   0.28760   0.64923   0.00000  Uiso   1.00
C97    C     0.42546   0.26074   0.90389   0.00000  Uiso   1.00
C98    C     0.98696   0.36863   0.30589   0.00000  Uiso   1.00
C99    C     0.98319   0.39771   0.24802   0.00000  Uiso   1.00
C100   C     0.98705   0.42686   0.30573   0.00000  Uiso   1.00
C101   C     0.99079   0.48060   0.36150   0.00000  Uiso   1.00
C102   C     0.88419   0.31676   0.17796   0.00000  Uiso   1.00
C103   C     0.79398   0.30222   0.01250   0.00000  Uiso   1.00
C104   C     0.71129   0.28769   0.96248   0.00000  Uiso   1.00
C105   C     0.55545   0.26089   0.81962   0.00000  Uiso   1.00
C106   C     0.99734   0.33409   0.46436   0.00000  Uiso   1.00
C107   C     0.09692   0.31676   0.54546   0.00000  Uiso   1.00
C108   C     0.18706   0.30222   0.71093   0.00000  Uiso   1.00
C109   C     0.26970   0.28763   0.76097   0.00000  Uiso   1.00
C110   C     0.99431   0.36867   0.41742   0.00000  Uiso   1.00
C111   C     0.99816   0.39778   0.47522   0.00000  Uiso   1.00
C112   C     0.99441   0.42689   0.41746   0.00000  Uiso   1.00
C113   C     0.89153   0.31679   0.28950   0.00000  Uiso   1.00
C114   C     0.80896   0.30229   0.23971   0.00000  Uiso   1.00
C115   C     0.71865   0.28773   0.07421   0.00000  Uiso   1.00
H116   H     0.97809   0.33400   0.17218   0.00000  Uiso   1.00
H117   H     0.16638   0.30213   0.39738   0.00000  Uiso   1.00
H118   H     0.97750   0.39767   0.16169   0.00000  Uiso   1.00
H119   H     0.78832   0.30219   0.92622   0.00000  Uiso   1.00
H120   H     0.37839   0.26683   0.69628   0.00000  Uiso   1.00
H121   H     0.98009   0.46829   0.19927   0.00000  Uiso   1.00
H122   H     0.58117   0.26695   0.70272   0.00000  Uiso   1.00
H123   H     0.00306   0.33412   0.55120   0.00000  Uiso   1.00
H124   H     0.19272   0.30225   0.79722   0.00000  Uiso   1.00
H125   H     0.00385   0.39780   0.56153   0.00000  Uiso   1.00
H126   H     0.81467   0.30232   0.32605   0.00000  Uiso   1.00
H127   H     0.39977   0.26693   0.02080   0.00000  Uiso   1.00
H128   H     0.00147   0.46839   0.52378   0.00000  Uiso   1.00
H129   H     0.60256   0.26705   0.02725   0.00000  Uiso   1.00
O130   O     0.51341   0.24593   0.01356   0.00000  Uiso   1.00
O131   O     0.99084   0.51023   0.36147   0.00000  Uiso   1.00
O132   O     0.46747   0.24609   0.71002   0.00000  Uiso   1.00
N133   N     0.35738   0.27122   0.73888   0.00000  Uiso   1.00
N134   N     0.98501   0.45957   0.27423   0.00000  Uiso   1.00
N135   N     0.61204   0.27135   0.80998   0.00000  Uiso   1.00
N136   N     0.36889   0.27127   0.91350   0.00000  Uiso   1.00
N137   N     0.99652   0.45963   0.44885   0.00000  Uiso   1.00
N138   N     0.62355   0.27140   0.98460   0.00000  Uiso   1.00
C139   C     0.01618   0.83402   0.24099   0.00000  Uiso   1.00
C140   C     0.91043   0.81672   0.06607   0.00000  Uiso   1.00
C141   C     0.82791   0.80215   0.01627   0.00000  Uiso   1.00
C142   C     0.73766   0.78760   0.85077   0.00000  Uiso   1.00
C143   C     0.57454   0.76074   0.59611   0.00000  Uiso   1.00
C144   C     0.01304   0.86863   0.19411   0.00000  Uiso   1.00
C145   C     0.01681   0.89771   0.25198   0.00000  Uiso   1.00
C146   C     0.01295   0.92686   0.19427   0.00000  Uiso   1.00
C147   C     0.00921   0.98060   0.13850   0.00000  Uiso   1.00
C148   C     0.11581   0.81676   0.32204   0.00000  Uiso   1.00
C149   C     0.20602   0.80222   0.48750   0.00000  Uiso   1.00
C150   C     0.28871   0.78769   0.53752   0.00000  Uiso   1.00
C151   C     0.44455   0.76089   0.68038   0.00000  Uiso   1.00
C152   C     0.00266   0.83409   0.03564   0.00000  Uiso   1.00
C153   C     0.90308   0.81676   0.95454   0.00000  Uiso   1.00
C154   C     0.81294   0.80222   0.78907   0.00000  Uiso   1.00
C155   C     0.73030   0.78763   0.73903   0.00000  Uiso   1.00
C156   C     0.00569   0.86867   0.08258   0.00000  Uiso   1.00
C157   C     0.00184   0.89778   0.02478   0.00000  Uiso   1.00
C158   C     0.00559   0.92689   0.08254   0.00000  Uiso   1.00
C159   C     0.10847   0.81679   0.21050   0.00000  Uiso   1.00
C160   C     0.19104   0.80229   0.26029   0.00000  Uiso   1.00
C161   C     0.28135   0.78773   0.42579   0.00000  Uiso   1.00
H162   H     0.02191   0.83400   0.32782   0.00000  Uiso   1.00
H163   H     0.83362   0.80213   0.10262   0.00000  Uiso   1.00
H164   H     0.02250   0.89767   0.33831   0.00000  Uiso   1.00
H165   H     0.21168   0.80219   0.57378   0.00000  Uiso   1.00
H166   H     0.62161   0.76683   0.80372   0.00000  Uiso   1.00
H167   H     0.01991   0.96829   0.30073   0.00000  Uiso   1.00
H168   H     0.41883   0.76695   0.79728   0.00000  Uiso   1.00
H169   H     0.99694   0.83412   0.94880   0.00000  Uiso   1.00
H170   H     0.80728   0.80225   0.70278   0.00000  Uiso   1.00
H171   H     0.99615   0.89780   0.93847   0.00000  Uiso   1.00
H172   H     0.18533   0.80232   0.17395   0.00000  Uiso   1.00
H173   H     0.60023   0.76693   0.47920   0.00000  Uiso   1.00
H174   H     0.99853   0.96839   0.97622   0.00000  Uiso   1.00
H175   H     0.39744   0.76705   0.47275   0.00000  Uiso   1.00
O176   O     0.48659   0.74593   0.48644   0.00000  Uiso   1.00
O177   O     0.00916   0.01023   0.13853   0.00000  Uiso   1.00
O178   O     0.53253   0.74609   0.78998   0.00000  Uiso   1.00
N179   N     0.64262   0.77122   0.76112   0.00000  Uiso   1.00
N180   N     0.01499   0.95957   0.22577   0.00000  Uiso   1.00
N181   N     0.38796   0.77135   0.69002   0.00000  Uiso   1.00
N182   N     0.63111   0.77127   0.58650   0.00000  Uiso   1.00
N183   N     0.00348   0.95963   0.05115   0.00000  Uiso   1.00
N184   N     0.37645   0.77140   0.51540   0.00000  Uiso   1.00
