data_job_05692
_audit_creation_date              2018-12-19
_audit_creation_method            'Materials Studio'
_symmetry_space_group_name_H-M    'P1'
_symmetry_Int_Tables_number       1
_symmetry_cell_setting            triclinic
loop_
_symmetry_equiv_pos_as_xyz
  x,y,z
_cell_length_a                    23.5175
_cell_length_b                    21.5100
_cell_length_c                    10.9668
_cell_angle_alpha                 90.0000
_cell_angle_beta                  74.9623
_cell_angle_gamma                 90.0000
loop_
_atom_site_label
_atom_site_type_symbol
_atom_site_fract_x
_atom_site_fract_y
_atom_site_fract_z
_atom_site_U_iso_or_equiv
_atom_site_adp_type
_atom_site_occupancy
C1     C     0.32206   0.90383   0.52141   0.00000  Uiso   1.00
C2     C     0.35404   0.96514   0.48156   0.00000  Uiso   1.00
C3     C     0.40057   0.98806   0.52426   0.00000  Uiso   1.00
C4     C     0.42381   0.04505   0.47645   0.00000  Uiso   1.00
C5     C     0.47688   0.13527   0.42792   0.00000  Uiso   1.00
C6     C     0.25716   0.92033   0.57250   0.00000  Uiso   1.00
C7     C     0.22224   0.90556   0.69166   0.00000  Uiso   1.00
C8     C     0.16392   0.92483   0.72039   0.00000  Uiso   1.00
C9     C     0.06658   0.94544   0.81301   0.00000  Uiso   1.00
C10    C     0.32654   0.86745   0.39994   0.00000  Uiso   1.00
C11    C     0.34993   0.80821   0.37401   0.00000  Uiso   1.00
C12    C     0.35001   0.78294   0.25746   0.00000  Uiso   1.00
C13    C     0.36038   0.72145   0.08215   0.00000  Uiso   1.00
C14    C     0.28057   0.96428   0.36055   0.00000  Uiso   1.00
C15    C     0.33151   0.99798   0.39419   0.00000  Uiso   1.00
C16    C     0.35468   0.05495   0.34630   0.00000  Uiso   1.00
C17    C     0.40124   0.07795   0.38892   0.00000  Uiso   1.00
C18    C     0.23463   0.95317   0.48514   0.00000  Uiso   1.00
C19    C     0.17635   0.97245   0.51370   0.00000  Uiso   1.00
C20    C     0.14135   0.95772   0.63287   0.00000  Uiso   1.00
C21    C     0.30401   0.90029   0.31256   0.00000  Uiso   1.00
C22    C     0.30404   0.87510   0.19604   0.00000  Uiso   1.00
C23    C     0.32744   0.81584   0.16993   0.00000  Uiso   1.00
H24    H     0.33959   0.87826   0.58943   0.00000  Uiso   1.00
H25    H     0.41799   0.96264   0.59189   0.00000  Uiso   1.00
H26    H     0.23969   0.88015   0.75925   0.00000  Uiso   1.00
H27    H     0.36737   0.78281   0.44164   0.00000  Uiso   1.00
H28    H     0.49496   0.07067   0.55612   0.00000  Uiso   1.00
H29    H     0.11899   0.89672   0.90899   0.00000  Uiso   1.00
H30    H     0.38822   0.69147   0.23926   0.00000  Uiso   1.00
H31    H     0.26303   0.98985   0.29253   0.00000  Uiso   1.00
H32    H     0.33723   0.08035   0.27869   0.00000  Uiso   1.00
H33    H     0.15893   0.99786   0.44606   0.00000  Uiso   1.00
H34    H     0.28660   0.90053   0.12845   0.00000  Uiso   1.00
H35    H     0.42941   0.16621   0.30192   0.00000  Uiso   1.00
H36    H     0.05344   0.99226   0.65479   0.00000  Uiso   1.00
H37    H     0.32267   0.78701   0.98506   0.00000  Uiso   1.00
O38    O     0.51237   0.17597   0.42530   0.00000  Uiso   1.00
O39    O     0.01911   0.94774   0.88825   0.00000  Uiso   1.00
O40    O     0.37233   0.67846   0.00958   0.00000  Uiso   1.00
N41    N     0.46936   0.08073   0.49817   0.00000  Uiso   1.00
N42    N     0.11785   0.91811   0.82810   0.00000  Uiso   1.00
N43    N     0.36955   0.72621   0.20196   0.00000  Uiso   1.00
N44    N     0.43409   0.13214   0.36139   0.00000  Uiso   1.00
N45    N     0.08258   0.96952   0.69131   0.00000  Uiso   1.00
N46    N     0.33427   0.77762   0.06518   0.00000  Uiso   1.00
C47    C     0.82206   0.40383   0.52141   0.00000  Uiso   1.00
C48    C     0.85404   0.46514   0.48156   0.00000  Uiso   1.00
C49    C     0.90057   0.48806   0.52426   0.00000  Uiso   1.00
C50    C     0.92381   0.54505   0.47645   0.00000  Uiso   1.00
C51    C     0.97688   0.63527   0.42792   0.00000  Uiso   1.00
C52    C     0.75716   0.42033   0.57250   0.00000  Uiso   1.00
C53    C     0.72224   0.40556   0.69166   0.00000  Uiso   1.00
C54    C     0.66392   0.42483   0.72039   0.00000  Uiso   1.00
C55    C     0.56658   0.44544   0.81301   0.00000  Uiso   1.00
C56    C     0.82654   0.36745   0.39994   0.00000  Uiso   1.00
C57    C     0.84993   0.30821   0.37401   0.00000  Uiso   1.00
C58    C     0.85001   0.28294   0.25746   0.00000  Uiso   1.00
C59    C     0.86038   0.22145   0.08215   0.00000  Uiso   1.00
C60    C     0.78057   0.46428   0.36055   0.00000  Uiso   1.00
C61    C     0.83151   0.49798   0.39419   0.00000  Uiso   1.00
C62    C     0.85468   0.55495   0.34630   0.00000  Uiso   1.00
C63    C     0.90124   0.57795   0.38892   0.00000  Uiso   1.00
C64    C     0.73463   0.45317   0.48514   0.00000  Uiso   1.00
C65    C     0.67635   0.47245   0.51370   0.00000  Uiso   1.00
C66    C     0.64135   0.45772   0.63287   0.00000  Uiso   1.00
C67    C     0.80401   0.40029   0.31256   0.00000  Uiso   1.00
C68    C     0.80404   0.37510   0.19604   0.00000  Uiso   1.00
C69    C     0.82744   0.31584   0.16993   0.00000  Uiso   1.00
H70    H     0.83959   0.37826   0.58943   0.00000  Uiso   1.00
H71    H     0.91799   0.46264   0.59189   0.00000  Uiso   1.00
H72    H     0.73969   0.38015   0.75925   0.00000  Uiso   1.00
H73    H     0.86737   0.28281   0.44164   0.00000  Uiso   1.00
H74    H     0.99496   0.57067   0.55612   0.00000  Uiso   1.00
H75    H     0.61899   0.39672   0.90899   0.00000  Uiso   1.00
H76    H     0.88822   0.19147   0.23926   0.00000  Uiso   1.00
H77    H     0.76303   0.48985   0.29253   0.00000  Uiso   1.00
H78    H     0.83723   0.58035   0.27869   0.00000  Uiso   1.00
H79    H     0.65893   0.49786   0.44606   0.00000  Uiso   1.00
H80    H     0.78660   0.40053   0.12845   0.00000  Uiso   1.00
H81    H     0.92941   0.66621   0.30192   0.00000  Uiso   1.00
H82    H     0.55344   0.49226   0.65479   0.00000  Uiso   1.00
H83    H     0.82267   0.28701   0.98506   0.00000  Uiso   1.00
O84    O     0.01237   0.67597   0.42530   0.00000  Uiso   1.00
O85    O     0.51911   0.44774   0.88825   0.00000  Uiso   1.00
O86    O     0.87233   0.17846   0.00958   0.00000  Uiso   1.00
N87    N     0.96936   0.58073   0.49817   0.00000  Uiso   1.00
N88    N     0.61785   0.41811   0.82810   0.00000  Uiso   1.00
N89    N     0.86955   0.22621   0.20196   0.00000  Uiso   1.00
N90    N     0.93409   0.63214   0.36139   0.00000  Uiso   1.00
N91    N     0.58258   0.46952   0.69131   0.00000  Uiso   1.00
N92    N     0.83427   0.27762   0.06518   0.00000  Uiso   1.00
C93    C     0.67794   0.90383   0.97859   0.00000  Uiso   1.00
C94    C     0.64596   0.96514   0.01844   0.00000  Uiso   1.00
C95    C     0.59943   0.98806   0.97574   0.00000  Uiso   1.00
C96    C     0.57619   0.04505   0.02355   0.00000  Uiso   1.00
C97    C     0.52312   0.13527   0.07208   0.00000  Uiso   1.00
C98    C     0.74284   0.92033   0.92750   0.00000  Uiso   1.00
C99    C     0.77776   0.90556   0.80834   0.00000  Uiso   1.00
C100   C     0.83608   0.92483   0.77961   0.00000  Uiso   1.00
C101   C     0.93342   0.94544   0.68699   0.00000  Uiso   1.00
C102   C     0.67346   0.86745   0.10006   0.00000  Uiso   1.00
C103   C     0.65007   0.80821   0.12599   0.00000  Uiso   1.00
C104   C     0.64999   0.78294   0.24254   0.00000  Uiso   1.00
C105   C     0.63962   0.72145   0.41785   0.00000  Uiso   1.00
C106   C     0.71943   0.96428   0.13945   0.00000  Uiso   1.00
C107   C     0.66849   0.99798   0.10581   0.00000  Uiso   1.00
C108   C     0.64532   0.05495   0.15370   0.00000  Uiso   1.00
C109   C     0.59876   0.07795   0.11108   0.00000  Uiso   1.00
C110   C     0.76537   0.95317   0.01486   0.00000  Uiso   1.00
C111   C     0.82365   0.97245   0.98630   0.00000  Uiso   1.00
C112   C     0.85865   0.95772   0.86713   0.00000  Uiso   1.00
C113   C     0.69599   0.90029   0.18744   0.00000  Uiso   1.00
C114   C     0.69596   0.87510   0.30396   0.00000  Uiso   1.00
C115   C     0.67256   0.81584   0.33007   0.00000  Uiso   1.00
H116   H     0.66041   0.87826   0.91057   0.00000  Uiso   1.00
H117   H     0.58201   0.96264   0.90811   0.00000  Uiso   1.00
H118   H     0.76031   0.88015   0.74075   0.00000  Uiso   1.00
H119   H     0.63263   0.78281   0.05836   0.00000  Uiso   1.00
H120   H     0.50504   0.07067   0.94388   0.00000  Uiso   1.00
H121   H     0.88101   0.89672   0.59101   0.00000  Uiso   1.00
H122   H     0.61178   0.69147   0.26074   0.00000  Uiso   1.00
H123   H     0.73697   0.98985   0.20747   0.00000  Uiso   1.00
H124   H     0.66277   0.08035   0.22131   0.00000  Uiso   1.00
H125   H     0.84107   0.99786   0.05394   0.00000  Uiso   1.00
H126   H     0.71340   0.90053   0.37155   0.00000  Uiso   1.00
H127   H     0.57059   0.16621   0.19808   0.00000  Uiso   1.00
H128   H     0.94656   0.99226   0.84521   0.00000  Uiso   1.00
H129   H     0.67733   0.78701   0.51494   0.00000  Uiso   1.00
O130   O     0.48763   0.17597   0.07470   0.00000  Uiso   1.00
O131   O     0.98089   0.94774   0.61175   0.00000  Uiso   1.00
O132   O     0.62767   0.67846   0.49042   0.00000  Uiso   1.00
N133   N     0.53064   0.08073   0.00183   0.00000  Uiso   1.00
N134   N     0.88215   0.91811   0.67190   0.00000  Uiso   1.00
N135   N     0.63045   0.72621   0.29804   0.00000  Uiso   1.00
N136   N     0.56591   0.13214   0.13861   0.00000  Uiso   1.00
N137   N     0.91742   0.96952   0.80869   0.00000  Uiso   1.00
N138   N     0.66573   0.77762   0.43482   0.00000  Uiso   1.00
C139   C     0.17794   0.40383   0.97859   0.00000  Uiso   1.00
C140   C     0.14596   0.46514   0.01844   0.00000  Uiso   1.00
C141   C     0.09943   0.48806   0.97574   0.00000  Uiso   1.00
C142   C     0.07619   0.54505   0.02355   0.00000  Uiso   1.00
C143   C     0.02312   0.63527   0.07208   0.00000  Uiso   1.00
C144   C     0.24284   0.42033   0.92750   0.00000  Uiso   1.00
C145   C     0.27776   0.40556   0.80834   0.00000  Uiso   1.00
C146   C     0.33608   0.42483   0.77961   0.00000  Uiso   1.00
C147   C     0.43342   0.44544   0.68699   0.00000  Uiso   1.00
C148   C     0.17346   0.36745   0.10006   0.00000  Uiso   1.00
C149   C     0.15007   0.30821   0.12599   0.00000  Uiso   1.00
C150   C     0.14999   0.28294   0.24254   0.00000  Uiso   1.00
C151   C     0.13962   0.22145   0.41785   0.00000  Uiso   1.00
C152   C     0.21943   0.46428   0.13945   0.00000  Uiso   1.00
C153   C     0.16849   0.49798   0.10581   0.00000  Uiso   1.00
C154   C     0.14532   0.55495   0.15370   0.00000  Uiso   1.00
C155   C     0.09876   0.57795   0.11108   0.00000  Uiso   1.00
C156   C     0.26537   0.45317   0.01486   0.00000  Uiso   1.00
C157   C     0.32365   0.47245   0.98630   0.00000  Uiso   1.00
C158   C     0.35865   0.45772   0.86713   0.00000  Uiso   1.00
C159   C     0.19599   0.40029   0.18744   0.00000  Uiso   1.00
C160   C     0.19596   0.37510   0.30396   0.00000  Uiso   1.00
C161   C     0.17256   0.31584   0.33007   0.00000  Uiso   1.00
H162   H     0.16041   0.37826   0.91057   0.00000  Uiso   1.00
H163   H     0.08201   0.46264   0.90811   0.00000  Uiso   1.00
H164   H     0.26031   0.38015   0.74075   0.00000  Uiso   1.00
H165   H     0.13263   0.28281   0.05836   0.00000  Uiso   1.00
H166   H     0.00504   0.57067   0.94388   0.00000  Uiso   1.00
H167   H     0.38101   0.39672   0.59101   0.00000  Uiso   1.00
H168   H     0.11178   0.19147   0.26074   0.00000  Uiso   1.00
H169   H     0.23697   0.48985   0.20747   0.00000  Uiso   1.00
H170   H     0.16277   0.58035   0.22131   0.00000  Uiso   1.00
H171   H     0.34107   0.49786   0.05394   0.00000  Uiso   1.00
H172   H     0.21340   0.40053   0.37155   0.00000  Uiso   1.00
H173   H     0.07059   0.66621   0.19808   0.00000  Uiso   1.00
H174   H     0.44656   0.49226   0.84521   0.00000  Uiso   1.00
H175   H     0.17733   0.28701   0.51494   0.00000  Uiso   1.00
O176   O     0.98763   0.67597   0.07470   0.00000  Uiso   1.00
O177   O     0.48089   0.44774   0.61175   0.00000  Uiso   1.00
O178   O     0.12767   0.17846   0.49042   0.00000  Uiso   1.00
N179   N     0.03064   0.58073   0.00183   0.00000  Uiso   1.00
N180   N     0.38215   0.41811   0.67190   0.00000  Uiso   1.00
N181   N     0.13045   0.22621   0.29804   0.00000  Uiso   1.00
N182   N     0.06591   0.63214   0.13861   0.00000  Uiso   1.00
N183   N     0.41742   0.46952   0.80869   0.00000  Uiso   1.00
N184   N     0.16573   0.27762   0.43482   0.00000  Uiso   1.00
C185   C     0.67794   0.09617   0.47859   0.00000  Uiso   1.00
C186   C     0.64596   0.03486   0.51844   0.00000  Uiso   1.00
C187   C     0.59943   0.01194   0.47574   0.00000  Uiso   1.00
C188   C     0.57619   0.95495   0.52355   0.00000  Uiso   1.00
C189   C     0.52312   0.86473   0.57208   0.00000  Uiso   1.00
C190   C     0.74284   0.07967   0.42750   0.00000  Uiso   1.00
C191   C     0.77776   0.09444   0.30834   0.00000  Uiso   1.00
C192   C     0.83608   0.07517   0.27961   0.00000  Uiso   1.00
C193   C     0.93342   0.05456   0.18699   0.00000  Uiso   1.00
C194   C     0.67346   0.13255   0.60006   0.00000  Uiso   1.00
C195   C     0.65007   0.19179   0.62599   0.00000  Uiso   1.00
C196   C     0.64999   0.21706   0.74254   0.00000  Uiso   1.00
C197   C     0.63962   0.27855   0.91785   0.00000  Uiso   1.00
C198   C     0.71943   0.03572   0.63945   0.00000  Uiso   1.00
C199   C     0.66849   0.00202   0.60581   0.00000  Uiso   1.00
C200   C     0.64532   0.94505   0.65370   0.00000  Uiso   1.00
C201   C     0.59876   0.92205   0.61108   0.00000  Uiso   1.00
C202   C     0.76537   0.04683   0.51486   0.00000  Uiso   1.00
C203   C     0.82365   0.02755   0.48630   0.00000  Uiso   1.00
C204   C     0.85865   0.04228   0.36713   0.00000  Uiso   1.00
C205   C     0.69599   0.09971   0.68744   0.00000  Uiso   1.00
C206   C     0.69596   0.12490   0.80396   0.00000  Uiso   1.00
C207   C     0.67256   0.18416   0.83007   0.00000  Uiso   1.00
H208   H     0.66041   0.12174   0.41057   0.00000  Uiso   1.00
H209   H     0.58201   0.03736   0.40811   0.00000  Uiso   1.00
H210   H     0.76031   0.11985   0.24075   0.00000  Uiso   1.00
H211   H     0.63263   0.21719   0.55836   0.00000  Uiso   1.00
H212   H     0.50504   0.92933   0.44388   0.00000  Uiso   1.00
H213   H     0.88101   0.10328   0.09101   0.00000  Uiso   1.00
H214   H     0.61178   0.30853   0.76074   0.00000  Uiso   1.00
H215   H     0.73697   0.01015   0.70747   0.00000  Uiso   1.00
H216   H     0.66277   0.91965   0.72131   0.00000  Uiso   1.00
H217   H     0.84107   0.00214   0.55394   0.00000  Uiso   1.00
H218   H     0.71340   0.09947   0.87155   0.00000  Uiso   1.00
H219   H     0.57059   0.83379   0.69808   0.00000  Uiso   1.00
H220   H     0.94656   0.00774   0.34521   0.00000  Uiso   1.00
H221   H     0.67733   0.21299   0.01494   0.00000  Uiso   1.00
O222   O     0.48763   0.82403   0.57470   0.00000  Uiso   1.00
O223   O     0.98089   0.05226   0.11175   0.00000  Uiso   1.00
O224   O     0.62767   0.32154   0.99042   0.00000  Uiso   1.00
N225   N     0.53064   0.91927   0.50183   0.00000  Uiso   1.00
N226   N     0.88215   0.08189   0.17190   0.00000  Uiso   1.00
N227   N     0.63045   0.27379   0.79804   0.00000  Uiso   1.00
N228   N     0.56591   0.86786   0.63861   0.00000  Uiso   1.00
N229   N     0.91742   0.03048   0.30869   0.00000  Uiso   1.00
N230   N     0.66573   0.22238   0.93482   0.00000  Uiso   1.00
C231   C     0.17794   0.59617   0.47859   0.00000  Uiso   1.00
C232   C     0.14596   0.53486   0.51844   0.00000  Uiso   1.00
C233   C     0.09943   0.51194   0.47574   0.00000  Uiso   1.00
C234   C     0.07619   0.45495   0.52355   0.00000  Uiso   1.00
C235   C     0.02312   0.36473   0.57208   0.00000  Uiso   1.00
C236   C     0.24284   0.57967   0.42750   0.00000  Uiso   1.00
C237   C     0.27776   0.59444   0.30834   0.00000  Uiso   1.00
C238   C     0.33608   0.57517   0.27961   0.00000  Uiso   1.00
C239   C     0.43342   0.55456   0.18699   0.00000  Uiso   1.00
C240   C     0.17346   0.63255   0.60006   0.00000  Uiso   1.00
C241   C     0.15007   0.69179   0.62599   0.00000  Uiso   1.00
C242   C     0.14999   0.71706   0.74254   0.00000  Uiso   1.00
C243   C     0.13962   0.77855   0.91785   0.00000  Uiso   1.00
C244   C     0.21943   0.53572   0.63945   0.00000  Uiso   1.00
C245   C     0.16849   0.50202   0.60581   0.00000  Uiso   1.00
C246   C     0.14532   0.44505   0.65370   0.00000  Uiso   1.00
C247   C     0.09876   0.42205   0.61108   0.00000  Uiso   1.00
C248   C     0.26537   0.54683   0.51486   0.00000  Uiso   1.00
C249   C     0.32365   0.52755   0.48630   0.00000  Uiso   1.00
C250   C     0.35865   0.54228   0.36713   0.00000  Uiso   1.00
C251   C     0.19599   0.59971   0.68744   0.00000  Uiso   1.00
C252   C     0.19596   0.62490   0.80396   0.00000  Uiso   1.00
C253   C     0.17256   0.68416   0.83007   0.00000  Uiso   1.00
H254   H     0.16041   0.62174   0.41057   0.00000  Uiso   1.00
H255   H     0.08201   0.53736   0.40811   0.00000  Uiso   1.00
H256   H     0.26031   0.61985   0.24075   0.00000  Uiso   1.00
H257   H     0.13263   0.71719   0.55836   0.00000  Uiso   1.00
H258   H     0.00504   0.42933   0.44388   0.00000  Uiso   1.00
H259   H     0.38101   0.60328   0.09101   0.00000  Uiso   1.00
H260   H     0.11178   0.80853   0.76074   0.00000  Uiso   1.00
H261   H     0.23697   0.51015   0.70747   0.00000  Uiso   1.00
H262   H     0.16277   0.41965   0.72131   0.00000  Uiso   1.00
H263   H     0.34107   0.50214   0.55394   0.00000  Uiso   1.00
H264   H     0.21340   0.59947   0.87155   0.00000  Uiso   1.00
H265   H     0.07059   0.33379   0.69808   0.00000  Uiso   1.00
H266   H     0.44656   0.50774   0.34521   0.00000  Uiso   1.00
H267   H     0.17733   0.71299   0.01494   0.00000  Uiso   1.00
O268   O     0.98763   0.32403   0.57470   0.00000  Uiso   1.00
O269   O     0.48089   0.55226   0.11175   0.00000  Uiso   1.00
O270   O     0.12767   0.82154   0.99042   0.00000  Uiso   1.00
N271   N     0.03064   0.41927   0.50183   0.00000  Uiso   1.00
N272   N     0.38215   0.58189   0.17190   0.00000  Uiso   1.00
N273   N     0.13045   0.77379   0.79804   0.00000  Uiso   1.00
N274   N     0.06591   0.36786   0.63861   0.00000  Uiso   1.00
N275   N     0.41742   0.53048   0.30869   0.00000  Uiso   1.00
N276   N     0.16573   0.72238   0.93482   0.00000  Uiso   1.00
C277   C     0.32206   0.09617   0.02141   0.00000  Uiso   1.00
C278   C     0.35404   0.03486   0.98156   0.00000  Uiso   1.00
C279   C     0.40057   0.01194   0.02426   0.00000  Uiso   1.00
C280   C     0.42381   0.95495   0.97645   0.00000  Uiso   1.00
C281   C     0.47688   0.86473   0.92792   0.00000  Uiso   1.00
C282   C     0.25716   0.07967   0.07250   0.00000  Uiso   1.00
C283   C     0.22224   0.09444   0.19166   0.00000  Uiso   1.00
C284   C     0.16392   0.07517   0.22039   0.00000  Uiso   1.00
C285   C     0.06658   0.05456   0.31301   0.00000  Uiso   1.00
C286   C     0.32654   0.13255   0.89994   0.00000  Uiso   1.00
C287   C     0.34993   0.19179   0.87401   0.00000  Uiso   1.00
C288   C     0.35001   0.21706   0.75746   0.00000  Uiso   1.00
C289   C     0.36038   0.27855   0.58215   0.00000  Uiso   1.00
C290   C     0.28057   0.03572   0.86055   0.00000  Uiso   1.00
C291   C     0.33151   0.00202   0.89419   0.00000  Uiso   1.00
C292   C     0.35468   0.94505   0.84630   0.00000  Uiso   1.00
C293   C     0.40124   0.92205   0.88892   0.00000  Uiso   1.00
C294   C     0.23463   0.04683   0.98514   0.00000  Uiso   1.00
C295   C     0.17635   0.02755   0.01370   0.00000  Uiso   1.00
C296   C     0.14135   0.04228   0.13287   0.00000  Uiso   1.00
C297   C     0.30401   0.09971   0.81256   0.00000  Uiso   1.00
C298   C     0.30404   0.12490   0.69604   0.00000  Uiso   1.00
C299   C     0.32744   0.18416   0.66993   0.00000  Uiso   1.00
H300   H     0.33959   0.12174   0.08943   0.00000  Uiso   1.00
H301   H     0.41799   0.03736   0.09189   0.00000  Uiso   1.00
H302   H     0.23969   0.11985   0.25925   0.00000  Uiso   1.00
H303   H     0.36737   0.21719   0.94164   0.00000  Uiso   1.00
H304   H     0.49496   0.92933   0.05612   0.00000  Uiso   1.00
H305   H     0.11899   0.10328   0.40899   0.00000  Uiso   1.00
H306   H     0.38822   0.30853   0.73926   0.00000  Uiso   1.00
H307   H     0.26303   0.01015   0.79253   0.00000  Uiso   1.00
H308   H     0.33723   0.91965   0.77869   0.00000  Uiso   1.00
H309   H     0.15893   0.00214   0.94606   0.00000  Uiso   1.00
H310   H     0.28660   0.09947   0.62845   0.00000  Uiso   1.00
H311   H     0.42941   0.83379   0.80192   0.00000  Uiso   1.00
H312   H     0.05344   0.00774   0.15479   0.00000  Uiso   1.00
H313   H     0.32267   0.21299   0.48506   0.00000  Uiso   1.00
O314   O     0.51237   0.82403   0.92530   0.00000  Uiso   1.00
O315   O     0.01911   0.05226   0.38825   0.00000  Uiso   1.00
O316   O     0.37233   0.32154   0.50958   0.00000  Uiso   1.00
N317   N     0.46936   0.91927   0.99817   0.00000  Uiso   1.00
N318   N     0.11785   0.08189   0.32810   0.00000  Uiso   1.00
N319   N     0.36955   0.27379   0.70196   0.00000  Uiso   1.00
N320   N     0.43409   0.86786   0.86139   0.00000  Uiso   1.00
N321   N     0.08258   0.03048   0.19131   0.00000  Uiso   1.00
N322   N     0.33427   0.22238   0.56518   0.00000  Uiso   1.00
C323   C     0.82206   0.59617   0.02141   0.00000  Uiso   1.00
C324   C     0.85404   0.53486   0.98156   0.00000  Uiso   1.00
C325   C     0.90057   0.51194   0.02426   0.00000  Uiso   1.00
C326   C     0.92381   0.45495   0.97645   0.00000  Uiso   1.00
C327   C     0.97688   0.36473   0.92792   0.00000  Uiso   1.00
C328   C     0.75716   0.57967   0.07250   0.00000  Uiso   1.00
C329   C     0.72224   0.59444   0.19166   0.00000  Uiso   1.00
C330   C     0.66392   0.57517   0.22039   0.00000  Uiso   1.00
C331   C     0.56658   0.55456   0.31301   0.00000  Uiso   1.00
C332   C     0.82654   0.63255   0.89994   0.00000  Uiso   1.00
C333   C     0.84993   0.69179   0.87401   0.00000  Uiso   1.00
C334   C     0.85001   0.71706   0.75746   0.00000  Uiso   1.00
C335   C     0.86038   0.77855   0.58215   0.00000  Uiso   1.00
C336   C     0.78057   0.53572   0.86055   0.00000  Uiso   1.00
C337   C     0.83151   0.50202   0.89419   0.00000  Uiso   1.00
C338   C     0.85468   0.44505   0.84630   0.00000  Uiso   1.00
C339   C     0.90124   0.42205   0.88892   0.00000  Uiso   1.00
C340   C     0.73463   0.54683   0.98514   0.00000  Uiso   1.00
C341   C     0.67635   0.52755   0.01370   0.00000  Uiso   1.00
C342   C     0.64135   0.54228   0.13287   0.00000  Uiso   1.00
C343   C     0.80401   0.59971   0.81256   0.00000  Uiso   1.00
C344   C     0.80404   0.62490   0.69604   0.00000  Uiso   1.00
C345   C     0.82744   0.68416   0.66993   0.00000  Uiso   1.00
H346   H     0.83959   0.62174   0.08943   0.00000  Uiso   1.00
H347   H     0.91799   0.53736   0.09189   0.00000  Uiso   1.00
H348   H     0.73969   0.61985   0.25925   0.00000  Uiso   1.00
H349   H     0.86737   0.71719   0.94164   0.00000  Uiso   1.00
H350   H     0.99496   0.42933   0.05612   0.00000  Uiso   1.00
H351   H     0.61899   0.60328   0.40899   0.00000  Uiso   1.00
H352   H     0.88822   0.80853   0.73926   0.00000  Uiso   1.00
H353   H     0.76303   0.51015   0.79253   0.00000  Uiso   1.00
H354   H     0.83723   0.41965   0.77869   0.00000  Uiso   1.00
H355   H     0.65893   0.50214   0.94606   0.00000  Uiso   1.00
H356   H     0.78660   0.59947   0.62845   0.00000  Uiso   1.00
H357   H     0.92941   0.33379   0.80192   0.00000  Uiso   1.00
H358   H     0.55344   0.50774   0.15479   0.00000  Uiso   1.00
H359   H     0.82267   0.71299   0.48506   0.00000  Uiso   1.00
O360   O     0.01237   0.32403   0.92530   0.00000  Uiso   1.00
O361   O     0.51911   0.55226   0.38825   0.00000  Uiso   1.00
O362   O     0.87233   0.82154   0.50958   0.00000  Uiso   1.00
N363   N     0.96936   0.41927   0.99817   0.00000  Uiso   1.00
N364   N     0.61785   0.58189   0.32810   0.00000  Uiso   1.00
N365   N     0.86955   0.77379   0.70196   0.00000  Uiso   1.00
N366   N     0.93409   0.36786   0.86139   0.00000  Uiso   1.00
N367   N     0.58258   0.53048   0.19131   0.00000  Uiso   1.00
N368   N     0.83427   0.72238   0.56518   0.00000  Uiso   1.00
