data_job_02733
_audit_creation_date              2018-12-19
_audit_creation_method            'Materials Studio'
_symmetry_space_group_name_H-M    'P1'
_symmetry_Int_Tables_number       1
_symmetry_cell_setting            triclinic
loop_
_symmetry_equiv_pos_as_xyz
  x,y,z
_cell_length_a                    41.3618
_cell_length_b                    13.7047
_cell_length_c                    9.7309
_cell_angle_alpha                 90.0000
_cell_angle_beta                  79.8693
_cell_angle_gamma                 90.0000
loop_
_atom_site_label
_atom_site_type_symbol
_atom_site_fract_x
_atom_site_fract_y
_atom_site_fract_z
_atom_site_U_iso_or_equiv
_atom_site_adp_type
_atom_site_occupancy
C1     C     0.85641   0.42683   0.93844   0.00000  Uiso   1.00
C2     C     0.85233   0.33979   0.03761   0.00000  Uiso   1.00
C3     C     0.85484   0.34230   0.17791   0.00000  Uiso   1.00
C4     C     0.85030   0.25483   0.25073   0.00000  Uiso   1.00
C5     C     0.84501   0.13287   0.41463   0.00000  Uiso   1.00
C6     C     0.88345   0.39873   0.81730   0.00000  Uiso   1.00
C7     C     0.91214   0.45081   0.77235   0.00000  Uiso   1.00
C8     C     0.93380   0.41296   0.65968   0.00000  Uiso   1.00
C9     C     0.97683   0.38255   0.48147   0.00000  Uiso   1.00
C10    C     0.82485   0.43245   0.87806   0.00000  Uiso   1.00
C11    C     0.80426   0.51289   0.88416   0.00000  Uiso   1.00
C12    C     0.77658   0.50343   0.82262   0.00000  Uiso   1.00
C13    C     0.72861   0.52538   0.73875   0.00000  Uiso   1.00
C14    C     0.84385   0.26702   0.81827   0.00000  Uiso   1.00
C15    C     0.84551   0.25298   0.97234   0.00000  Uiso   1.00
C16    C     0.84095   0.16549   0.04496   0.00000  Uiso   1.00
C17    C     0.84346   0.16787   0.18534   0.00000  Uiso   1.00
C18    C     0.87664   0.31193   0.75202   0.00000  Uiso   1.00
C19    C     0.89825   0.27400   0.63939   0.00000  Uiso   1.00
C20    C     0.92697   0.32600   0.59429   0.00000  Uiso   1.00
C21    C     0.81803   0.34564   0.81279   0.00000  Uiso   1.00
C22    C     0.79037   0.33607   0.75121   0.00000  Uiso   1.00
C23    C     0.76974   0.41647   0.75723   0.00000  Uiso   1.00
H24    H     0.86172   0.49441   0.98925   0.00000  Uiso   1.00
H25    H     0.86012   0.40949   0.22839   0.00000  Uiso   1.00
H26    H     0.91741   0.51799   0.82287   0.00000  Uiso   1.00
H27    H     0.80955   0.58005   0.93468   0.00000  Uiso   1.00
H28    H     0.85536   0.27706   0.46471   0.00000  Uiso   1.00
H29    H     0.97615   0.50584   0.60964   0.00000  Uiso   1.00
H30    H     0.74869   0.63672   0.84539   0.00000  Uiso   1.00
H31    H     0.83855   0.19943   0.76745   0.00000  Uiso   1.00
H32    H     0.83568   0.09832   0.99442   0.00000  Uiso   1.00
H33    H     0.89297   0.20682   0.58890   0.00000  Uiso   1.00
H34    H     0.78510   0.26888   0.70071   0.00000  Uiso   1.00
H35    H     0.83552   0.02450   0.27482   0.00000  Uiso   1.00
H36    H     0.95631   0.25329   0.41973   0.00000  Uiso   1.00
H37    H     0.72885   0.38416   0.65550   0.00000  Uiso   1.00
O38    O     0.84398   0.08958   0.52306   0.00000  Uiso   1.00
O39    O     0.00245   0.38976   0.40122   0.00000  Uiso   1.00
O40    O     0.70403   0.56145   0.71054   0.00000  Uiso   1.00
N41    N     0.85108   0.23150   0.38888   0.00000  Uiso   1.00
N42    N     0.96401   0.44539   0.58945   0.00000  Uiso   1.00
N43    N     0.75136   0.56776   0.80983   0.00000  Uiso   1.00
N44    N     0.84040   0.09560   0.28670   0.00000  Uiso   1.00
N45    N     0.95333   0.30949   0.48727   0.00000  Uiso   1.00
N46    N     0.74069   0.43186   0.70765   0.00000  Uiso   1.00
C47    C     0.35641   0.92683   0.93844   0.00000  Uiso   1.00
C48    C     0.35233   0.83979   0.03761   0.00000  Uiso   1.00
C49    C     0.35484   0.84230   0.17791   0.00000  Uiso   1.00
C50    C     0.35030   0.75483   0.25073   0.00000  Uiso   1.00
C51    C     0.34501   0.63287   0.41463   0.00000  Uiso   1.00
C52    C     0.38345   0.89873   0.81730   0.00000  Uiso   1.00
C53    C     0.41214   0.95081   0.77235   0.00000  Uiso   1.00
C54    C     0.43380   0.91296   0.65968   0.00000  Uiso   1.00
C55    C     0.47683   0.88255   0.48147   0.00000  Uiso   1.00
C56    C     0.32485   0.93245   0.87806   0.00000  Uiso   1.00
C57    C     0.30426   0.01289   0.88416   0.00000  Uiso   1.00
C58    C     0.27658   0.00343   0.82262   0.00000  Uiso   1.00
C59    C     0.22861   0.02538   0.73875   0.00000  Uiso   1.00
C60    C     0.34385   0.76702   0.81827   0.00000  Uiso   1.00
C61    C     0.34551   0.75298   0.97234   0.00000  Uiso   1.00
C62    C     0.34095   0.66549   0.04496   0.00000  Uiso   1.00
C63    C     0.34346   0.66787   0.18534   0.00000  Uiso   1.00
C64    C     0.37664   0.81193   0.75202   0.00000  Uiso   1.00
C65    C     0.39825   0.77400   0.63939   0.00000  Uiso   1.00
C66    C     0.42697   0.82600   0.59429   0.00000  Uiso   1.00
C67    C     0.31803   0.84564   0.81279   0.00000  Uiso   1.00
C68    C     0.29037   0.83607   0.75121   0.00000  Uiso   1.00
C69    C     0.26974   0.91647   0.75723   0.00000  Uiso   1.00
H70    H     0.36172   0.99441   0.98925   0.00000  Uiso   1.00
H71    H     0.36012   0.90949   0.22839   0.00000  Uiso   1.00
H72    H     0.41741   0.01799   0.82287   0.00000  Uiso   1.00
H73    H     0.30955   0.08005   0.93468   0.00000  Uiso   1.00
H74    H     0.35536   0.77706   0.46471   0.00000  Uiso   1.00
H75    H     0.47615   0.00584   0.60964   0.00000  Uiso   1.00
H76    H     0.24869   0.13672   0.84539   0.00000  Uiso   1.00
H77    H     0.33855   0.69943   0.76745   0.00000  Uiso   1.00
H78    H     0.33568   0.59832   0.99442   0.00000  Uiso   1.00
H79    H     0.39297   0.70682   0.58890   0.00000  Uiso   1.00
H80    H     0.28510   0.76888   0.70071   0.00000  Uiso   1.00
H81    H     0.33552   0.52450   0.27482   0.00000  Uiso   1.00
H82    H     0.45631   0.75329   0.41973   0.00000  Uiso   1.00
H83    H     0.22885   0.88416   0.65550   0.00000  Uiso   1.00
O84    O     0.34398   0.58958   0.52306   0.00000  Uiso   1.00
O85    O     0.50245   0.88976   0.40122   0.00000  Uiso   1.00
O86    O     0.20403   0.06145   0.71054   0.00000  Uiso   1.00
N87    N     0.35108   0.73150   0.38888   0.00000  Uiso   1.00
N88    N     0.46401   0.94539   0.58945   0.00000  Uiso   1.00
N89    N     0.25136   0.06776   0.80983   0.00000  Uiso   1.00
N90    N     0.34040   0.59560   0.28670   0.00000  Uiso   1.00
N91    N     0.45333   0.80949   0.48727   0.00000  Uiso   1.00
N92    N     0.24069   0.93186   0.70765   0.00000  Uiso   1.00
C93    C     0.14359   0.42683   0.56156   0.00000  Uiso   1.00
C94    C     0.14767   0.33979   0.46239   0.00000  Uiso   1.00
C95    C     0.14516   0.34230   0.32209   0.00000  Uiso   1.00
C96    C     0.14970   0.25483   0.24927   0.00000  Uiso   1.00
C97    C     0.15499   0.13287   0.08537   0.00000  Uiso   1.00
C98    C     0.11655   0.39873   0.68270   0.00000  Uiso   1.00
C99    C     0.08786   0.45081   0.72765   0.00000  Uiso   1.00
C100   C     0.06620   0.41296   0.84032   0.00000  Uiso   1.00
C101   C     0.02317   0.38255   0.01853   0.00000  Uiso   1.00
C102   C     0.17515   0.43245   0.62194   0.00000  Uiso   1.00
C103   C     0.19574   0.51289   0.61584   0.00000  Uiso   1.00
C104   C     0.22342   0.50343   0.67738   0.00000  Uiso   1.00
C105   C     0.27139   0.52538   0.76125   0.00000  Uiso   1.00
C106   C     0.15615   0.26702   0.68173   0.00000  Uiso   1.00
C107   C     0.15449   0.25298   0.52766   0.00000  Uiso   1.00
C108   C     0.15905   0.16549   0.45504   0.00000  Uiso   1.00
C109   C     0.15654   0.16787   0.31466   0.00000  Uiso   1.00
C110   C     0.12336   0.31193   0.74798   0.00000  Uiso   1.00
C111   C     0.10175   0.27400   0.86061   0.00000  Uiso   1.00
C112   C     0.07303   0.32600   0.90571   0.00000  Uiso   1.00
C113   C     0.18197   0.34564   0.68721   0.00000  Uiso   1.00
C114   C     0.20963   0.33607   0.74879   0.00000  Uiso   1.00
C115   C     0.23026   0.41647   0.74277   0.00000  Uiso   1.00
H116   H     0.13828   0.49441   0.51075   0.00000  Uiso   1.00
H117   H     0.13988   0.40949   0.27161   0.00000  Uiso   1.00
H118   H     0.08259   0.51799   0.67713   0.00000  Uiso   1.00
H119   H     0.19045   0.58005   0.56532   0.00000  Uiso   1.00
H120   H     0.14464   0.27706   0.03529   0.00000  Uiso   1.00
H121   H     0.02385   0.50584   0.89036   0.00000  Uiso   1.00
H122   H     0.25131   0.63672   0.65461   0.00000  Uiso   1.00
H123   H     0.16145   0.19943   0.73255   0.00000  Uiso   1.00
H124   H     0.16432   0.09832   0.50558   0.00000  Uiso   1.00
H125   H     0.10703   0.20682   0.91110   0.00000  Uiso   1.00
H126   H     0.21490   0.26888   0.79929   0.00000  Uiso   1.00
H127   H     0.16448   0.02450   0.22518   0.00000  Uiso   1.00
H128   H     0.04369   0.25329   0.08027   0.00000  Uiso   1.00
H129   H     0.27115   0.38416   0.84450   0.00000  Uiso   1.00
O130   O     0.15602   0.08958   0.97694   0.00000  Uiso   1.00
O131   O     0.99755   0.38976   0.09878   0.00000  Uiso   1.00
O132   O     0.29597   0.56145   0.78946   0.00000  Uiso   1.00
N133   N     0.14892   0.23150   0.11112   0.00000  Uiso   1.00
N134   N     0.03599   0.44539   0.91055   0.00000  Uiso   1.00
N135   N     0.24864   0.56776   0.69017   0.00000  Uiso   1.00
N136   N     0.15960   0.09560   0.21330   0.00000  Uiso   1.00
N137   N     0.04667   0.30949   0.01273   0.00000  Uiso   1.00
N138   N     0.25931   0.43186   0.79235   0.00000  Uiso   1.00
C139   C     0.64359   0.92683   0.56156   0.00000  Uiso   1.00
C140   C     0.64767   0.83979   0.46239   0.00000  Uiso   1.00
C141   C     0.64516   0.84230   0.32209   0.00000  Uiso   1.00
C142   C     0.64970   0.75483   0.24927   0.00000  Uiso   1.00
C143   C     0.65499   0.63287   0.08537   0.00000  Uiso   1.00
C144   C     0.61655   0.89873   0.68270   0.00000  Uiso   1.00
C145   C     0.58786   0.95081   0.72765   0.00000  Uiso   1.00
C146   C     0.56620   0.91296   0.84032   0.00000  Uiso   1.00
C147   C     0.52317   0.88255   0.01853   0.00000  Uiso   1.00
C148   C     0.67515   0.93245   0.62194   0.00000  Uiso   1.00
C149   C     0.69574   0.01289   0.61584   0.00000  Uiso   1.00
C150   C     0.72342   0.00343   0.67738   0.00000  Uiso   1.00
C151   C     0.77139   0.02538   0.76125   0.00000  Uiso   1.00
C152   C     0.65615   0.76702   0.68173   0.00000  Uiso   1.00
C153   C     0.65449   0.75298   0.52766   0.00000  Uiso   1.00
C154   C     0.65905   0.66549   0.45504   0.00000  Uiso   1.00
C155   C     0.65654   0.66787   0.31466   0.00000  Uiso   1.00
C156   C     0.62336   0.81193   0.74798   0.00000  Uiso   1.00
C157   C     0.60175   0.77400   0.86061   0.00000  Uiso   1.00
C158   C     0.57303   0.82600   0.90571   0.00000  Uiso   1.00
C159   C     0.68197   0.84564   0.68721   0.00000  Uiso   1.00
C160   C     0.70963   0.83607   0.74879   0.00000  Uiso   1.00
C161   C     0.73026   0.91647   0.74277   0.00000  Uiso   1.00
H162   H     0.63828   0.99441   0.51075   0.00000  Uiso   1.00
H163   H     0.63988   0.90949   0.27161   0.00000  Uiso   1.00
H164   H     0.58259   0.01799   0.67713   0.00000  Uiso   1.00
H165   H     0.69045   0.08005   0.56532   0.00000  Uiso   1.00
H166   H     0.64464   0.77706   0.03529   0.00000  Uiso   1.00
H167   H     0.52385   0.00584   0.89036   0.00000  Uiso   1.00
H168   H     0.75131   0.13672   0.65461   0.00000  Uiso   1.00
H169   H     0.66145   0.69943   0.73255   0.00000  Uiso   1.00
H170   H     0.66432   0.59832   0.50558   0.00000  Uiso   1.00
H171   H     0.60703   0.70682   0.91110   0.00000  Uiso   1.00
H172   H     0.71490   0.76888   0.79929   0.00000  Uiso   1.00
H173   H     0.66448   0.52450   0.22518   0.00000  Uiso   1.00
H174   H     0.54369   0.75329   0.08027   0.00000  Uiso   1.00
H175   H     0.77115   0.88416   0.84450   0.00000  Uiso   1.00
O176   O     0.65602   0.58958   0.97694   0.00000  Uiso   1.00
O177   O     0.49755   0.88976   0.09878   0.00000  Uiso   1.00
O178   O     0.79597   0.06145   0.78946   0.00000  Uiso   1.00
N179   N     0.64892   0.73150   0.11112   0.00000  Uiso   1.00
N180   N     0.53599   0.94539   0.91055   0.00000  Uiso   1.00
N181   N     0.74864   0.06776   0.69017   0.00000  Uiso   1.00
N182   N     0.65960   0.59560   0.21330   0.00000  Uiso   1.00
N183   N     0.54667   0.80949   0.01273   0.00000  Uiso   1.00
N184   N     0.75931   0.93186   0.79235   0.00000  Uiso   1.00
C185   C     0.14359   0.57317   0.06156   0.00000  Uiso   1.00
C186   C     0.14767   0.66021   0.96239   0.00000  Uiso   1.00
C187   C     0.14516   0.65770   0.82209   0.00000  Uiso   1.00
C188   C     0.14970   0.74517   0.74927   0.00000  Uiso   1.00
C189   C     0.15499   0.86713   0.58537   0.00000  Uiso   1.00
C190   C     0.11655   0.60127   0.18270   0.00000  Uiso   1.00
C191   C     0.08786   0.54919   0.22765   0.00000  Uiso   1.00
C192   C     0.06620   0.58704   0.34032   0.00000  Uiso   1.00
C193   C     0.02317   0.61745   0.51853   0.00000  Uiso   1.00
C194   C     0.17515   0.56755   0.12194   0.00000  Uiso   1.00
C195   C     0.19574   0.48711   0.11584   0.00000  Uiso   1.00
C196   C     0.22342   0.49657   0.17738   0.00000  Uiso   1.00
C197   C     0.27139   0.47462   0.26125   0.00000  Uiso   1.00
C198   C     0.15615   0.73298   0.18173   0.00000  Uiso   1.00
C199   C     0.15449   0.74702   0.02766   0.00000  Uiso   1.00
C200   C     0.15905   0.83451   0.95504   0.00000  Uiso   1.00
C201   C     0.15654   0.83213   0.81466   0.00000  Uiso   1.00
C202   C     0.12336   0.68807   0.24798   0.00000  Uiso   1.00
C203   C     0.10175   0.72600   0.36061   0.00000  Uiso   1.00
C204   C     0.07303   0.67400   0.40571   0.00000  Uiso   1.00
C205   C     0.18197   0.65436   0.18721   0.00000  Uiso   1.00
C206   C     0.20963   0.66393   0.24879   0.00000  Uiso   1.00
C207   C     0.23026   0.58353   0.24277   0.00000  Uiso   1.00
H208   H     0.13828   0.50559   0.01075   0.00000  Uiso   1.00
H209   H     0.13988   0.59051   0.77161   0.00000  Uiso   1.00
H210   H     0.08259   0.48201   0.17713   0.00000  Uiso   1.00
H211   H     0.19045   0.41995   0.06532   0.00000  Uiso   1.00
H212   H     0.14464   0.72294   0.53529   0.00000  Uiso   1.00
H213   H     0.02385   0.49416   0.39036   0.00000  Uiso   1.00
H214   H     0.25131   0.36328   0.15461   0.00000  Uiso   1.00
H215   H     0.16145   0.80057   0.23255   0.00000  Uiso   1.00
H216   H     0.16432   0.90168   0.00558   0.00000  Uiso   1.00
H217   H     0.10703   0.79318   0.41110   0.00000  Uiso   1.00
H218   H     0.21490   0.73112   0.29929   0.00000  Uiso   1.00
H219   H     0.16448   0.97550   0.72518   0.00000  Uiso   1.00
H220   H     0.04369   0.74671   0.58027   0.00000  Uiso   1.00
H221   H     0.27115   0.61584   0.34450   0.00000  Uiso   1.00
O222   O     0.15602   0.91042   0.47694   0.00000  Uiso   1.00
O223   O     0.99755   0.61024   0.59878   0.00000  Uiso   1.00
O224   O     0.29597   0.43855   0.28946   0.00000  Uiso   1.00
N225   N     0.14892   0.76850   0.61112   0.00000  Uiso   1.00
N226   N     0.03599   0.55461   0.41055   0.00000  Uiso   1.00
N227   N     0.24864   0.43224   0.19017   0.00000  Uiso   1.00
N228   N     0.15960   0.90440   0.71330   0.00000  Uiso   1.00
N229   N     0.04667   0.69051   0.51273   0.00000  Uiso   1.00
N230   N     0.25931   0.56814   0.29235   0.00000  Uiso   1.00
C231   C     0.64359   0.07317   0.06156   0.00000  Uiso   1.00
C232   C     0.64767   0.16021   0.96239   0.00000  Uiso   1.00
C233   C     0.64516   0.15770   0.82209   0.00000  Uiso   1.00
C234   C     0.64970   0.24517   0.74927   0.00000  Uiso   1.00
C235   C     0.65499   0.36713   0.58537   0.00000  Uiso   1.00
C236   C     0.61655   0.10127   0.18270   0.00000  Uiso   1.00
C237   C     0.58786   0.04919   0.22765   0.00000  Uiso   1.00
C238   C     0.56620   0.08704   0.34032   0.00000  Uiso   1.00
C239   C     0.52317   0.11745   0.51853   0.00000  Uiso   1.00
C240   C     0.67515   0.06755   0.12194   0.00000  Uiso   1.00
C241   C     0.69574   0.98711   0.11584   0.00000  Uiso   1.00
C242   C     0.72342   0.99657   0.17738   0.00000  Uiso   1.00
C243   C     0.77139   0.97462   0.26125   0.00000  Uiso   1.00
C244   C     0.65615   0.23298   0.18173   0.00000  Uiso   1.00
C245   C     0.65449   0.24702   0.02766   0.00000  Uiso   1.00
C246   C     0.65905   0.33451   0.95504   0.00000  Uiso   1.00
C247   C     0.65654   0.33213   0.81466   0.00000  Uiso   1.00
C248   C     0.62336   0.18807   0.24798   0.00000  Uiso   1.00
C249   C     0.60175   0.22600   0.36061   0.00000  Uiso   1.00
C250   C     0.57303   0.17400   0.40571   0.00000  Uiso   1.00
C251   C     0.68197   0.15436   0.18721   0.00000  Uiso   1.00
C252   C     0.70963   0.16393   0.24879   0.00000  Uiso   1.00
C253   C     0.73026   0.08353   0.24277   0.00000  Uiso   1.00
H254   H     0.63828   0.00559   0.01075   0.00000  Uiso   1.00
H255   H     0.63988   0.09051   0.77161   0.00000  Uiso   1.00
H256   H     0.58259   0.98201   0.17713   0.00000  Uiso   1.00
H257   H     0.69045   0.91995   0.06532   0.00000  Uiso   1.00
H258   H     0.64464   0.22294   0.53529   0.00000  Uiso   1.00
H259   H     0.52385   0.99416   0.39036   0.00000  Uiso   1.00
H260   H     0.75131   0.86328   0.15461   0.00000  Uiso   1.00
H261   H     0.66145   0.30057   0.23255   0.00000  Uiso   1.00
H262   H     0.66432   0.40168   0.00558   0.00000  Uiso   1.00
H263   H     0.60703   0.29318   0.41110   0.00000  Uiso   1.00
H264   H     0.71490   0.23112   0.29929   0.00000  Uiso   1.00
H265   H     0.66448   0.47550   0.72518   0.00000  Uiso   1.00
H266   H     0.54369   0.24671   0.58027   0.00000  Uiso   1.00
H267   H     0.77115   0.11584   0.34450   0.00000  Uiso   1.00
O268   O     0.65602   0.41042   0.47694   0.00000  Uiso   1.00
O269   O     0.49755   0.11024   0.59878   0.00000  Uiso   1.00
O270   O     0.79597   0.93855   0.28946   0.00000  Uiso   1.00
N271   N     0.64892   0.26850   0.61112   0.00000  Uiso   1.00
N272   N     0.53599   0.05461   0.41055   0.00000  Uiso   1.00
N273   N     0.74864   0.93224   0.19017   0.00000  Uiso   1.00
N274   N     0.65960   0.40440   0.71330   0.00000  Uiso   1.00
N275   N     0.54667   0.19051   0.51273   0.00000  Uiso   1.00
N276   N     0.75931   0.06814   0.29235   0.00000  Uiso   1.00
C277   C     0.85641   0.57317   0.43844   0.00000  Uiso   1.00
C278   C     0.85233   0.66021   0.53761   0.00000  Uiso   1.00
C279   C     0.85484   0.65770   0.67791   0.00000  Uiso   1.00
C280   C     0.85030   0.74517   0.75073   0.00000  Uiso   1.00
C281   C     0.84501   0.86713   0.91463   0.00000  Uiso   1.00
C282   C     0.88345   0.60127   0.31730   0.00000  Uiso   1.00
C283   C     0.91214   0.54919   0.27235   0.00000  Uiso   1.00
C284   C     0.93380   0.58704   0.15968   0.00000  Uiso   1.00
C285   C     0.97683   0.61745   0.98147   0.00000  Uiso   1.00
C286   C     0.82485   0.56755   0.37806   0.00000  Uiso   1.00
C287   C     0.80426   0.48711   0.38416   0.00000  Uiso   1.00
C288   C     0.77658   0.49657   0.32262   0.00000  Uiso   1.00
C289   C     0.72861   0.47462   0.23875   0.00000  Uiso   1.00
C290   C     0.84385   0.73298   0.31827   0.00000  Uiso   1.00
C291   C     0.84551   0.74702   0.47234   0.00000  Uiso   1.00
C292   C     0.84095   0.83451   0.54496   0.00000  Uiso   1.00
C293   C     0.84346   0.83213   0.68534   0.00000  Uiso   1.00
C294   C     0.87664   0.68807   0.25202   0.00000  Uiso   1.00
C295   C     0.89825   0.72600   0.13939   0.00000  Uiso   1.00
C296   C     0.92697   0.67400   0.09429   0.00000  Uiso   1.00
C297   C     0.81803   0.65436   0.31279   0.00000  Uiso   1.00
C298   C     0.79037   0.66393   0.25121   0.00000  Uiso   1.00
C299   C     0.76974   0.58353   0.25723   0.00000  Uiso   1.00
H300   H     0.86172   0.50559   0.48925   0.00000  Uiso   1.00
H301   H     0.86012   0.59051   0.72839   0.00000  Uiso   1.00
H302   H     0.91741   0.48201   0.32287   0.00000  Uiso   1.00
H303   H     0.80955   0.41995   0.43468   0.00000  Uiso   1.00
H304   H     0.85536   0.72294   0.96471   0.00000  Uiso   1.00
H305   H     0.97615   0.49416   0.10964   0.00000  Uiso   1.00
H306   H     0.74869   0.36328   0.34539   0.00000  Uiso   1.00
H307   H     0.83855   0.80057   0.26745   0.00000  Uiso   1.00
H308   H     0.83568   0.90168   0.49442   0.00000  Uiso   1.00
H309   H     0.89297   0.79318   0.08890   0.00000  Uiso   1.00
H310   H     0.78510   0.73112   0.20071   0.00000  Uiso   1.00
H311   H     0.83552   0.97550   0.77482   0.00000  Uiso   1.00
H312   H     0.95631   0.74671   0.91973   0.00000  Uiso   1.00
H313   H     0.72885   0.61584   0.15550   0.00000  Uiso   1.00
O314   O     0.84398   0.91042   0.02306   0.00000  Uiso   1.00
O315   O     0.00245   0.61024   0.90122   0.00000  Uiso   1.00
O316   O     0.70403   0.43855   0.21054   0.00000  Uiso   1.00
N317   N     0.85108   0.76850   0.88888   0.00000  Uiso   1.00
N318   N     0.96401   0.55461   0.08945   0.00000  Uiso   1.00
N319   N     0.75136   0.43224   0.30983   0.00000  Uiso   1.00
N320   N     0.84040   0.90440   0.78670   0.00000  Uiso   1.00
N321   N     0.95333   0.69051   0.98727   0.00000  Uiso   1.00
N322   N     0.74069   0.56814   0.20765   0.00000  Uiso   1.00
C323   C     0.35641   0.07317   0.43844   0.00000  Uiso   1.00
C324   C     0.35233   0.16021   0.53761   0.00000  Uiso   1.00
C325   C     0.35484   0.15770   0.67791   0.00000  Uiso   1.00
C326   C     0.35030   0.24517   0.75073   0.00000  Uiso   1.00
C327   C     0.34501   0.36713   0.91463   0.00000  Uiso   1.00
C328   C     0.38345   0.10127   0.31730   0.00000  Uiso   1.00
C329   C     0.41214   0.04919   0.27235   0.00000  Uiso   1.00
C330   C     0.43380   0.08704   0.15968   0.00000  Uiso   1.00
C331   C     0.47683   0.11745   0.98147   0.00000  Uiso   1.00
C332   C     0.32485   0.06755   0.37806   0.00000  Uiso   1.00
C333   C     0.30426   0.98711   0.38416   0.00000  Uiso   1.00
C334   C     0.27658   0.99657   0.32262   0.00000  Uiso   1.00
C335   C     0.22861   0.97462   0.23875   0.00000  Uiso   1.00
C336   C     0.34385   0.23298   0.31827   0.00000  Uiso   1.00
C337   C     0.34551   0.24702   0.47234   0.00000  Uiso   1.00
C338   C     0.34095   0.33451   0.54496   0.00000  Uiso   1.00
C339   C     0.34346   0.33213   0.68534   0.00000  Uiso   1.00
C340   C     0.37664   0.18807   0.25202   0.00000  Uiso   1.00
C341   C     0.39825   0.22600   0.13939   0.00000  Uiso   1.00
C342   C     0.42697   0.17400   0.09429   0.00000  Uiso   1.00
C343   C     0.31803   0.15436   0.31279   0.00000  Uiso   1.00
C344   C     0.29037   0.16393   0.25121   0.00000  Uiso   1.00
C345   C     0.26974   0.08353   0.25723   0.00000  Uiso   1.00
H346   H     0.36172   0.00559   0.48925   0.00000  Uiso   1.00
H347   H     0.36012   0.09051   0.72839   0.00000  Uiso   1.00
H348   H     0.41741   0.98201   0.32287   0.00000  Uiso   1.00
H349   H     0.30955   0.91995   0.43468   0.00000  Uiso   1.00
H350   H     0.35536   0.22294   0.96471   0.00000  Uiso   1.00
H351   H     0.47615   0.99416   0.10964   0.00000  Uiso   1.00
H352   H     0.24869   0.86328   0.34539   0.00000  Uiso   1.00
H353   H     0.33855   0.30057   0.26745   0.00000  Uiso   1.00
H354   H     0.33568   0.40168   0.49442   0.00000  Uiso   1.00
H355   H     0.39297   0.29318   0.08890   0.00000  Uiso   1.00
H356   H     0.28510   0.23112   0.20071   0.00000  Uiso   1.00
H357   H     0.33552   0.47550   0.77482   0.00000  Uiso   1.00
H358   H     0.45631   0.24671   0.91973   0.00000  Uiso   1.00
H359   H     0.22885   0.11584   0.15550   0.00000  Uiso   1.00
O360   O     0.34398   0.41042   0.02306   0.00000  Uiso   1.00
O361   O     0.50245   0.11024   0.90122   0.00000  Uiso   1.00
O362   O     0.20403   0.93855   0.21054   0.00000  Uiso   1.00
N363   N     0.35108   0.26850   0.88888   0.00000  Uiso   1.00
N364   N     0.46401   0.05461   0.08945   0.00000  Uiso   1.00
N365   N     0.25136   0.93224   0.30983   0.00000  Uiso   1.00
N366   N     0.34040   0.40440   0.78670   0.00000  Uiso   1.00
N367   N     0.45333   0.19051   0.98727   0.00000  Uiso   1.00
N368   N     0.24069   0.06814   0.20765   0.00000  Uiso   1.00
