data_job_05443
_audit_creation_date              2018-12-19
_audit_creation_method            'Materials Studio'
_symmetry_space_group_name_H-M    'P1'
_symmetry_Int_Tables_number       1
_symmetry_cell_setting            triclinic
loop_
_symmetry_equiv_pos_as_xyz
  x,y,z
_cell_length_a                    23.6834
_cell_length_b                    23.6834
_cell_length_c                    9.4288
_cell_angle_alpha                 90.0000
_cell_angle_beta                  90.0000
_cell_angle_gamma                 90.0000
loop_
_atom_site_label
_atom_site_type_symbol
_atom_site_fract_x
_atom_site_fract_y
_atom_site_fract_z
_atom_site_U_iso_or_equiv
_atom_site_adp_type
_atom_site_occupancy
C1     C     0.75017   0.06119   0.43263   0.00000  Uiso   1.00
C2     C     0.75030   0.01163   0.32936   0.00000  Uiso   1.00
C3     C     0.75065   0.01567   0.18253   0.00000  Uiso   1.00
C4     C     0.75070   0.96539   0.10683   0.00000  Uiso   1.00
C5     C     0.75091   0.89642   0.93600   0.00000  Uiso   1.00
C6     C     0.69849   0.05303   0.52688   0.00000  Uiso   1.00
C7     C     0.65529   0.09187   0.54614   0.00000  Uiso   1.00
C8     C     0.61172   0.07644   0.63674   0.00000  Uiso   1.00
C9     C     0.53152   0.07175   0.77266   0.00000  Uiso   1.00
C10    C     0.80135   0.05278   0.52846   0.00000  Uiso   1.00
C11    C     0.84463   0.09142   0.54909   0.00000  Uiso   1.00
C12    C     0.88767   0.07578   0.64104   0.00000  Uiso   1.00
C13    C     0.96718   0.07070   0.77941   0.00000  Uiso   1.00
C14    C     0.74963   0.96471   0.55931   0.00000  Uiso   1.00
C15    C     0.75000   0.95923   0.39817   0.00000  Uiso   1.00
C16    C     0.75005   0.90893   0.32267   0.00000  Uiso   1.00
C17    C     0.75041   0.91289   0.17575   0.00000  Uiso   1.00
C18    C     0.69819   0.00063   0.59569   0.00000  Uiso   1.00
C19    C     0.65468   0.98513   0.68629   0.00000  Uiso   1.00
C20    C     0.61143   0.02394   0.70567   0.00000  Uiso   1.00
C21    C     0.80106   0.00037   0.59727   0.00000  Uiso   1.00
C22    C     0.84403   0.98467   0.68922   0.00000  Uiso   1.00
C23    C     0.88737   0.02328   0.70997   0.00000  Uiso   1.00
H24    H     0.75040   0.10198   0.37907   0.00000  Uiso   1.00
H25    H     0.75088   0.05623   0.12932   0.00000  Uiso   1.00
H26    H     0.65553   0.13243   0.49289   0.00000  Uiso   1.00
H27    H     0.84485   0.13197   0.49582   0.00000  Uiso   1.00
H28    H     0.75126   0.98240   0.88276   0.00000  Uiso   1.00
H29    H     0.55022   0.14306   0.64941   0.00000  Uiso   1.00
H30    H     0.94943   0.14210   0.65560   0.00000  Uiso   1.00
H31    H     0.74939   0.92391   0.61288   0.00000  Uiso   1.00
H32    H     0.74982   0.86838   0.37594   0.00000  Uiso   1.00
H33    H     0.65447   0.94458   0.73952   0.00000  Uiso   1.00
H34    H     0.84379   0.94412   0.74245   0.00000  Uiso   1.00
H35    H     0.75039   0.82993   0.08293   0.00000  Uiso   1.00
H36    H     0.54936   0.99060   0.84959   0.00000  Uiso   1.00
H37    H     0.94857   0.98963   0.85577   0.00000  Uiso   1.00
O38    O     0.75110   0.87285   0.82277   0.00000  Uiso   1.00
O39    O     0.48736   0.08364   0.82861   0.00000  Uiso   1.00
O40    O     0.01112   0.08238   0.83671   0.00000  Uiso   1.00
N41    N     0.75101   0.95414   0.96239   0.00000  Uiso   1.00
N42    N     0.56304   0.10434   0.67914   0.00000  Uiso   1.00
N43    N     0.93627   0.10345   0.68496   0.00000  Uiso   1.00
N44    N     0.75054   0.87210   0.07010   0.00000  Uiso   1.00
N45    N     0.56258   0.02230   0.78685   0.00000  Uiso   1.00
N46    N     0.93581   0.02141   0.79267   0.00000  Uiso   1.00
C47    C     0.24983   0.93881   0.43263   0.00000  Uiso   1.00
C48    C     0.24970   0.98837   0.32936   0.00000  Uiso   1.00
C49    C     0.24935   0.98433   0.18253   0.00000  Uiso   1.00
C50    C     0.24930   0.03461   0.10683   0.00000  Uiso   1.00
C51    C     0.24909   0.10358   0.93600   0.00000  Uiso   1.00
C52    C     0.30151   0.94697   0.52688   0.00000  Uiso   1.00
C53    C     0.34471   0.90813   0.54614   0.00000  Uiso   1.00
C54    C     0.38828   0.92356   0.63674   0.00000  Uiso   1.00
C55    C     0.46848   0.92825   0.77266   0.00000  Uiso   1.00
C56    C     0.19865   0.94722   0.52846   0.00000  Uiso   1.00
C57    C     0.15537   0.90858   0.54909   0.00000  Uiso   1.00
C58    C     0.11233   0.92422   0.64104   0.00000  Uiso   1.00
C59    C     0.03282   0.92930   0.77941   0.00000  Uiso   1.00
C60    C     0.25037   0.03529   0.55931   0.00000  Uiso   1.00
C61    C     0.25000   0.04077   0.39817   0.00000  Uiso   1.00
C62    C     0.24995   0.09107   0.32267   0.00000  Uiso   1.00
C63    C     0.24959   0.08711   0.17575   0.00000  Uiso   1.00
C64    C     0.30181   0.99937   0.59569   0.00000  Uiso   1.00
C65    C     0.34532   0.01487   0.68629   0.00000  Uiso   1.00
C66    C     0.38857   0.97606   0.70567   0.00000  Uiso   1.00
C67    C     0.19894   0.99963   0.59727   0.00000  Uiso   1.00
C68    C     0.15597   0.01533   0.68922   0.00000  Uiso   1.00
C69    C     0.11263   0.97672   0.70997   0.00000  Uiso   1.00
H70    H     0.24960   0.89802   0.37907   0.00000  Uiso   1.00
H71    H     0.24912   0.94377   0.12932   0.00000  Uiso   1.00
H72    H     0.34447   0.86757   0.49289   0.00000  Uiso   1.00
H73    H     0.15515   0.86803   0.49582   0.00000  Uiso   1.00
H74    H     0.24874   0.01760   0.88276   0.00000  Uiso   1.00
H75    H     0.44978   0.85694   0.64941   0.00000  Uiso   1.00
H76    H     0.05057   0.85790   0.65560   0.00000  Uiso   1.00
H77    H     0.25061   0.07609   0.61288   0.00000  Uiso   1.00
H78    H     0.25018   0.13162   0.37594   0.00000  Uiso   1.00
H79    H     0.34553   0.05542   0.73952   0.00000  Uiso   1.00
H80    H     0.15621   0.05588   0.74245   0.00000  Uiso   1.00
H81    H     0.24961   0.17007   0.08293   0.00000  Uiso   1.00
H82    H     0.45064   0.00940   0.84959   0.00000  Uiso   1.00
H83    H     0.05143   0.01037   0.85577   0.00000  Uiso   1.00
O84    O     0.24890   0.12715   0.82277   0.00000  Uiso   1.00
O85    O     0.51264   0.91636   0.82861   0.00000  Uiso   1.00
O86    O     0.98888   0.91762   0.83671   0.00000  Uiso   1.00
N87    N     0.24899   0.04586   0.96239   0.00000  Uiso   1.00
N88    N     0.43696   0.89566   0.67914   0.00000  Uiso   1.00
N89    N     0.06373   0.89655   0.68496   0.00000  Uiso   1.00
N90    N     0.24946   0.12790   0.07010   0.00000  Uiso   1.00
N91    N     0.43742   0.97770   0.78685   0.00000  Uiso   1.00
N92    N     0.06419   0.97859   0.79267   0.00000  Uiso   1.00
C93    C     0.06119   0.24983   0.56737   0.00000  Uiso   1.00
C94    C     0.01163   0.24970   0.67064   0.00000  Uiso   1.00
C95    C     0.01567   0.24935   0.81747   0.00000  Uiso   1.00
C96    C     0.96539   0.24930   0.89317   0.00000  Uiso   1.00
C97    C     0.89642   0.24909   0.06400   0.00000  Uiso   1.00
C98    C     0.05303   0.30151   0.47312   0.00000  Uiso   1.00
C99    C     0.09187   0.34471   0.45386   0.00000  Uiso   1.00
C100   C     0.07644   0.38828   0.36326   0.00000  Uiso   1.00
C101   C     0.07175   0.46848   0.22734   0.00000  Uiso   1.00
C102   C     0.05278   0.19865   0.47154   0.00000  Uiso   1.00
C103   C     0.09142   0.15537   0.45091   0.00000  Uiso   1.00
C104   C     0.07578   0.11233   0.35896   0.00000  Uiso   1.00
C105   C     0.07070   0.03282   0.22059   0.00000  Uiso   1.00
C106   C     0.96471   0.25037   0.44069   0.00000  Uiso   1.00
C107   C     0.95923   0.25000   0.60183   0.00000  Uiso   1.00
C108   C     0.90893   0.24995   0.67733   0.00000  Uiso   1.00
C109   C     0.91289   0.24959   0.82425   0.00000  Uiso   1.00
C110   C     0.00063   0.30181   0.40431   0.00000  Uiso   1.00
C111   C     0.98513   0.34532   0.31371   0.00000  Uiso   1.00
C112   C     0.02394   0.38857   0.29433   0.00000  Uiso   1.00
C113   C     0.00037   0.19894   0.40273   0.00000  Uiso   1.00
C114   C     0.98467   0.15597   0.31078   0.00000  Uiso   1.00
C115   C     0.02328   0.11263   0.29003   0.00000  Uiso   1.00
H116   H     0.10198   0.24960   0.62093   0.00000  Uiso   1.00
H117   H     0.05623   0.24912   0.87068   0.00000  Uiso   1.00
H118   H     0.13243   0.34447   0.50711   0.00000  Uiso   1.00
H119   H     0.13197   0.15515   0.50418   0.00000  Uiso   1.00
H120   H     0.98240   0.24874   0.11724   0.00000  Uiso   1.00
H121   H     0.14306   0.44978   0.35059   0.00000  Uiso   1.00
H122   H     0.14210   0.05057   0.34440   0.00000  Uiso   1.00
H123   H     0.92391   0.25061   0.38712   0.00000  Uiso   1.00
H124   H     0.86838   0.25018   0.62406   0.00000  Uiso   1.00
H125   H     0.94458   0.34553   0.26048   0.00000  Uiso   1.00
H126   H     0.94412   0.15621   0.25755   0.00000  Uiso   1.00
H127   H     0.82993   0.24961   0.91707   0.00000  Uiso   1.00
H128   H     0.99060   0.45064   0.15041   0.00000  Uiso   1.00
H129   H     0.98963   0.05143   0.14423   0.00000  Uiso   1.00
O130   O     0.87285   0.24890   0.17723   0.00000  Uiso   1.00
O131   O     0.08364   0.51264   0.17139   0.00000  Uiso   1.00
O132   O     0.08238   0.98888   0.16329   0.00000  Uiso   1.00
N133   N     0.95414   0.24899   0.03761   0.00000  Uiso   1.00
N134   N     0.10434   0.43696   0.32086   0.00000  Uiso   1.00
N135   N     0.10345   0.06373   0.31504   0.00000  Uiso   1.00
N136   N     0.87210   0.24946   0.92990   0.00000  Uiso   1.00
N137   N     0.02230   0.43742   0.21315   0.00000  Uiso   1.00
N138   N     0.02141   0.06419   0.20733   0.00000  Uiso   1.00
C139   C     0.93881   0.75017   0.56737   0.00000  Uiso   1.00
C140   C     0.98837   0.75030   0.67064   0.00000  Uiso   1.00
C141   C     0.98433   0.75065   0.81747   0.00000  Uiso   1.00
C142   C     0.03461   0.75070   0.89317   0.00000  Uiso   1.00
C143   C     0.10358   0.75091   0.06400   0.00000  Uiso   1.00
C144   C     0.94697   0.69849   0.47312   0.00000  Uiso   1.00
C145   C     0.90813   0.65529   0.45386   0.00000  Uiso   1.00
C146   C     0.92356   0.61172   0.36326   0.00000  Uiso   1.00
C147   C     0.92825   0.53152   0.22734   0.00000  Uiso   1.00
C148   C     0.94722   0.80135   0.47154   0.00000  Uiso   1.00
C149   C     0.90858   0.84463   0.45091   0.00000  Uiso   1.00
C150   C     0.92422   0.88767   0.35896   0.00000  Uiso   1.00
C151   C     0.92930   0.96718   0.22059   0.00000  Uiso   1.00
C152   C     0.03529   0.74963   0.44069   0.00000  Uiso   1.00
C153   C     0.04077   0.75000   0.60183   0.00000  Uiso   1.00
C154   C     0.09107   0.75005   0.67733   0.00000  Uiso   1.00
C155   C     0.08711   0.75041   0.82425   0.00000  Uiso   1.00
C156   C     0.99937   0.69819   0.40431   0.00000  Uiso   1.00
C157   C     0.01487   0.65468   0.31371   0.00000  Uiso   1.00
C158   C     0.97606   0.61143   0.29433   0.00000  Uiso   1.00
C159   C     0.99963   0.80106   0.40273   0.00000  Uiso   1.00
C160   C     0.01533   0.84403   0.31078   0.00000  Uiso   1.00
C161   C     0.97672   0.88737   0.29003   0.00000  Uiso   1.00
H162   H     0.89802   0.75040   0.62093   0.00000  Uiso   1.00
H163   H     0.94377   0.75088   0.87068   0.00000  Uiso   1.00
H164   H     0.86757   0.65553   0.50711   0.00000  Uiso   1.00
H165   H     0.86803   0.84485   0.50418   0.00000  Uiso   1.00
H166   H     0.01760   0.75126   0.11724   0.00000  Uiso   1.00
H167   H     0.85694   0.55022   0.35059   0.00000  Uiso   1.00
H168   H     0.85790   0.94943   0.34440   0.00000  Uiso   1.00
H169   H     0.07609   0.74939   0.38712   0.00000  Uiso   1.00
H170   H     0.13162   0.74982   0.62406   0.00000  Uiso   1.00
H171   H     0.05542   0.65447   0.26048   0.00000  Uiso   1.00
H172   H     0.05588   0.84379   0.25755   0.00000  Uiso   1.00
H173   H     0.17007   0.75039   0.91707   0.00000  Uiso   1.00
H174   H     0.00940   0.54936   0.15041   0.00000  Uiso   1.00
H175   H     0.01037   0.94857   0.14423   0.00000  Uiso   1.00
O176   O     0.12715   0.75110   0.17723   0.00000  Uiso   1.00
O177   O     0.91636   0.48736   0.17139   0.00000  Uiso   1.00
O178   O     0.91762   0.01112   0.16329   0.00000  Uiso   1.00
N179   N     0.04586   0.75101   0.03761   0.00000  Uiso   1.00
N180   N     0.89566   0.56304   0.32086   0.00000  Uiso   1.00
N181   N     0.89655   0.93627   0.31504   0.00000  Uiso   1.00
N182   N     0.12790   0.75054   0.92990   0.00000  Uiso   1.00
N183   N     0.97770   0.56258   0.21315   0.00000  Uiso   1.00
N184   N     0.97859   0.93581   0.20733   0.00000  Uiso   1.00
C185   C     0.74983   0.56119   0.06737   0.00000  Uiso   1.00
C186   C     0.74970   0.51163   0.17064   0.00000  Uiso   1.00
C187   C     0.74935   0.51567   0.31747   0.00000  Uiso   1.00
C188   C     0.74930   0.46539   0.39317   0.00000  Uiso   1.00
C189   C     0.74909   0.39642   0.56400   0.00000  Uiso   1.00
C190   C     0.80151   0.55303   0.97312   0.00000  Uiso   1.00
C191   C     0.84471   0.59187   0.95386   0.00000  Uiso   1.00
C192   C     0.88828   0.57644   0.86326   0.00000  Uiso   1.00
C193   C     0.96848   0.57175   0.72734   0.00000  Uiso   1.00
C194   C     0.69865   0.55278   0.97154   0.00000  Uiso   1.00
C195   C     0.65537   0.59142   0.95091   0.00000  Uiso   1.00
C196   C     0.61233   0.57578   0.85896   0.00000  Uiso   1.00
C197   C     0.53282   0.57070   0.72059   0.00000  Uiso   1.00
C198   C     0.75037   0.46471   0.94069   0.00000  Uiso   1.00
C199   C     0.75000   0.45923   0.10183   0.00000  Uiso   1.00
C200   C     0.74995   0.40893   0.17733   0.00000  Uiso   1.00
C201   C     0.74959   0.41289   0.32425   0.00000  Uiso   1.00
C202   C     0.80181   0.50063   0.90431   0.00000  Uiso   1.00
C203   C     0.84532   0.48513   0.81371   0.00000  Uiso   1.00
C204   C     0.88857   0.52394   0.79433   0.00000  Uiso   1.00
C205   C     0.69894   0.50037   0.90273   0.00000  Uiso   1.00
C206   C     0.65597   0.48467   0.81078   0.00000  Uiso   1.00
C207   C     0.61263   0.52328   0.79003   0.00000  Uiso   1.00
H208   H     0.74960   0.60198   0.12093   0.00000  Uiso   1.00
H209   H     0.74912   0.55623   0.37068   0.00000  Uiso   1.00
H210   H     0.84447   0.63243   0.00711   0.00000  Uiso   1.00
H211   H     0.65515   0.63197   0.00418   0.00000  Uiso   1.00
H212   H     0.74874   0.48240   0.61724   0.00000  Uiso   1.00
H213   H     0.94978   0.64306   0.85059   0.00000  Uiso   1.00
H214   H     0.55057   0.64210   0.84440   0.00000  Uiso   1.00
H215   H     0.75061   0.42391   0.88712   0.00000  Uiso   1.00
H216   H     0.75018   0.36838   0.12406   0.00000  Uiso   1.00
H217   H     0.84553   0.44458   0.76048   0.00000  Uiso   1.00
H218   H     0.65621   0.44412   0.75755   0.00000  Uiso   1.00
H219   H     0.74961   0.32993   0.41707   0.00000  Uiso   1.00
H220   H     0.95064   0.49060   0.65041   0.00000  Uiso   1.00
H221   H     0.55143   0.48963   0.64423   0.00000  Uiso   1.00
O222   O     0.74890   0.37285   0.67723   0.00000  Uiso   1.00
O223   O     0.01264   0.58364   0.67139   0.00000  Uiso   1.00
O224   O     0.48888   0.58238   0.66329   0.00000  Uiso   1.00
N225   N     0.74899   0.45414   0.53761   0.00000  Uiso   1.00
N226   N     0.93696   0.60434   0.82086   0.00000  Uiso   1.00
N227   N     0.56373   0.60345   0.81504   0.00000  Uiso   1.00
N228   N     0.74946   0.37210   0.42990   0.00000  Uiso   1.00
N229   N     0.93742   0.52230   0.71315   0.00000  Uiso   1.00
N230   N     0.56419   0.52141   0.70733   0.00000  Uiso   1.00
C231   C     0.25017   0.43881   0.06737   0.00000  Uiso   1.00
C232   C     0.25030   0.48837   0.17064   0.00000  Uiso   1.00
C233   C     0.25065   0.48433   0.31747   0.00000  Uiso   1.00
C234   C     0.25070   0.53461   0.39317   0.00000  Uiso   1.00
C235   C     0.25091   0.60358   0.56400   0.00000  Uiso   1.00
C236   C     0.19849   0.44697   0.97312   0.00000  Uiso   1.00
C237   C     0.15529   0.40813   0.95386   0.00000  Uiso   1.00
C238   C     0.11172   0.42356   0.86326   0.00000  Uiso   1.00
C239   C     0.03152   0.42825   0.72734   0.00000  Uiso   1.00
C240   C     0.30135   0.44722   0.97154   0.00000  Uiso   1.00
C241   C     0.34463   0.40858   0.95091   0.00000  Uiso   1.00
C242   C     0.38767   0.42422   0.85896   0.00000  Uiso   1.00
C243   C     0.46718   0.42930   0.72059   0.00000  Uiso   1.00
C244   C     0.24963   0.53529   0.94069   0.00000  Uiso   1.00
C245   C     0.25000   0.54077   0.10183   0.00000  Uiso   1.00
C246   C     0.25005   0.59107   0.17733   0.00000  Uiso   1.00
C247   C     0.25041   0.58711   0.32425   0.00000  Uiso   1.00
C248   C     0.19819   0.49937   0.90431   0.00000  Uiso   1.00
C249   C     0.15468   0.51487   0.81371   0.00000  Uiso   1.00
C250   C     0.11143   0.47606   0.79433   0.00000  Uiso   1.00
C251   C     0.30106   0.49963   0.90273   0.00000  Uiso   1.00
C252   C     0.34403   0.51533   0.81078   0.00000  Uiso   1.00
C253   C     0.38737   0.47672   0.79003   0.00000  Uiso   1.00
H254   H     0.25040   0.39802   0.12093   0.00000  Uiso   1.00
H255   H     0.25088   0.44377   0.37068   0.00000  Uiso   1.00
H256   H     0.15553   0.36757   0.00711   0.00000  Uiso   1.00
H257   H     0.34485   0.36803   0.00418   0.00000  Uiso   1.00
H258   H     0.25126   0.51760   0.61724   0.00000  Uiso   1.00
H259   H     0.05022   0.35694   0.85059   0.00000  Uiso   1.00
H260   H     0.44943   0.35790   0.84440   0.00000  Uiso   1.00
H261   H     0.24939   0.57609   0.88712   0.00000  Uiso   1.00
H262   H     0.24982   0.63162   0.12406   0.00000  Uiso   1.00
H263   H     0.15447   0.55542   0.76048   0.00000  Uiso   1.00
H264   H     0.34379   0.55588   0.75755   0.00000  Uiso   1.00
H265   H     0.25039   0.67007   0.41707   0.00000  Uiso   1.00
H266   H     0.04936   0.50940   0.65041   0.00000  Uiso   1.00
H267   H     0.44857   0.51037   0.64423   0.00000  Uiso   1.00
O268   O     0.25110   0.62715   0.67723   0.00000  Uiso   1.00
O269   O     0.98736   0.41636   0.67139   0.00000  Uiso   1.00
O270   O     0.51112   0.41762   0.66329   0.00000  Uiso   1.00
N271   N     0.25101   0.54586   0.53761   0.00000  Uiso   1.00
N272   N     0.06304   0.39566   0.82086   0.00000  Uiso   1.00
N273   N     0.43627   0.39655   0.81504   0.00000  Uiso   1.00
N274   N     0.25054   0.62790   0.42990   0.00000  Uiso   1.00
N275   N     0.06258   0.47770   0.71315   0.00000  Uiso   1.00
N276   N     0.43581   0.47859   0.70733   0.00000  Uiso   1.00
C277   C     0.43881   0.74983   0.93263   0.00000  Uiso   1.00
C278   C     0.48837   0.74970   0.82936   0.00000  Uiso   1.00
C279   C     0.48433   0.74935   0.68253   0.00000  Uiso   1.00
C280   C     0.53461   0.74930   0.60683   0.00000  Uiso   1.00
C281   C     0.60358   0.74909   0.43600   0.00000  Uiso   1.00
C282   C     0.44697   0.80151   0.02688   0.00000  Uiso   1.00
C283   C     0.40813   0.84471   0.04614   0.00000  Uiso   1.00
C284   C     0.42356   0.88828   0.13674   0.00000  Uiso   1.00
C285   C     0.42825   0.96848   0.27266   0.00000  Uiso   1.00
C286   C     0.44722   0.69865   0.02846   0.00000  Uiso   1.00
C287   C     0.40858   0.65537   0.04909   0.00000  Uiso   1.00
C288   C     0.42422   0.61233   0.14104   0.00000  Uiso   1.00
C289   C     0.42930   0.53282   0.27941   0.00000  Uiso   1.00
C290   C     0.53529   0.75037   0.05931   0.00000  Uiso   1.00
C291   C     0.54077   0.75000   0.89817   0.00000  Uiso   1.00
C292   C     0.59107   0.74995   0.82267   0.00000  Uiso   1.00
C293   C     0.58711   0.74959   0.67575   0.00000  Uiso   1.00
C294   C     0.49937   0.80181   0.09569   0.00000  Uiso   1.00
C295   C     0.51487   0.84532   0.18629   0.00000  Uiso   1.00
C296   C     0.47606   0.88857   0.20567   0.00000  Uiso   1.00
C297   C     0.49963   0.69894   0.09727   0.00000  Uiso   1.00
C298   C     0.51533   0.65597   0.18922   0.00000  Uiso   1.00
C299   C     0.47672   0.61263   0.20997   0.00000  Uiso   1.00
H300   H     0.39802   0.74960   0.87907   0.00000  Uiso   1.00
H301   H     0.44377   0.74912   0.62932   0.00000  Uiso   1.00
H302   H     0.36757   0.84447   0.99289   0.00000  Uiso   1.00
H303   H     0.36803   0.65515   0.99582   0.00000  Uiso   1.00
H304   H     0.51760   0.74874   0.38276   0.00000  Uiso   1.00
H305   H     0.35694   0.94978   0.14941   0.00000  Uiso   1.00
H306   H     0.35790   0.55057   0.15560   0.00000  Uiso   1.00
H307   H     0.57609   0.75061   0.11288   0.00000  Uiso   1.00
H308   H     0.63162   0.75018   0.87594   0.00000  Uiso   1.00
H309   H     0.55542   0.84553   0.23952   0.00000  Uiso   1.00
H310   H     0.55588   0.65621   0.24245   0.00000  Uiso   1.00
H311   H     0.67007   0.74961   0.58293   0.00000  Uiso   1.00
H312   H     0.50940   0.95064   0.34959   0.00000  Uiso   1.00
H313   H     0.51037   0.55143   0.35577   0.00000  Uiso   1.00
O314   O     0.62715   0.74890   0.32277   0.00000  Uiso   1.00
O315   O     0.41636   0.01264   0.32861   0.00000  Uiso   1.00
O316   O     0.41762   0.48888   0.33671   0.00000  Uiso   1.00
N317   N     0.54586   0.74899   0.46239   0.00000  Uiso   1.00
N318   N     0.39566   0.93696   0.17914   0.00000  Uiso   1.00
N319   N     0.39655   0.56373   0.18496   0.00000  Uiso   1.00
N320   N     0.62790   0.74946   0.57010   0.00000  Uiso   1.00
N321   N     0.47770   0.93742   0.28685   0.00000  Uiso   1.00
N322   N     0.47859   0.56419   0.29267   0.00000  Uiso   1.00
C323   C     0.56119   0.25017   0.93263   0.00000  Uiso   1.00
C324   C     0.51163   0.25030   0.82936   0.00000  Uiso   1.00
C325   C     0.51567   0.25065   0.68253   0.00000  Uiso   1.00
C326   C     0.46539   0.25070   0.60683   0.00000  Uiso   1.00
C327   C     0.39642   0.25091   0.43600   0.00000  Uiso   1.00
C328   C     0.55303   0.19849   0.02688   0.00000  Uiso   1.00
C329   C     0.59187   0.15529   0.04614   0.00000  Uiso   1.00
C330   C     0.57644   0.11172   0.13674   0.00000  Uiso   1.00
C331   C     0.57175   0.03152   0.27266   0.00000  Uiso   1.00
C332   C     0.55278   0.30135   0.02846   0.00000  Uiso   1.00
C333   C     0.59142   0.34463   0.04909   0.00000  Uiso   1.00
C334   C     0.57578   0.38767   0.14104   0.00000  Uiso   1.00
C335   C     0.57070   0.46718   0.27941   0.00000  Uiso   1.00
C336   C     0.46471   0.24963   0.05931   0.00000  Uiso   1.00
C337   C     0.45923   0.25000   0.89817   0.00000  Uiso   1.00
C338   C     0.40893   0.25005   0.82267   0.00000  Uiso   1.00
C339   C     0.41289   0.25041   0.67575   0.00000  Uiso   1.00
C340   C     0.50063   0.19819   0.09569   0.00000  Uiso   1.00
C341   C     0.48513   0.15468   0.18629   0.00000  Uiso   1.00
C342   C     0.52394   0.11143   0.20567   0.00000  Uiso   1.00
C343   C     0.50037   0.30106   0.09727   0.00000  Uiso   1.00
C344   C     0.48467   0.34403   0.18922   0.00000  Uiso   1.00
C345   C     0.52328   0.38737   0.20997   0.00000  Uiso   1.00
H346   H     0.60198   0.25040   0.87907   0.00000  Uiso   1.00
H347   H     0.55623   0.25088   0.62932   0.00000  Uiso   1.00
H348   H     0.63243   0.15553   0.99289   0.00000  Uiso   1.00
H349   H     0.63197   0.34485   0.99582   0.00000  Uiso   1.00
H350   H     0.48240   0.25126   0.38276   0.00000  Uiso   1.00
H351   H     0.64306   0.05022   0.14941   0.00000  Uiso   1.00
H352   H     0.64210   0.44943   0.15560   0.00000  Uiso   1.00
H353   H     0.42391   0.24939   0.11288   0.00000  Uiso   1.00
H354   H     0.36838   0.24982   0.87594   0.00000  Uiso   1.00
H355   H     0.44458   0.15447   0.23952   0.00000  Uiso   1.00
H356   H     0.44412   0.34379   0.24245   0.00000  Uiso   1.00
H357   H     0.32993   0.25039   0.58293   0.00000  Uiso   1.00
H358   H     0.49060   0.04936   0.34959   0.00000  Uiso   1.00
H359   H     0.48963   0.44857   0.35577   0.00000  Uiso   1.00
O360   O     0.37285   0.25110   0.32277   0.00000  Uiso   1.00
O361   O     0.58364   0.98736   0.32861   0.00000  Uiso   1.00
O362   O     0.58238   0.51112   0.33671   0.00000  Uiso   1.00
N363   N     0.45414   0.25101   0.46239   0.00000  Uiso   1.00
N364   N     0.60434   0.06304   0.17914   0.00000  Uiso   1.00
N365   N     0.60345   0.43627   0.18496   0.00000  Uiso   1.00
N366   N     0.37210   0.25054   0.57010   0.00000  Uiso   1.00
N367   N     0.52230   0.06258   0.28685   0.00000  Uiso   1.00
N368   N     0.52141   0.43581   0.29267   0.00000  Uiso   1.00
