data_job_05524
_audit_creation_date              2018-12-19
_audit_creation_method            'Materials Studio'
_symmetry_space_group_name_H-M    'P1'
_symmetry_Int_Tables_number       1
_symmetry_cell_setting            triclinic
loop_
_symmetry_equiv_pos_as_xyz
  x,y,z
_cell_length_a                    17.9848
_cell_length_b                    22.4236
_cell_length_c                    16.8052
_cell_angle_alpha                 90.0000
_cell_angle_beta                  90.0000
_cell_angle_gamma                 90.0000
loop_
_atom_site_label
_atom_site_type_symbol
_atom_site_fract_x
_atom_site_fract_y
_atom_site_fract_z
_atom_site_U_iso_or_equiv
_atom_site_adp_type
_atom_site_occupancy
C1     C     0.77393   0.28151   0.64854   0.00000  Uiso   1.00
C2     C     0.76268   0.31387   0.72744   0.00000  Uiso   1.00
C3     C     0.69752   0.34132   0.75222   0.00000  Uiso   1.00
C4     C     0.69850   0.36853   0.82642   0.00000  Uiso   1.00
C5     C     0.67132   0.41885   0.94166   0.00000  Uiso   1.00
C6     C     0.84012   0.31164   0.60852   0.00000  Uiso   1.00
C7     C     0.84005   0.33720   0.53331   0.00000  Uiso   1.00
C8     C     0.90622   0.36253   0.50741   0.00000  Uiso   1.00
C9     C     0.99927   0.40934   0.43801   0.00000  Uiso   1.00
C10    C     0.79961   0.21868   0.66978   0.00000  Uiso   1.00
C11    C     0.76550   0.16609   0.64606   0.00000  Uiso   1.00
C12    C     0.79756   0.11315   0.67171   0.00000  Uiso   1.00
C13    C     0.82772   0.01563   0.69742   0.00000  Uiso   1.00
C14    C     0.89155   0.28101   0.73627   0.00000  Uiso   1.00
C15    C     0.82657   0.31360   0.77508   0.00000  Uiso   1.00
C16    C     0.82764   0.34077   0.84927   0.00000  Uiso   1.00
C17    C     0.76249   0.36826   0.87416   0.00000  Uiso   1.00
C18    C     0.90400   0.31137   0.65617   0.00000  Uiso   1.00
C19    C     0.97018   0.33665   0.63037   0.00000  Uiso   1.00
C20    C     0.97021   0.36225   0.55514   0.00000  Uiso   1.00
C21    C     0.86349   0.21841   0.71743   0.00000  Uiso   1.00
C22    C     0.89562   0.16554   0.74312   0.00000  Uiso   1.00
C23    C     0.86156   0.11288   0.71944   0.00000  Uiso   1.00
H24    H     0.72420   0.28172   0.61144   0.00000  Uiso   1.00
H25    H     0.64810   0.34153   0.71532   0.00000  Uiso   1.00
H26    H     0.79061   0.33740   0.49645   0.00000  Uiso   1.00
H27    H     0.71606   0.16632   0.60918   0.00000  Uiso   1.00
H28    H     0.59190   0.40773   0.85149   0.00000  Uiso   1.00
H29    H     0.89240   0.39902   0.38998   0.00000  Uiso   1.00
H30    H     0.73521   0.03825   0.62769   0.00000  Uiso   1.00
H31    H     0.94129   0.28080   0.77336   0.00000  Uiso   1.00
H32    H     0.87709   0.34055   0.88613   0.00000  Uiso   1.00
H33    H     0.01960   0.33643   0.66726   0.00000  Uiso   1.00
H34    H     0.94505   0.16534   0.77999   0.00000  Uiso   1.00
H35    H     0.77776   0.40694   0.99013   0.00000  Uiso   1.00
H36    H     0.07826   0.39823   0.52861   0.00000  Uiso   1.00
H37    H     0.92106   0.03746   0.76632   0.00000  Uiso   1.00
O38    O     0.63869   0.44668   0.99206   0.00000  Uiso   1.00
O39    O     0.03294   0.43524   0.38657   0.00000  Uiso   1.00
O40    O     0.82670   0.96192   0.69844   0.00000  Uiso   1.00
N41    N     0.64444   0.39934   0.86865   0.00000  Uiso   1.00
N42    N     0.92540   0.39120   0.43717   0.00000  Uiso   1.00
N43    N     0.77844   0.05391   0.65939   0.00000  Uiso   1.00
N44    N     0.74445   0.39891   0.94325   0.00000  Uiso   1.00
N45    N     0.02541   0.39077   0.51177   0.00000  Uiso   1.00
N46    N     0.87845   0.05348   0.73399   0.00000  Uiso   1.00
C47    C     0.28198   0.30952   0.17525   0.00000  Uiso   1.00
C48    C     0.28074   0.34522   0.25247   0.00000  Uiso   1.00
C49    C     0.21818   0.37030   0.28735   0.00000  Uiso   1.00
C50    C     0.22867   0.40129   0.35799   0.00000  Uiso   1.00
C51    C     0.21603   0.45588   0.47264   0.00000  Uiso   1.00
C52    C     0.33738   0.34101   0.12090   0.00000  Uiso   1.00
C53    C     0.32243   0.36256   0.04515   0.00000  Uiso   1.00
C54    C     0.38061   0.38999   0.00503   0.00000  Uiso   1.00
C55    C     0.45590   0.43801   0.91539   0.00000  Uiso   1.00
C56    C     0.31682   0.24948   0.19583   0.00000  Uiso   1.00
C57    C     0.28461   0.19406   0.18307   0.00000  Uiso   1.00
C58    C     0.32549   0.14443   0.20602   0.00000  Uiso   1.00
C59    C     0.36888   0.05033   0.23272   0.00000  Uiso   1.00
C60    C     0.41186   0.31993   0.23868   0.00000  Uiso   1.00
C61    C     0.35129   0.35087   0.28693   0.00000  Uiso   1.00
C62    C     0.36188   0.38182   0.35754   0.00000  Uiso   1.00
C63    C     0.29935   0.40695   0.39251   0.00000  Uiso   1.00
C64    C     0.40792   0.34667   0.15535   0.00000  Uiso   1.00
C65    C     0.46613   0.37408   0.11533   0.00000  Uiso   1.00
C66    C     0.45128   0.39566   0.03955   0.00000  Uiso   1.00
C67    C     0.38737   0.25513   0.23029   0.00000  Uiso   1.00
C68    C     0.42831   0.20558   0.25326   0.00000  Uiso   1.00
C69    C     0.39617   0.15009   0.24054   0.00000  Uiso   1.00
H70    H     0.22705   0.30512   0.14842   0.00000  Uiso   1.00
H71    H     0.16359   0.36592   0.26066   0.00000  Uiso   1.00
H72    H     0.26784   0.35817   0.01850   0.00000  Uiso   1.00
H73    H     0.23002   0.18970   0.15640   0.00000  Uiso   1.00
H74    H     0.12435   0.43584   0.40029   0.00000  Uiso   1.00
H75    H     0.34416   0.41948   0.88966   0.00000  Uiso   1.00
H76    H     0.26441   0.06423   0.18045   0.00000  Uiso   1.00
H77    H     0.46679   0.32434   0.26551   0.00000  Uiso   1.00
H78    H     0.41648   0.38619   0.38419   0.00000  Uiso   1.00
H79    H     0.52072   0.37844   0.14202   0.00000  Uiso   1.00
H80    H     0.48290   0.20997   0.27992   0.00000  Uiso   1.00
H81    H     0.32961   0.45230   0.50054   0.00000  Uiso   1.00
H82    H     0.54941   0.43593   0.98991   0.00000  Uiso   1.00
H83    H     0.46967   0.08068   0.28071   0.00000  Uiso   1.00
O84    O     0.18957   0.48443   0.52636   0.00000  Uiso   1.00
O85    O     0.47794   0.46295   0.85643   0.00000  Uiso   1.00
O86    O     0.37332   0.99687   0.23794   0.00000  Uiso   1.00
N87    N     0.17956   0.43122   0.40761   0.00000  Uiso   1.00
N88    N     0.38506   0.41592   0.93020   0.00000  Uiso   1.00
N89    N     0.31052   0.08379   0.20205   0.00000  Uiso   1.00
N90    N     0.29001   0.44007   0.46155   0.00000  Uiso   1.00
N91    N     0.49551   0.42478   0.98415   0.00000  Uiso   1.00
N92    N     0.42096   0.09265   0.25599   0.00000  Uiso   1.00
C93    C     0.22607   0.71849   0.14854   0.00000  Uiso   1.00
C94    C     0.23732   0.68613   0.22744   0.00000  Uiso   1.00
C95    C     0.30248   0.65868   0.25222   0.00000  Uiso   1.00
C96    C     0.30150   0.63147   0.32642   0.00000  Uiso   1.00
C97    C     0.32868   0.58115   0.44166   0.00000  Uiso   1.00
C98    C     0.15988   0.68836   0.10852   0.00000  Uiso   1.00
C99    C     0.15995   0.66280   0.03331   0.00000  Uiso   1.00
C100   C     0.09378   0.63747   0.00741   0.00000  Uiso   1.00
C101   C     0.00073   0.59066   0.93801   0.00000  Uiso   1.00
C102   C     0.20039   0.78132   0.16978   0.00000  Uiso   1.00
C103   C     0.23450   0.83391   0.14606   0.00000  Uiso   1.00
C104   C     0.20244   0.88685   0.17171   0.00000  Uiso   1.00
C105   C     0.17228   0.98437   0.19742   0.00000  Uiso   1.00
C106   C     0.10845   0.71899   0.23627   0.00000  Uiso   1.00
C107   C     0.17343   0.68640   0.27508   0.00000  Uiso   1.00
C108   C     0.17236   0.65923   0.34927   0.00000  Uiso   1.00
C109   C     0.23751   0.63174   0.37416   0.00000  Uiso   1.00
C110   C     0.09600   0.68863   0.15617   0.00000  Uiso   1.00
C111   C     0.02982   0.66335   0.13037   0.00000  Uiso   1.00
C112   C     0.02979   0.63775   0.05514   0.00000  Uiso   1.00
C113   C     0.13651   0.78159   0.21743   0.00000  Uiso   1.00
C114   C     0.10438   0.83446   0.24312   0.00000  Uiso   1.00
C115   C     0.13844   0.88712   0.21944   0.00000  Uiso   1.00
H116   H     0.27580   0.71828   0.11144   0.00000  Uiso   1.00
H117   H     0.35190   0.65847   0.21532   0.00000  Uiso   1.00
H118   H     0.20939   0.66260   0.99645   0.00000  Uiso   1.00
H119   H     0.28394   0.83368   0.10918   0.00000  Uiso   1.00
H120   H     0.40810   0.59227   0.35149   0.00000  Uiso   1.00
H121   H     0.10760   0.60098   0.88998   0.00000  Uiso   1.00
H122   H     0.26479   0.96175   0.12769   0.00000  Uiso   1.00
H123   H     0.05871   0.71920   0.27336   0.00000  Uiso   1.00
H124   H     0.12291   0.65945   0.38613   0.00000  Uiso   1.00
H125   H     0.98040   0.66357   0.16726   0.00000  Uiso   1.00
H126   H     0.05495   0.83466   0.27999   0.00000  Uiso   1.00
H127   H     0.22224   0.59306   0.49013   0.00000  Uiso   1.00
H128   H     0.92174   0.60177   0.02861   0.00000  Uiso   1.00
H129   H     0.07894   0.96254   0.26632   0.00000  Uiso   1.00
O130   O     0.36131   0.55332   0.49206   0.00000  Uiso   1.00
O131   O     0.96706   0.56476   0.88657   0.00000  Uiso   1.00
O132   O     0.17330   0.03808   0.19844   0.00000  Uiso   1.00
N133   N     0.35556   0.60066   0.36865   0.00000  Uiso   1.00
N134   N     0.07460   0.60880   0.93717   0.00000  Uiso   1.00
N135   N     0.22156   0.94609   0.15939   0.00000  Uiso   1.00
N136   N     0.25555   0.60109   0.44325   0.00000  Uiso   1.00
N137   N     0.97459   0.60923   0.01177   0.00000  Uiso   1.00
N138   N     0.12155   0.94652   0.23399   0.00000  Uiso   1.00
C139   C     0.71802   0.69048   0.67525   0.00000  Uiso   1.00
C140   C     0.71926   0.65478   0.75247   0.00000  Uiso   1.00
C141   C     0.78182   0.62970   0.78735   0.00000  Uiso   1.00
C142   C     0.77133   0.59871   0.85799   0.00000  Uiso   1.00
C143   C     0.78397   0.54412   0.97264   0.00000  Uiso   1.00
C144   C     0.66262   0.65899   0.62090   0.00000  Uiso   1.00
C145   C     0.67757   0.63744   0.54515   0.00000  Uiso   1.00
C146   C     0.61939   0.61001   0.50503   0.00000  Uiso   1.00
C147   C     0.54410   0.56199   0.41539   0.00000  Uiso   1.00
C148   C     0.68318   0.75052   0.69583   0.00000  Uiso   1.00
C149   C     0.71539   0.80594   0.68307   0.00000  Uiso   1.00
C150   C     0.67451   0.85557   0.70602   0.00000  Uiso   1.00
C151   C     0.63112   0.94967   0.73272   0.00000  Uiso   1.00
C152   C     0.58814   0.68007   0.73868   0.00000  Uiso   1.00
C153   C     0.64871   0.64913   0.78693   0.00000  Uiso   1.00
C154   C     0.63812   0.61818   0.85754   0.00000  Uiso   1.00
C155   C     0.70065   0.59305   0.89251   0.00000  Uiso   1.00
C156   C     0.59208   0.65333   0.65535   0.00000  Uiso   1.00
C157   C     0.53387   0.62592   0.61533   0.00000  Uiso   1.00
C158   C     0.54872   0.60434   0.53955   0.00000  Uiso   1.00
C159   C     0.61263   0.74487   0.73029   0.00000  Uiso   1.00
C160   C     0.57169   0.79442   0.75326   0.00000  Uiso   1.00
C161   C     0.60383   0.84991   0.74054   0.00000  Uiso   1.00
H162   H     0.77295   0.69488   0.64842   0.00000  Uiso   1.00
H163   H     0.83641   0.63408   0.76066   0.00000  Uiso   1.00
H164   H     0.73216   0.64183   0.51850   0.00000  Uiso   1.00
H165   H     0.76998   0.81030   0.65640   0.00000  Uiso   1.00
H166   H     0.87565   0.56416   0.90029   0.00000  Uiso   1.00
H167   H     0.65584   0.58052   0.38966   0.00000  Uiso   1.00
H168   H     0.73559   0.93577   0.68045   0.00000  Uiso   1.00
H169   H     0.53321   0.67566   0.76551   0.00000  Uiso   1.00
H170   H     0.58352   0.61381   0.88419   0.00000  Uiso   1.00
H171   H     0.47928   0.62156   0.64202   0.00000  Uiso   1.00
H172   H     0.51710   0.79003   0.77992   0.00000  Uiso   1.00
H173   H     0.67039   0.54770   0.00054   0.00000  Uiso   1.00
H174   H     0.45059   0.56407   0.48991   0.00000  Uiso   1.00
H175   H     0.53033   0.91932   0.78071   0.00000  Uiso   1.00
O176   O     0.81043   0.51557   0.02636   0.00000  Uiso   1.00
O177   O     0.52206   0.53705   0.35643   0.00000  Uiso   1.00
O178   O     0.62668   0.00313   0.73794   0.00000  Uiso   1.00
N179   N     0.82044   0.56878   0.90761   0.00000  Uiso   1.00
N180   N     0.61494   0.58408   0.43020   0.00000  Uiso   1.00
N181   N     0.68948   0.91621   0.70205   0.00000  Uiso   1.00
N182   N     0.70999   0.55993   0.96155   0.00000  Uiso   1.00
N183   N     0.50449   0.57522   0.48415   0.00000  Uiso   1.00
N184   N     0.57904   0.90735   0.75599   0.00000  Uiso   1.00
C185   C     0.27393   0.21849   0.64854   0.00000  Uiso   1.00
C186   C     0.26268   0.18613   0.72744   0.00000  Uiso   1.00
C187   C     0.19752   0.15868   0.75222   0.00000  Uiso   1.00
C188   C     0.19850   0.13147   0.82642   0.00000  Uiso   1.00
C189   C     0.17132   0.08115   0.94166   0.00000  Uiso   1.00
C190   C     0.34012   0.18836   0.60852   0.00000  Uiso   1.00
C191   C     0.34005   0.16280   0.53331   0.00000  Uiso   1.00
C192   C     0.40622   0.13747   0.50741   0.00000  Uiso   1.00
C193   C     0.49927   0.09066   0.43801   0.00000  Uiso   1.00
C194   C     0.29961   0.28132   0.66978   0.00000  Uiso   1.00
C195   C     0.26550   0.33391   0.64606   0.00000  Uiso   1.00
C196   C     0.29756   0.38685   0.67171   0.00000  Uiso   1.00
C197   C     0.32772   0.48437   0.69742   0.00000  Uiso   1.00
C198   C     0.39155   0.21899   0.73627   0.00000  Uiso   1.00
C199   C     0.32657   0.18640   0.77508   0.00000  Uiso   1.00
C200   C     0.32764   0.15923   0.84927   0.00000  Uiso   1.00
C201   C     0.26249   0.13174   0.87416   0.00000  Uiso   1.00
C202   C     0.40400   0.18863   0.65617   0.00000  Uiso   1.00
C203   C     0.47018   0.16335   0.63037   0.00000  Uiso   1.00
C204   C     0.47021   0.13775   0.55514   0.00000  Uiso   1.00
C205   C     0.36349   0.28159   0.71743   0.00000  Uiso   1.00
C206   C     0.39562   0.33446   0.74312   0.00000  Uiso   1.00
C207   C     0.36156   0.38712   0.71944   0.00000  Uiso   1.00
H208   H     0.22420   0.21828   0.61144   0.00000  Uiso   1.00
H209   H     0.14810   0.15847   0.71532   0.00000  Uiso   1.00
H210   H     0.29061   0.16260   0.49645   0.00000  Uiso   1.00
H211   H     0.21606   0.33368   0.60918   0.00000  Uiso   1.00
H212   H     0.09190   0.09227   0.85149   0.00000  Uiso   1.00
H213   H     0.39240   0.10098   0.38998   0.00000  Uiso   1.00
H214   H     0.23521   0.46175   0.62769   0.00000  Uiso   1.00
H215   H     0.44129   0.21920   0.77336   0.00000  Uiso   1.00
H216   H     0.37709   0.15945   0.88613   0.00000  Uiso   1.00
H217   H     0.51960   0.16357   0.66726   0.00000  Uiso   1.00
H218   H     0.44505   0.33466   0.77999   0.00000  Uiso   1.00
H219   H     0.27776   0.09306   0.99013   0.00000  Uiso   1.00
H220   H     0.57826   0.10177   0.52861   0.00000  Uiso   1.00
H221   H     0.42106   0.46254   0.76632   0.00000  Uiso   1.00
O222   O     0.13869   0.05332   0.99206   0.00000  Uiso   1.00
O223   O     0.53294   0.06476   0.38657   0.00000  Uiso   1.00
O224   O     0.32670   0.53808   0.69844   0.00000  Uiso   1.00
N225   N     0.14444   0.10066   0.86865   0.00000  Uiso   1.00
N226   N     0.42540   0.10880   0.43717   0.00000  Uiso   1.00
N227   N     0.27844   0.44609   0.65939   0.00000  Uiso   1.00
N228   N     0.24445   0.10109   0.94325   0.00000  Uiso   1.00
N229   N     0.52541   0.10923   0.51177   0.00000  Uiso   1.00
N230   N     0.37845   0.44652   0.73399   0.00000  Uiso   1.00
C231   C     0.78198   0.19048   0.17525   0.00000  Uiso   1.00
C232   C     0.78074   0.15478   0.25247   0.00000  Uiso   1.00
C233   C     0.71818   0.12970   0.28735   0.00000  Uiso   1.00
C234   C     0.72867   0.09871   0.35799   0.00000  Uiso   1.00
C235   C     0.71603   0.04412   0.47264   0.00000  Uiso   1.00
C236   C     0.83738   0.15899   0.12090   0.00000  Uiso   1.00
C237   C     0.82243   0.13744   0.04515   0.00000  Uiso   1.00
C238   C     0.88061   0.11001   0.00503   0.00000  Uiso   1.00
C239   C     0.95590   0.06199   0.91539   0.00000  Uiso   1.00
C240   C     0.81682   0.25052   0.19583   0.00000  Uiso   1.00
C241   C     0.78461   0.30594   0.18307   0.00000  Uiso   1.00
C242   C     0.82549   0.35557   0.20602   0.00000  Uiso   1.00
C243   C     0.86888   0.44967   0.23272   0.00000  Uiso   1.00
C244   C     0.91186   0.18007   0.23868   0.00000  Uiso   1.00
C245   C     0.85129   0.14913   0.28693   0.00000  Uiso   1.00
C246   C     0.86188   0.11818   0.35754   0.00000  Uiso   1.00
C247   C     0.79935   0.09305   0.39251   0.00000  Uiso   1.00
C248   C     0.90792   0.15333   0.15535   0.00000  Uiso   1.00
C249   C     0.96613   0.12592   0.11533   0.00000  Uiso   1.00
C250   C     0.95128   0.10434   0.03955   0.00000  Uiso   1.00
C251   C     0.88737   0.24487   0.23029   0.00000  Uiso   1.00
C252   C     0.92831   0.29442   0.25326   0.00000  Uiso   1.00
C253   C     0.89617   0.34991   0.24054   0.00000  Uiso   1.00
H254   H     0.72705   0.19488   0.14842   0.00000  Uiso   1.00
H255   H     0.66359   0.13408   0.26066   0.00000  Uiso   1.00
H256   H     0.76784   0.14183   0.01850   0.00000  Uiso   1.00
H257   H     0.73002   0.31030   0.15640   0.00000  Uiso   1.00
H258   H     0.62435   0.06416   0.40029   0.00000  Uiso   1.00
H259   H     0.84416   0.08052   0.88966   0.00000  Uiso   1.00
H260   H     0.76441   0.43577   0.18045   0.00000  Uiso   1.00
H261   H     0.96679   0.17566   0.26551   0.00000  Uiso   1.00
H262   H     0.91648   0.11381   0.38419   0.00000  Uiso   1.00
H263   H     0.02072   0.12156   0.14202   0.00000  Uiso   1.00
H264   H     0.98290   0.29003   0.27992   0.00000  Uiso   1.00
H265   H     0.82961   0.04770   0.50054   0.00000  Uiso   1.00
H266   H     0.04941   0.06407   0.98991   0.00000  Uiso   1.00
H267   H     0.96967   0.41932   0.28071   0.00000  Uiso   1.00
O268   O     0.68957   0.01557   0.52636   0.00000  Uiso   1.00
O269   O     0.97794   0.03705   0.85643   0.00000  Uiso   1.00
O270   O     0.87332   0.50313   0.23794   0.00000  Uiso   1.00
N271   N     0.67956   0.06878   0.40761   0.00000  Uiso   1.00
N272   N     0.88506   0.08408   0.93020   0.00000  Uiso   1.00
N273   N     0.81052   0.41621   0.20205   0.00000  Uiso   1.00
N274   N     0.79001   0.05993   0.46155   0.00000  Uiso   1.00
N275   N     0.99551   0.07522   0.98415   0.00000  Uiso   1.00
N276   N     0.92096   0.40735   0.25599   0.00000  Uiso   1.00
C277   C     0.72607   0.78151   0.14854   0.00000  Uiso   1.00
C278   C     0.73732   0.81387   0.22744   0.00000  Uiso   1.00
C279   C     0.80248   0.84132   0.25222   0.00000  Uiso   1.00
C280   C     0.80150   0.86853   0.32642   0.00000  Uiso   1.00
C281   C     0.82868   0.91885   0.44166   0.00000  Uiso   1.00
C282   C     0.65988   0.81164   0.10852   0.00000  Uiso   1.00
C283   C     0.65995   0.83720   0.03331   0.00000  Uiso   1.00
C284   C     0.59378   0.86253   0.00741   0.00000  Uiso   1.00
C285   C     0.50073   0.90934   0.93801   0.00000  Uiso   1.00
C286   C     0.70039   0.71868   0.16978   0.00000  Uiso   1.00
C287   C     0.73450   0.66609   0.14606   0.00000  Uiso   1.00
C288   C     0.70244   0.61315   0.17171   0.00000  Uiso   1.00
C289   C     0.67228   0.51563   0.19742   0.00000  Uiso   1.00
C290   C     0.60845   0.78101   0.23627   0.00000  Uiso   1.00
C291   C     0.67343   0.81360   0.27508   0.00000  Uiso   1.00
C292   C     0.67236   0.84077   0.34927   0.00000  Uiso   1.00
C293   C     0.73751   0.86826   0.37416   0.00000  Uiso   1.00
C294   C     0.59600   0.81137   0.15617   0.00000  Uiso   1.00
C295   C     0.52982   0.83665   0.13037   0.00000  Uiso   1.00
C296   C     0.52979   0.86225   0.05514   0.00000  Uiso   1.00
C297   C     0.63651   0.71841   0.21743   0.00000  Uiso   1.00
C298   C     0.60438   0.66554   0.24312   0.00000  Uiso   1.00
C299   C     0.63844   0.61288   0.21944   0.00000  Uiso   1.00
H300   H     0.77580   0.78172   0.11144   0.00000  Uiso   1.00
H301   H     0.85190   0.84153   0.21532   0.00000  Uiso   1.00
H302   H     0.70939   0.83740   0.99645   0.00000  Uiso   1.00
H303   H     0.78394   0.66632   0.10918   0.00000  Uiso   1.00
H304   H     0.90810   0.90773   0.35149   0.00000  Uiso   1.00
H305   H     0.60760   0.89902   0.88998   0.00000  Uiso   1.00
H306   H     0.76479   0.53825   0.12769   0.00000  Uiso   1.00
H307   H     0.55871   0.78080   0.27336   0.00000  Uiso   1.00
H308   H     0.62291   0.84055   0.38613   0.00000  Uiso   1.00
H309   H     0.48040   0.83643   0.16726   0.00000  Uiso   1.00
H310   H     0.55495   0.66534   0.27999   0.00000  Uiso   1.00
H311   H     0.72224   0.90694   0.49013   0.00000  Uiso   1.00
H312   H     0.42174   0.89823   0.02861   0.00000  Uiso   1.00
H313   H     0.57894   0.53746   0.26632   0.00000  Uiso   1.00
O314   O     0.86131   0.94668   0.49206   0.00000  Uiso   1.00
O315   O     0.46706   0.93524   0.88657   0.00000  Uiso   1.00
O316   O     0.67330   0.46192   0.19844   0.00000  Uiso   1.00
N317   N     0.85556   0.89934   0.36865   0.00000  Uiso   1.00
N318   N     0.57460   0.89120   0.93717   0.00000  Uiso   1.00
N319   N     0.72156   0.55391   0.15939   0.00000  Uiso   1.00
N320   N     0.75555   0.89891   0.44325   0.00000  Uiso   1.00
N321   N     0.47459   0.89077   0.01177   0.00000  Uiso   1.00
N322   N     0.62155   0.55348   0.23399   0.00000  Uiso   1.00
C323   C     0.21802   0.80952   0.67525   0.00000  Uiso   1.00
C324   C     0.21926   0.84522   0.75247   0.00000  Uiso   1.00
C325   C     0.28182   0.87030   0.78735   0.00000  Uiso   1.00
C326   C     0.27133   0.90129   0.85799   0.00000  Uiso   1.00
C327   C     0.28397   0.95588   0.97264   0.00000  Uiso   1.00
C328   C     0.16262   0.84101   0.62090   0.00000  Uiso   1.00
C329   C     0.17757   0.86256   0.54515   0.00000  Uiso   1.00
C330   C     0.11939   0.88999   0.50503   0.00000  Uiso   1.00
C331   C     0.04410   0.93801   0.41539   0.00000  Uiso   1.00
C332   C     0.18318   0.74948   0.69583   0.00000  Uiso   1.00
C333   C     0.21539   0.69406   0.68307   0.00000  Uiso   1.00
C334   C     0.17451   0.64443   0.70602   0.00000  Uiso   1.00
C335   C     0.13112   0.55033   0.73272   0.00000  Uiso   1.00
C336   C     0.08814   0.81993   0.73868   0.00000  Uiso   1.00
C337   C     0.14871   0.85087   0.78693   0.00000  Uiso   1.00
C338   C     0.13812   0.88182   0.85754   0.00000  Uiso   1.00
C339   C     0.20065   0.90695   0.89251   0.00000  Uiso   1.00
C340   C     0.09208   0.84667   0.65535   0.00000  Uiso   1.00
C341   C     0.03387   0.87408   0.61533   0.00000  Uiso   1.00
C342   C     0.04872   0.89566   0.53955   0.00000  Uiso   1.00
C343   C     0.11263   0.75513   0.73029   0.00000  Uiso   1.00
C344   C     0.07169   0.70558   0.75326   0.00000  Uiso   1.00
C345   C     0.10383   0.65009   0.74054   0.00000  Uiso   1.00
H346   H     0.27295   0.80512   0.64842   0.00000  Uiso   1.00
H347   H     0.33641   0.86592   0.76066   0.00000  Uiso   1.00
H348   H     0.23216   0.85817   0.51850   0.00000  Uiso   1.00
H349   H     0.26998   0.68970   0.65640   0.00000  Uiso   1.00
H350   H     0.37565   0.93584   0.90029   0.00000  Uiso   1.00
H351   H     0.15584   0.91948   0.38966   0.00000  Uiso   1.00
H352   H     0.23559   0.56423   0.68045   0.00000  Uiso   1.00
H353   H     0.03321   0.82434   0.76551   0.00000  Uiso   1.00
H354   H     0.08352   0.88619   0.88419   0.00000  Uiso   1.00
H355   H     0.97928   0.87844   0.64202   0.00000  Uiso   1.00
H356   H     0.01710   0.70997   0.77992   0.00000  Uiso   1.00
H357   H     0.17039   0.95230   0.00054   0.00000  Uiso   1.00
H358   H     0.95059   0.93593   0.48991   0.00000  Uiso   1.00
H359   H     0.03033   0.58068   0.78071   0.00000  Uiso   1.00
O360   O     0.31043   0.98443   0.02636   0.00000  Uiso   1.00
O361   O     0.02206   0.96295   0.35643   0.00000  Uiso   1.00
O362   O     0.12668   0.49687   0.73794   0.00000  Uiso   1.00
N363   N     0.32044   0.93122   0.90761   0.00000  Uiso   1.00
N364   N     0.11494   0.91592   0.43020   0.00000  Uiso   1.00
N365   N     0.18948   0.58379   0.70205   0.00000  Uiso   1.00
N366   N     0.20999   0.94007   0.96155   0.00000  Uiso   1.00
N367   N     0.00449   0.92478   0.48415   0.00000  Uiso   1.00
N368   N     0.07904   0.59265   0.75599   0.00000  Uiso   1.00
