data_job_01190
_audit_creation_date              2018-12-19
_audit_creation_method            'Materials Studio'
_symmetry_space_group_name_H-M    'P1'
_symmetry_Int_Tables_number       1
_symmetry_cell_setting            triclinic
loop_
_symmetry_equiv_pos_as_xyz
  x,y,z
_cell_length_a                    11.7285
_cell_length_b                    6.9581
_cell_length_c                    42.3543
_cell_angle_alpha                 90.0000
_cell_angle_beta                  90.0000
_cell_angle_gamma                 90.0000
loop_
_atom_site_label
_atom_site_type_symbol
_atom_site_fract_x
_atom_site_fract_y
_atom_site_fract_z
_atom_site_U_iso_or_equiv
_atom_site_adp_type
_atom_site_occupancy
C1     C     0.02626   0.59176   0.83879   0.00000  Uiso   1.00
C2     C     0.95489   0.73084   0.81920   0.00000  Uiso   1.00
C3     C     0.86175   0.68186   0.80066   0.00000  Uiso   1.00
C4     C     0.80789   0.83005   0.78456   0.00000  Uiso   1.00
C5     C     0.69133   0.01705   0.75377   0.00000  Uiso   1.00
C6     C     0.14894   0.61684   0.82760   0.00000  Uiso   1.00
C7     C     0.21896   0.47200   0.81612   0.00000  Uiso   1.00
C8     C     0.32845   0.52422   0.80709   0.00000  Uiso   1.00
C9     C     0.51318   0.53420   0.78936   0.00000  Uiso   1.00
C10    C     0.02291   0.66763   0.87255   0.00000  Uiso   1.00
C11    C     0.98699   0.56549   0.89888   0.00000  Uiso   1.00
C12    C     0.99041   0.66047   0.92770   0.00000  Uiso   1.00
C13    C     0.97945   0.74932   0.97976   0.00000  Uiso   1.00
C14    C     0.09624   0.94203   0.84315   0.00000  Uiso   1.00
C15    C     0.99290   0.92109   0.82157   0.00000  Uiso   1.00
C16    C     0.93917   0.06940   0.80549   0.00000  Uiso   1.00
C17    C     0.84596   0.02065   0.78693   0.00000  Uiso   1.00
C18    C     0.18695   0.80708   0.82996   0.00000  Uiso   1.00
C19    C     0.29637   0.85953   0.82095   0.00000  Uiso   1.00
C20    C     0.36653   0.71482   0.80946   0.00000  Uiso   1.00
C21    C     0.06092   0.85789   0.87492   0.00000  Uiso   1.00
C22    C     0.06440   0.95304   0.90370   0.00000  Uiso   1.00
C23    C     0.02848   0.85106   0.93007   0.00000  Uiso   1.00
H24    H     0.99668   0.44363   0.83695   0.00000  Uiso   1.00
H25    H     0.83237   0.53460   0.79884   0.00000  Uiso   1.00
H26    H     0.18952   0.32478   0.81430   0.00000  Uiso   1.00
H27    H     0.95759   0.41826   0.89704   0.00000  Uiso   1.00
H28    H     0.66699   0.71935   0.75762   0.00000  Uiso   1.00
H29    H     0.42008   0.27691   0.79023   0.00000  Uiso   1.00
H30    H     0.93100   0.47403   0.96471   0.00000  Uiso   1.00
H31    H     0.12583   0.09016   0.84499   0.00000  Uiso   1.00
H32    H     0.96860   0.21661   0.80732   0.00000  Uiso   1.00
H33    H     0.32576   0.00678   0.82278   0.00000  Uiso   1.00
H34    H     0.09382   0.10026   0.90553   0.00000  Uiso   1.00
H35    H     0.77756   0.27290   0.76451   0.00000  Uiso   1.00
H36    H     0.53066   0.83044   0.79712   0.00000  Uiso   1.00
H37    H     0.04157   0.02758   0.97160   0.00000  Uiso   1.00
O38    O     0.61654   0.06764   0.73613   0.00000  Uiso   1.00
O39    O     0.60457   0.48715   0.77892   0.00000  Uiso   1.00
O40    O     0.96290   0.74578   0.00783   0.00000  Uiso   1.00
N41    N     0.71458   0.83228   0.76442   0.00000  Uiso   1.00
N42    N     0.41867   0.41862   0.79490   0.00000  Uiso   1.00
N43    N     0.96144   0.60291   0.95802   0.00000  Uiso   1.00
N44    N     0.77407   0.13014   0.76812   0.00000  Uiso   1.00
N45    N     0.47816   0.71648   0.79861   0.00000  Uiso   1.00
N46    N     0.02094   0.90076   0.96173   0.00000  Uiso   1.00
C47    C     0.97374   0.40824   0.33879   0.00000  Uiso   1.00
C48    C     0.04511   0.26916   0.31920   0.00000  Uiso   1.00
C49    C     0.13825   0.31814   0.30066   0.00000  Uiso   1.00
C50    C     0.19211   0.16995   0.28456   0.00000  Uiso   1.00
C51    C     0.30867   0.98295   0.25377   0.00000  Uiso   1.00
C52    C     0.85106   0.38316   0.32760   0.00000  Uiso   1.00
C53    C     0.78104   0.52800   0.31612   0.00000  Uiso   1.00
C54    C     0.67155   0.47578   0.30709   0.00000  Uiso   1.00
C55    C     0.48682   0.46580   0.28936   0.00000  Uiso   1.00
C56    C     0.97709   0.33237   0.37255   0.00000  Uiso   1.00
C57    C     0.01301   0.43451   0.39888   0.00000  Uiso   1.00
C58    C     0.00959   0.33953   0.42770   0.00000  Uiso   1.00
C59    C     0.02055   0.25068   0.47976   0.00000  Uiso   1.00
C60    C     0.90376   0.05797   0.34315   0.00000  Uiso   1.00
C61    C     0.00710   0.07891   0.32157   0.00000  Uiso   1.00
C62    C     0.06083   0.93060   0.30549   0.00000  Uiso   1.00
C63    C     0.15404   0.97935   0.28693   0.00000  Uiso   1.00
C64    C     0.81305   0.19292   0.32996   0.00000  Uiso   1.00
C65    C     0.70363   0.14047   0.32095   0.00000  Uiso   1.00
C66    C     0.63347   0.28518   0.30946   0.00000  Uiso   1.00
C67    C     0.93908   0.14211   0.37492   0.00000  Uiso   1.00
C68    C     0.93560   0.04696   0.40370   0.00000  Uiso   1.00
C69    C     0.97152   0.14894   0.43007   0.00000  Uiso   1.00
H70    H     0.00332   0.55637   0.33695   0.00000  Uiso   1.00
H71    H     0.16763   0.46540   0.29884   0.00000  Uiso   1.00
H72    H     0.81048   0.67522   0.31430   0.00000  Uiso   1.00
H73    H     0.04241   0.58174   0.39704   0.00000  Uiso   1.00
H74    H     0.33301   0.28065   0.25762   0.00000  Uiso   1.00
H75    H     0.57992   0.72309   0.29023   0.00000  Uiso   1.00
H76    H     0.06900   0.52597   0.46471   0.00000  Uiso   1.00
H77    H     0.87417   0.90984   0.34499   0.00000  Uiso   1.00
H78    H     0.03140   0.78339   0.30732   0.00000  Uiso   1.00
H79    H     0.67424   0.99322   0.32278   0.00000  Uiso   1.00
H80    H     0.90618   0.89974   0.40553   0.00000  Uiso   1.00
H81    H     0.22244   0.72710   0.26451   0.00000  Uiso   1.00
H82    H     0.46934   0.16956   0.29712   0.00000  Uiso   1.00
H83    H     0.95843   0.97242   0.47160   0.00000  Uiso   1.00
O84    O     0.38346   0.93236   0.23613   0.00000  Uiso   1.00
O85    O     0.39543   0.51285   0.27892   0.00000  Uiso   1.00
O86    O     0.03710   0.25422   0.50783   0.00000  Uiso   1.00
N87    N     0.28542   0.16772   0.26442   0.00000  Uiso   1.00
N88    N     0.58133   0.58138   0.29490   0.00000  Uiso   1.00
N89    N     0.03856   0.39709   0.45802   0.00000  Uiso   1.00
N90    N     0.22593   0.86986   0.26812   0.00000  Uiso   1.00
N91    N     0.52184   0.28352   0.29861   0.00000  Uiso   1.00
N92    N     0.97906   0.09924   0.46173   0.00000  Uiso   1.00
C93    C     0.97374   0.59176   0.66121   0.00000  Uiso   1.00
C94    C     0.04511   0.73084   0.68080   0.00000  Uiso   1.00
C95    C     0.13825   0.68186   0.69934   0.00000  Uiso   1.00
C96    C     0.19211   0.83005   0.71544   0.00000  Uiso   1.00
C97    C     0.30867   0.01705   0.74623   0.00000  Uiso   1.00
C98    C     0.85106   0.61684   0.67240   0.00000  Uiso   1.00
C99    C     0.78104   0.47200   0.68388   0.00000  Uiso   1.00
C100   C     0.67155   0.52422   0.69291   0.00000  Uiso   1.00
C101   C     0.48682   0.53420   0.71064   0.00000  Uiso   1.00
C102   C     0.97709   0.66763   0.62745   0.00000  Uiso   1.00
C103   C     0.01301   0.56549   0.60112   0.00000  Uiso   1.00
C104   C     0.00959   0.66047   0.57230   0.00000  Uiso   1.00
C105   C     0.02055   0.74932   0.52024   0.00000  Uiso   1.00
C106   C     0.90376   0.94203   0.65685   0.00000  Uiso   1.00
C107   C     0.00710   0.92109   0.67843   0.00000  Uiso   1.00
C108   C     0.06083   0.06940   0.69451   0.00000  Uiso   1.00
C109   C     0.15404   0.02065   0.71307   0.00000  Uiso   1.00
C110   C     0.81305   0.80708   0.67004   0.00000  Uiso   1.00
C111   C     0.70363   0.85953   0.67905   0.00000  Uiso   1.00
C112   C     0.63347   0.71482   0.69054   0.00000  Uiso   1.00
C113   C     0.93908   0.85789   0.62508   0.00000  Uiso   1.00
C114   C     0.93560   0.95304   0.59630   0.00000  Uiso   1.00
C115   C     0.97152   0.85106   0.56993   0.00000  Uiso   1.00
H116   H     0.00332   0.44363   0.66305   0.00000  Uiso   1.00
H117   H     0.16763   0.53460   0.70116   0.00000  Uiso   1.00
H118   H     0.81048   0.32478   0.68570   0.00000  Uiso   1.00
H119   H     0.04241   0.41826   0.60296   0.00000  Uiso   1.00
H120   H     0.33301   0.71935   0.74238   0.00000  Uiso   1.00
H121   H     0.57992   0.27691   0.70977   0.00000  Uiso   1.00
H122   H     0.06900   0.47403   0.53529   0.00000  Uiso   1.00
H123   H     0.87417   0.09016   0.65501   0.00000  Uiso   1.00
H124   H     0.03140   0.21661   0.69268   0.00000  Uiso   1.00
H125   H     0.67424   0.00678   0.67722   0.00000  Uiso   1.00
H126   H     0.90618   0.10026   0.59447   0.00000  Uiso   1.00
H127   H     0.22244   0.27290   0.73549   0.00000  Uiso   1.00
H128   H     0.46934   0.83044   0.70288   0.00000  Uiso   1.00
H129   H     0.95843   0.02758   0.52840   0.00000  Uiso   1.00
O130   O     0.38346   0.06764   0.76387   0.00000  Uiso   1.00
O131   O     0.39543   0.48715   0.72108   0.00000  Uiso   1.00
O132   O     0.03710   0.74578   0.49217   0.00000  Uiso   1.00
N133   N     0.28542   0.83228   0.73558   0.00000  Uiso   1.00
N134   N     0.58133   0.41862   0.70510   0.00000  Uiso   1.00
N135   N     0.03856   0.60291   0.54198   0.00000  Uiso   1.00
N136   N     0.22593   0.13014   0.73188   0.00000  Uiso   1.00
N137   N     0.52184   0.71648   0.70139   0.00000  Uiso   1.00
N138   N     0.97906   0.90076   0.53827   0.00000  Uiso   1.00
C139   C     0.02626   0.40824   0.16121   0.00000  Uiso   1.00
C140   C     0.95489   0.26916   0.18080   0.00000  Uiso   1.00
C141   C     0.86175   0.31814   0.19934   0.00000  Uiso   1.00
C142   C     0.80789   0.16995   0.21544   0.00000  Uiso   1.00
C143   C     0.69133   0.98295   0.24623   0.00000  Uiso   1.00
C144   C     0.14894   0.38316   0.17240   0.00000  Uiso   1.00
C145   C     0.21896   0.52800   0.18388   0.00000  Uiso   1.00
C146   C     0.32845   0.47578   0.19291   0.00000  Uiso   1.00
C147   C     0.51318   0.46580   0.21064   0.00000  Uiso   1.00
C148   C     0.02291   0.33237   0.12745   0.00000  Uiso   1.00
C149   C     0.98699   0.43451   0.10112   0.00000  Uiso   1.00
C150   C     0.99041   0.33953   0.07230   0.00000  Uiso   1.00
C151   C     0.97945   0.25068   0.02024   0.00000  Uiso   1.00
C152   C     0.09624   0.05797   0.15685   0.00000  Uiso   1.00
C153   C     0.99290   0.07891   0.17843   0.00000  Uiso   1.00
C154   C     0.93917   0.93060   0.19451   0.00000  Uiso   1.00
C155   C     0.84596   0.97935   0.21307   0.00000  Uiso   1.00
C156   C     0.18695   0.19292   0.17004   0.00000  Uiso   1.00
C157   C     0.29637   0.14047   0.17905   0.00000  Uiso   1.00
C158   C     0.36653   0.28518   0.19054   0.00000  Uiso   1.00
C159   C     0.06092   0.14211   0.12508   0.00000  Uiso   1.00
C160   C     0.06440   0.04696   0.09630   0.00000  Uiso   1.00
C161   C     0.02848   0.14894   0.06993   0.00000  Uiso   1.00
H162   H     0.99668   0.55637   0.16305   0.00000  Uiso   1.00
H163   H     0.83237   0.46540   0.20116   0.00000  Uiso   1.00
H164   H     0.18952   0.67522   0.18570   0.00000  Uiso   1.00
H165   H     0.95759   0.58174   0.10296   0.00000  Uiso   1.00
H166   H     0.66699   0.28065   0.24238   0.00000  Uiso   1.00
H167   H     0.42008   0.72309   0.20977   0.00000  Uiso   1.00
H168   H     0.93100   0.52597   0.03529   0.00000  Uiso   1.00
H169   H     0.12583   0.90984   0.15501   0.00000  Uiso   1.00
H170   H     0.96860   0.78339   0.19268   0.00000  Uiso   1.00
H171   H     0.32576   0.99322   0.17722   0.00000  Uiso   1.00
H172   H     0.09382   0.89974   0.09447   0.00000  Uiso   1.00
H173   H     0.77756   0.72710   0.23549   0.00000  Uiso   1.00
H174   H     0.53066   0.16956   0.20288   0.00000  Uiso   1.00
H175   H     0.04157   0.97242   0.02840   0.00000  Uiso   1.00
O176   O     0.61654   0.93236   0.26387   0.00000  Uiso   1.00
O177   O     0.60457   0.51285   0.22108   0.00000  Uiso   1.00
O178   O     0.96290   0.25422   0.99217   0.00000  Uiso   1.00
N179   N     0.71458   0.16772   0.23558   0.00000  Uiso   1.00
N180   N     0.41867   0.58138   0.20510   0.00000  Uiso   1.00
N181   N     0.96144   0.39709   0.04198   0.00000  Uiso   1.00
N182   N     0.77407   0.86986   0.23188   0.00000  Uiso   1.00
N183   N     0.47816   0.28352   0.20139   0.00000  Uiso   1.00
N184   N     0.02094   0.09924   0.03827   0.00000  Uiso   1.00
