data_job_01650
_audit_creation_date              2018-12-19
_audit_creation_method            'Materials Studio'
_symmetry_space_group_name_H-M    'P1'
_symmetry_Int_Tables_number       1
_symmetry_cell_setting            triclinic
loop_
_symmetry_equiv_pos_as_xyz
  x,y,z
_cell_length_a                    18.6541
_cell_length_b                    10.1349
_cell_length_c                    12.6749
_cell_angle_alpha                 90.0000
_cell_angle_beta                  90.0000
_cell_angle_gamma                 90.0000
loop_
_atom_site_label
_atom_site_type_symbol
_atom_site_fract_x
_atom_site_fract_y
_atom_site_fract_z
_atom_site_U_iso_or_equiv
_atom_site_adp_type
_atom_site_occupancy
C1     C     0.07130   0.70313   0.21503   0.00000  Uiso   1.00
C2     C     0.06382   0.77597   0.31972   0.00000  Uiso   1.00
C3     C     0.00334   0.77682   0.38346   0.00000  Uiso   1.00
C4     C     0.00719   0.84948   0.47615   0.00000  Uiso   1.00
C5     C     0.98611   0.95209   0.63446   0.00000  Uiso   1.00
C6     C     0.09200   0.80728   0.13372   0.00000  Uiso   1.00
C7     C     0.05520   0.83445   0.04106   0.00000  Uiso   1.00
C8     C     0.08279   0.93346   0.97716   0.00000  Uiso   1.00
C9     C     0.10548   0.08463   0.84665   0.00000  Uiso   1.00
C10    C     0.13649   0.61354   0.22676   0.00000  Uiso   1.00
C11    C     0.13712   0.47781   0.21230   0.00000  Uiso   1.00
C12    C     0.20217   0.41371   0.22672   0.00000  Uiso   1.00
C13    C     0.29394   0.26407   0.24067   0.00000  Uiso   1.00
C14    C     0.18571   0.83066   0.26628   0.00000  Uiso   1.00
C15    C     0.12597   0.84524   0.34756   0.00000  Uiso   1.00
C16    C     0.12992   0.91791   0.44018   0.00000  Uiso   1.00
C17    C     0.06945   0.91887   0.50405   0.00000  Uiso   1.00
C18    C     0.15414   0.87655   0.16155   0.00000  Uiso   1.00
C19    C     0.18179   0.97554   0.09777   0.00000  Uiso   1.00
C20    C     0.14504   0.00285   0.00505   0.00000  Uiso   1.00
C21    C     0.19864   0.68281   0.25460   0.00000  Uiso   1.00
C22    C     0.26370   0.61891   0.26903   0.00000  Uiso   1.00
C23    C     0.26442   0.48311   0.25461   0.00000  Uiso   1.00
H24    H     0.02292   0.64921   0.19334   0.00000  Uiso   1.00
H25    H     0.95525   0.72321   0.36188   0.00000  Uiso   1.00
H26    H     0.00712   0.78082   0.01953   0.00000  Uiso   1.00
H27    H     0.08902   0.42424   0.19076   0.00000  Uiso   1.00
H28    H     0.90762   0.83584   0.56100   0.00000  Uiso   1.00
H29    H     0.01700   0.95728   0.83911   0.00000  Uiso   1.00
H30    H     0.18970   0.20537   0.20018   0.00000  Uiso   1.00
H31    H     0.23410   0.88459   0.28796   0.00000  Uiso   1.00
H32    H     0.17802   0.97150   0.46170   0.00000  Uiso   1.00
H33    H     0.22988   0.02912   0.11934   0.00000  Uiso   1.00
H34    H     0.31178   0.67254   0.29057   0.00000  Uiso   1.00
H35    H     0.08843   0.03737   0.64202   0.00000  Uiso   1.00
H36    H     0.19780   0.15881   0.92012   0.00000  Uiso   1.00
H37    H     0.37050   0.40690   0.28119   0.00000  Uiso   1.00
O38    O     0.95731   0.98957   0.71408   0.00000  Uiso   1.00
O39    O     0.10082   0.14888   0.76697   0.00000  Uiso   1.00
O40    O     0.32739   0.16239   0.24069   0.00000  Uiso   1.00
N41    N     0.95788   0.87132   0.55624   0.00000  Uiso   1.00
N42    N     0.06013   0.98488   0.88132   0.00000  Uiso   1.00
N43    N     0.22159   0.28191   0.21886   0.00000  Uiso   1.00
N44    N     0.05516   0.97976   0.59983   0.00000  Uiso   1.00
N45    N     0.15742   0.09332   0.92491   0.00000  Uiso   1.00
N46    N     0.31888   0.39035   0.26245   0.00000  Uiso   1.00
C47    C     0.42870   0.29687   0.71503   0.00000  Uiso   1.00
C48    C     0.43618   0.22403   0.81972   0.00000  Uiso   1.00
C49    C     0.49666   0.22318   0.88346   0.00000  Uiso   1.00
C50    C     0.49281   0.15052   0.97615   0.00000  Uiso   1.00
C51    C     0.51389   0.04791   0.13446   0.00000  Uiso   1.00
C52    C     0.40800   0.19272   0.63372   0.00000  Uiso   1.00
C53    C     0.44480   0.16555   0.54106   0.00000  Uiso   1.00
C54    C     0.41721   0.06654   0.47716   0.00000  Uiso   1.00
C55    C     0.39452   0.91537   0.34665   0.00000  Uiso   1.00
C56    C     0.36351   0.38646   0.72676   0.00000  Uiso   1.00
C57    C     0.36288   0.52219   0.71230   0.00000  Uiso   1.00
C58    C     0.29783   0.58629   0.72672   0.00000  Uiso   1.00
C59    C     0.20606   0.73593   0.74067   0.00000  Uiso   1.00
C60    C     0.31429   0.16934   0.76628   0.00000  Uiso   1.00
C61    C     0.37403   0.15476   0.84756   0.00000  Uiso   1.00
C62    C     0.37008   0.08209   0.94018   0.00000  Uiso   1.00
C63    C     0.43055   0.08113   0.00405   0.00000  Uiso   1.00
C64    C     0.34586   0.12345   0.66155   0.00000  Uiso   1.00
C65    C     0.31821   0.02446   0.59777   0.00000  Uiso   1.00
C66    C     0.35496   0.99715   0.50505   0.00000  Uiso   1.00
C67    C     0.30136   0.31719   0.75460   0.00000  Uiso   1.00
C68    C     0.23630   0.38109   0.76903   0.00000  Uiso   1.00
C69    C     0.23558   0.51689   0.75461   0.00000  Uiso   1.00
H70    H     0.47708   0.35079   0.69334   0.00000  Uiso   1.00
H71    H     0.54475   0.27679   0.86188   0.00000  Uiso   1.00
H72    H     0.49288   0.21918   0.51953   0.00000  Uiso   1.00
H73    H     0.41098   0.57576   0.69076   0.00000  Uiso   1.00
H74    H     0.59238   0.16416   0.06100   0.00000  Uiso   1.00
H75    H     0.48300   0.04272   0.33911   0.00000  Uiso   1.00
H76    H     0.31030   0.79463   0.70018   0.00000  Uiso   1.00
H77    H     0.26590   0.11541   0.78796   0.00000  Uiso   1.00
H78    H     0.32198   0.02850   0.96170   0.00000  Uiso   1.00
H79    H     0.27012   0.97088   0.61934   0.00000  Uiso   1.00
H80    H     0.18822   0.32746   0.79057   0.00000  Uiso   1.00
H81    H     0.41157   0.96263   0.14202   0.00000  Uiso   1.00
H82    H     0.30220   0.84119   0.42012   0.00000  Uiso   1.00
H83    H     0.12950   0.59310   0.78119   0.00000  Uiso   1.00
O84    O     0.54269   0.01043   0.21408   0.00000  Uiso   1.00
O85    O     0.39918   0.85112   0.26697   0.00000  Uiso   1.00
O86    O     0.17261   0.83761   0.74069   0.00000  Uiso   1.00
N87    N     0.54212   0.12868   0.05624   0.00000  Uiso   1.00
N88    N     0.43987   0.01512   0.38132   0.00000  Uiso   1.00
N89    N     0.27841   0.71809   0.71886   0.00000  Uiso   1.00
N90    N     0.44484   0.02024   0.09983   0.00000  Uiso   1.00
N91    N     0.34258   0.90668   0.42491   0.00000  Uiso   1.00
N92    N     0.18112   0.60965   0.76245   0.00000  Uiso   1.00
C93    C     0.92870   0.20313   0.28497   0.00000  Uiso   1.00
C94    C     0.93618   0.27597   0.18028   0.00000  Uiso   1.00
C95    C     0.99666   0.27682   0.11654   0.00000  Uiso   1.00
C96    C     0.99281   0.34948   0.02385   0.00000  Uiso   1.00
C97    C     0.01389   0.45209   0.86554   0.00000  Uiso   1.00
C98    C     0.90800   0.30728   0.36628   0.00000  Uiso   1.00
C99    C     0.94480   0.33445   0.45894   0.00000  Uiso   1.00
C100   C     0.91721   0.43346   0.52284   0.00000  Uiso   1.00
C101   C     0.89452   0.58463   0.65335   0.00000  Uiso   1.00
C102   C     0.86351   0.11354   0.27324   0.00000  Uiso   1.00
C103   C     0.86288   0.97781   0.28770   0.00000  Uiso   1.00
C104   C     0.79783   0.91371   0.27328   0.00000  Uiso   1.00
C105   C     0.70606   0.76407   0.25933   0.00000  Uiso   1.00
C106   C     0.81429   0.33066   0.23372   0.00000  Uiso   1.00
C107   C     0.87403   0.34524   0.15244   0.00000  Uiso   1.00
C108   C     0.87008   0.41791   0.05982   0.00000  Uiso   1.00
C109   C     0.93055   0.41887   0.99595   0.00000  Uiso   1.00
C110   C     0.84586   0.37655   0.33845   0.00000  Uiso   1.00
C111   C     0.81821   0.47554   0.40223   0.00000  Uiso   1.00
C112   C     0.85496   0.50285   0.49495   0.00000  Uiso   1.00
C113   C     0.80136   0.18281   0.24540   0.00000  Uiso   1.00
C114   C     0.73630   0.11891   0.23097   0.00000  Uiso   1.00
C115   C     0.73558   0.98311   0.24539   0.00000  Uiso   1.00
H116   H     0.97708   0.14921   0.30666   0.00000  Uiso   1.00
H117   H     0.04475   0.22321   0.13812   0.00000  Uiso   1.00
H118   H     0.99288   0.28082   0.48047   0.00000  Uiso   1.00
H119   H     0.91098   0.92424   0.30924   0.00000  Uiso   1.00
H120   H     0.09238   0.33584   0.93900   0.00000  Uiso   1.00
H121   H     0.98300   0.45728   0.66089   0.00000  Uiso   1.00
H122   H     0.81030   0.70537   0.29982   0.00000  Uiso   1.00
H123   H     0.76590   0.38459   0.21204   0.00000  Uiso   1.00
H124   H     0.82198   0.47150   0.03830   0.00000  Uiso   1.00
H125   H     0.77012   0.52912   0.38066   0.00000  Uiso   1.00
H126   H     0.68822   0.17254   0.20943   0.00000  Uiso   1.00
H127   H     0.91157   0.53737   0.85798   0.00000  Uiso   1.00
H128   H     0.80220   0.65881   0.57988   0.00000  Uiso   1.00
H129   H     0.62950   0.90690   0.21881   0.00000  Uiso   1.00
O130   O     0.04269   0.48957   0.78592   0.00000  Uiso   1.00
O131   O     0.89918   0.64888   0.73303   0.00000  Uiso   1.00
O132   O     0.67261   0.66239   0.25931   0.00000  Uiso   1.00
N133   N     0.04212   0.37132   0.94376   0.00000  Uiso   1.00
N134   N     0.93987   0.48488   0.61868   0.00000  Uiso   1.00
N135   N     0.77841   0.78191   0.28114   0.00000  Uiso   1.00
N136   N     0.94484   0.47976   0.90017   0.00000  Uiso   1.00
N137   N     0.84258   0.59332   0.57509   0.00000  Uiso   1.00
N138   N     0.68112   0.89035   0.23755   0.00000  Uiso   1.00
C139   C     0.57130   0.79687   0.78497   0.00000  Uiso   1.00
C140   C     0.56382   0.72403   0.68028   0.00000  Uiso   1.00
C141   C     0.50334   0.72318   0.61654   0.00000  Uiso   1.00
C142   C     0.50719   0.65052   0.52385   0.00000  Uiso   1.00
C143   C     0.48611   0.54791   0.36554   0.00000  Uiso   1.00
C144   C     0.59200   0.69272   0.86628   0.00000  Uiso   1.00
C145   C     0.55520   0.66555   0.95894   0.00000  Uiso   1.00
C146   C     0.58279   0.56654   0.02284   0.00000  Uiso   1.00
C147   C     0.60548   0.41537   0.15335   0.00000  Uiso   1.00
C148   C     0.63649   0.88646   0.77324   0.00000  Uiso   1.00
C149   C     0.63712   0.02219   0.78770   0.00000  Uiso   1.00
C150   C     0.70217   0.08629   0.77328   0.00000  Uiso   1.00
C151   C     0.79394   0.23593   0.75933   0.00000  Uiso   1.00
C152   C     0.68571   0.66934   0.73372   0.00000  Uiso   1.00
C153   C     0.62597   0.65476   0.65244   0.00000  Uiso   1.00
C154   C     0.62992   0.58209   0.55982   0.00000  Uiso   1.00
C155   C     0.56945   0.58113   0.49595   0.00000  Uiso   1.00
C156   C     0.65414   0.62345   0.83845   0.00000  Uiso   1.00
C157   C     0.68179   0.52446   0.90223   0.00000  Uiso   1.00
C158   C     0.64504   0.49715   0.99495   0.00000  Uiso   1.00
C159   C     0.69864   0.81719   0.74540   0.00000  Uiso   1.00
C160   C     0.76370   0.88109   0.73097   0.00000  Uiso   1.00
C161   C     0.76442   0.01689   0.74539   0.00000  Uiso   1.00
H162   H     0.52292   0.85079   0.80666   0.00000  Uiso   1.00
H163   H     0.45525   0.77679   0.63812   0.00000  Uiso   1.00
H164   H     0.50712   0.71918   0.98047   0.00000  Uiso   1.00
H165   H     0.58902   0.07576   0.80924   0.00000  Uiso   1.00
H166   H     0.40762   0.66416   0.43900   0.00000  Uiso   1.00
H167   H     0.51700   0.54272   0.16089   0.00000  Uiso   1.00
H168   H     0.68970   0.29463   0.79982   0.00000  Uiso   1.00
H169   H     0.73410   0.61541   0.71204   0.00000  Uiso   1.00
H170   H     0.67802   0.52850   0.53830   0.00000  Uiso   1.00
H171   H     0.72988   0.47088   0.88066   0.00000  Uiso   1.00
H172   H     0.81178   0.82746   0.70943   0.00000  Uiso   1.00
H173   H     0.58843   0.46263   0.35798   0.00000  Uiso   1.00
H174   H     0.69780   0.34119   0.07988   0.00000  Uiso   1.00
H175   H     0.87050   0.09310   0.71881   0.00000  Uiso   1.00
O176   O     0.45731   0.51043   0.28592   0.00000  Uiso   1.00
O177   O     0.60082   0.35112   0.23303   0.00000  Uiso   1.00
O178   O     0.82739   0.33761   0.75931   0.00000  Uiso   1.00
N179   N     0.45788   0.62868   0.44376   0.00000  Uiso   1.00
N180   N     0.56013   0.51512   0.11868   0.00000  Uiso   1.00
N181   N     0.72159   0.21809   0.78114   0.00000  Uiso   1.00
N182   N     0.55516   0.52024   0.40017   0.00000  Uiso   1.00
N183   N     0.65742   0.40668   0.07509   0.00000  Uiso   1.00
N184   N     0.81888   0.10965   0.73755   0.00000  Uiso   1.00
