data_job_00533
_audit_creation_date              2018-12-19
_audit_creation_method            'Materials Studio'
_symmetry_space_group_name_H-M    'P1'
_symmetry_Int_Tables_number       1
_symmetry_cell_setting            triclinic
loop_
_symmetry_equiv_pos_as_xyz
  x,y,z
_cell_length_a                    9.4866
_cell_length_b                    11.6886
_cell_length_c                    23.3322
_cell_angle_alpha                 90.0000
_cell_angle_beta                  117.0219
_cell_angle_gamma                 90.0000
loop_
_atom_site_label
_atom_site_type_symbol
_atom_site_fract_x
_atom_site_fract_y
_atom_site_fract_z
_atom_site_U_iso_or_equiv
_atom_site_adp_type
_atom_site_occupancy
C1     C     0.79267   0.92815   0.15344   0.00000  Uiso   1.00
C2     C     0.94716   0.91418   0.14894   0.00000  Uiso   1.00
C3     C     0.98396   0.82449   0.11911   0.00000  Uiso   1.00
C4     C     0.13148   0.82733   0.12022   0.00000  Uiso   1.00
C5     C     0.35516   0.79201   0.10871   0.00000  Uiso   1.00
C6     C     0.83887   0.93834   0.22495   0.00000  Uiso   1.00
C7     C     0.78459   0.86898   0.25902   0.00000  Uiso   1.00
C8     C     0.84094   0.89217   0.32410   0.00000  Uiso   1.00
C9     C     0.89640   0.89443   0.43059   0.00000  Uiso   1.00
C10    C     0.72669   0.04466   0.12413   0.00000  Uiso   1.00
C11    C     0.57807   0.06472   0.07345   0.00000  Uiso   1.00
C12    C     0.53996   0.17743   0.05367   0.00000  Uiso   1.00
C13    C     0.42124   0.34477   0.00363   0.00000  Uiso   1.00
C14    C     0.98923   0.09267   0.20845   0.00000  Uiso   1.00
C15    C     0.05392   0.00354   0.17882   0.00000  Uiso   1.00
C16    C     0.20143   0.00652   0.17997   0.00000  Uiso   1.00
C17    C     0.23844   0.91685   0.15014   0.00000  Uiso   1.00
C18    C     0.94563   0.02770   0.25482   0.00000  Uiso   1.00
C19    C     0.00206   0.05101   0.31987   0.00000  Uiso   1.00
C20    C     0.94790   0.98170   0.35403   0.00000  Uiso   1.00
C21    C     0.83345   0.13403   0.15401   0.00000  Uiso   1.00
C22    C     0.79555   0.24674   0.13431   0.00000  Uiso   1.00
C23    C     0.64692   0.26695   0.08360   0.00000  Uiso   1.00
H24    H     0.70955   0.85858   0.13018   0.00000  Uiso   1.00
H25    H     0.90130   0.75535   0.09600   0.00000  Uiso   1.00
H26    H     0.70196   0.79984   0.23588   0.00000  Uiso   1.00
H27    H     0.49548   0.99554   0.05034   0.00000  Uiso   1.00
H28    H     0.16101   0.68028   0.07130   0.00000  Uiso   1.00
H29    H     0.74064   0.77413   0.36624   0.00000  Uiso   1.00
H30    H     0.30524   0.18680   0.97500   0.00000  Uiso   1.00
H31    H     0.07235   0.16224   0.23171   0.00000  Uiso   1.00
H32    H     0.28402   0.07568   0.20309   0.00000  Uiso   1.00
H33    H     0.08468   0.12017   0.34298   0.00000  Uiso   1.00
H34    H     0.87820   0.31587   0.15744   0.00000  Uiso   1.00
H35    H     0.47164   0.94027   0.15822   0.00000  Uiso   1.00
H36    H     0.05126   0.03412   0.45316   0.00000  Uiso   1.00
H37    H     0.61587   0.44679   0.06192   0.00000  Uiso   1.00
O38    O     0.44905   0.74783   0.09412   0.00000  Uiso   1.00
O39    O     0.89751   0.87097   0.48107   0.00000  Uiso   1.00
O40    O     0.32628   0.41238   0.96777   0.00000  Uiso   1.00
N41    N     0.20506   0.75336   0.09567   0.00000  Uiso   1.00
N42    N     0.81205   0.84109   0.37143   0.00000  Uiso   1.00
N43    N     0.40497   0.22691   0.00566   0.00000  Uiso   1.00
N44    N     0.37220   0.89326   0.14244   0.00000  Uiso   1.00
N45    N     0.97920   0.98099   0.41820   0.00000  Uiso   1.00
N46    N     0.57212   0.36681   0.05243   0.00000  Uiso   1.00
C47    C     0.20733   0.42815   0.34656   0.00000  Uiso   1.00
C48    C     0.05284   0.41418   0.35106   0.00000  Uiso   1.00
C49    C     0.01604   0.32449   0.38089   0.00000  Uiso   1.00
C50    C     0.86852   0.32733   0.37978   0.00000  Uiso   1.00
C51    C     0.64484   0.29201   0.39129   0.00000  Uiso   1.00
C52    C     0.16113   0.43834   0.27505   0.00000  Uiso   1.00
C53    C     0.21541   0.36898   0.24098   0.00000  Uiso   1.00
C54    C     0.15906   0.39217   0.17590   0.00000  Uiso   1.00
C55    C     0.10360   0.39443   0.06941   0.00000  Uiso   1.00
C56    C     0.27331   0.54466   0.37587   0.00000  Uiso   1.00
C57    C     0.42193   0.56472   0.42655   0.00000  Uiso   1.00
C58    C     0.46004   0.67743   0.44633   0.00000  Uiso   1.00
C59    C     0.57876   0.84477   0.49637   0.00000  Uiso   1.00
C60    C     0.01077   0.59267   0.29155   0.00000  Uiso   1.00
C61    C     0.94608   0.50354   0.32118   0.00000  Uiso   1.00
C62    C     0.79857   0.50652   0.32003   0.00000  Uiso   1.00
C63    C     0.76156   0.41685   0.34986   0.00000  Uiso   1.00
C64    C     0.05437   0.52770   0.24518   0.00000  Uiso   1.00
C65    C     0.99794   0.55101   0.18013   0.00000  Uiso   1.00
C66    C     0.05210   0.48170   0.14597   0.00000  Uiso   1.00
C67    C     0.16655   0.63403   0.34599   0.00000  Uiso   1.00
C68    C     0.20445   0.74674   0.36569   0.00000  Uiso   1.00
C69    C     0.35308   0.76695   0.41640   0.00000  Uiso   1.00
H70    H     0.29045   0.35858   0.36982   0.00000  Uiso   1.00
H71    H     0.09870   0.25535   0.40400   0.00000  Uiso   1.00
H72    H     0.29804   0.29984   0.26412   0.00000  Uiso   1.00
H73    H     0.50452   0.49554   0.44966   0.00000  Uiso   1.00
H74    H     0.83899   0.18028   0.42870   0.00000  Uiso   1.00
H75    H     0.25936   0.27413   0.13376   0.00000  Uiso   1.00
H76    H     0.69476   0.68680   0.52500   0.00000  Uiso   1.00
H77    H     0.92765   0.66224   0.26829   0.00000  Uiso   1.00
H78    H     0.71598   0.57568   0.29691   0.00000  Uiso   1.00
H79    H     0.91532   0.62017   0.15702   0.00000  Uiso   1.00
H80    H     0.12180   0.81587   0.34256   0.00000  Uiso   1.00
H81    H     0.52836   0.44027   0.34178   0.00000  Uiso   1.00
H82    H     0.94874   0.53412   0.04684   0.00000  Uiso   1.00
H83    H     0.38413   0.94679   0.43808   0.00000  Uiso   1.00
O84    O     0.55095   0.24783   0.40588   0.00000  Uiso   1.00
O85    O     0.10249   0.37097   0.01893   0.00000  Uiso   1.00
O86    O     0.67372   0.91238   0.53223   0.00000  Uiso   1.00
N87    N     0.79494   0.25336   0.40433   0.00000  Uiso   1.00
N88    N     0.18795   0.34109   0.12857   0.00000  Uiso   1.00
N89    N     0.59503   0.72691   0.49434   0.00000  Uiso   1.00
N90    N     0.62780   0.39326   0.35756   0.00000  Uiso   1.00
N91    N     0.02080   0.48099   0.08180   0.00000  Uiso   1.00
N92    N     0.42788   0.86681   0.44757   0.00000  Uiso   1.00
C93    C     0.20733   0.07185   0.84656   0.00000  Uiso   1.00
C94    C     0.05284   0.08582   0.85106   0.00000  Uiso   1.00
C95    C     0.01604   0.17551   0.88089   0.00000  Uiso   1.00
C96    C     0.86852   0.17267   0.87978   0.00000  Uiso   1.00
C97    C     0.64484   0.20799   0.89129   0.00000  Uiso   1.00
C98    C     0.16113   0.06166   0.77505   0.00000  Uiso   1.00
C99    C     0.21541   0.13102   0.74098   0.00000  Uiso   1.00
C100   C     0.15906   0.10783   0.67590   0.00000  Uiso   1.00
C101   C     0.10360   0.10557   0.56941   0.00000  Uiso   1.00
C102   C     0.27331   0.95534   0.87587   0.00000  Uiso   1.00
C103   C     0.42193   0.93528   0.92655   0.00000  Uiso   1.00
C104   C     0.46004   0.82257   0.94633   0.00000  Uiso   1.00
C105   C     0.57876   0.65523   0.99637   0.00000  Uiso   1.00
C106   C     0.01077   0.90733   0.79155   0.00000  Uiso   1.00
C107   C     0.94608   0.99646   0.82118   0.00000  Uiso   1.00
C108   C     0.79857   0.99348   0.82003   0.00000  Uiso   1.00
C109   C     0.76156   0.08315   0.84986   0.00000  Uiso   1.00
C110   C     0.05437   0.97230   0.74518   0.00000  Uiso   1.00
C111   C     0.99794   0.94899   0.68013   0.00000  Uiso   1.00
C112   C     0.05210   0.01830   0.64597   0.00000  Uiso   1.00
C113   C     0.16655   0.86597   0.84599   0.00000  Uiso   1.00
C114   C     0.20445   0.75326   0.86569   0.00000  Uiso   1.00
C115   C     0.35308   0.73305   0.91640   0.00000  Uiso   1.00
H116   H     0.29045   0.14142   0.86982   0.00000  Uiso   1.00
H117   H     0.09870   0.24465   0.90400   0.00000  Uiso   1.00
H118   H     0.29804   0.20016   0.76412   0.00000  Uiso   1.00
H119   H     0.50452   0.00446   0.94966   0.00000  Uiso   1.00
H120   H     0.83899   0.31972   0.92870   0.00000  Uiso   1.00
H121   H     0.25936   0.22587   0.63376   0.00000  Uiso   1.00
H122   H     0.69476   0.81320   0.02500   0.00000  Uiso   1.00
H123   H     0.92765   0.83776   0.76829   0.00000  Uiso   1.00
H124   H     0.71598   0.92432   0.79691   0.00000  Uiso   1.00
H125   H     0.91532   0.87983   0.65702   0.00000  Uiso   1.00
H126   H     0.12180   0.68413   0.84256   0.00000  Uiso   1.00
H127   H     0.52836   0.05973   0.84178   0.00000  Uiso   1.00
H128   H     0.94874   0.96588   0.54684   0.00000  Uiso   1.00
H129   H     0.38413   0.55321   0.93808   0.00000  Uiso   1.00
O130   O     0.55095   0.25217   0.90588   0.00000  Uiso   1.00
O131   O     0.10249   0.12903   0.51893   0.00000  Uiso   1.00
O132   O     0.67372   0.58762   0.03223   0.00000  Uiso   1.00
N133   N     0.79494   0.24664   0.90433   0.00000  Uiso   1.00
N134   N     0.18795   0.15891   0.62857   0.00000  Uiso   1.00
N135   N     0.59503   0.77309   0.99434   0.00000  Uiso   1.00
N136   N     0.62780   0.10674   0.85756   0.00000  Uiso   1.00
N137   N     0.02080   0.01901   0.58180   0.00000  Uiso   1.00
N138   N     0.42788   0.63319   0.94757   0.00000  Uiso   1.00
C139   C     0.79267   0.57185   0.65344   0.00000  Uiso   1.00
C140   C     0.94716   0.58582   0.64894   0.00000  Uiso   1.00
C141   C     0.98396   0.67551   0.61911   0.00000  Uiso   1.00
C142   C     0.13148   0.67267   0.62022   0.00000  Uiso   1.00
C143   C     0.35516   0.70799   0.60871   0.00000  Uiso   1.00
C144   C     0.83887   0.56166   0.72495   0.00000  Uiso   1.00
C145   C     0.78459   0.63102   0.75902   0.00000  Uiso   1.00
C146   C     0.84094   0.60783   0.82410   0.00000  Uiso   1.00
C147   C     0.89640   0.60557   0.93059   0.00000  Uiso   1.00
C148   C     0.72669   0.45534   0.62413   0.00000  Uiso   1.00
C149   C     0.57807   0.43528   0.57345   0.00000  Uiso   1.00
C150   C     0.53996   0.32257   0.55367   0.00000  Uiso   1.00
C151   C     0.42124   0.15523   0.50363   0.00000  Uiso   1.00
C152   C     0.98923   0.40733   0.70845   0.00000  Uiso   1.00
C153   C     0.05392   0.49646   0.67882   0.00000  Uiso   1.00
C154   C     0.20143   0.49348   0.67997   0.00000  Uiso   1.00
C155   C     0.23844   0.58315   0.65014   0.00000  Uiso   1.00
C156   C     0.94563   0.47230   0.75482   0.00000  Uiso   1.00
C157   C     0.00206   0.44899   0.81987   0.00000  Uiso   1.00
C158   C     0.94790   0.51830   0.85403   0.00000  Uiso   1.00
C159   C     0.83345   0.36597   0.65401   0.00000  Uiso   1.00
C160   C     0.79555   0.25326   0.63431   0.00000  Uiso   1.00
C161   C     0.64692   0.23305   0.58360   0.00000  Uiso   1.00
H162   H     0.70955   0.64142   0.63018   0.00000  Uiso   1.00
H163   H     0.90130   0.74465   0.59600   0.00000  Uiso   1.00
H164   H     0.70196   0.70016   0.73588   0.00000  Uiso   1.00
H165   H     0.49548   0.50446   0.55034   0.00000  Uiso   1.00
H166   H     0.16101   0.81972   0.57130   0.00000  Uiso   1.00
H167   H     0.74064   0.72587   0.86624   0.00000  Uiso   1.00
H168   H     0.30524   0.31320   0.47500   0.00000  Uiso   1.00
H169   H     0.07235   0.33776   0.73171   0.00000  Uiso   1.00
H170   H     0.28402   0.42432   0.70309   0.00000  Uiso   1.00
H171   H     0.08468   0.37983   0.84298   0.00000  Uiso   1.00
H172   H     0.87820   0.18413   0.65744   0.00000  Uiso   1.00
H173   H     0.47164   0.55973   0.65822   0.00000  Uiso   1.00
H174   H     0.05126   0.46588   0.95316   0.00000  Uiso   1.00
H175   H     0.61587   0.05321   0.56192   0.00000  Uiso   1.00
O176   O     0.44905   0.75217   0.59412   0.00000  Uiso   1.00
O177   O     0.89751   0.62903   0.98107   0.00000  Uiso   1.00
O178   O     0.32628   0.08762   0.46777   0.00000  Uiso   1.00
N179   N     0.20506   0.74664   0.59567   0.00000  Uiso   1.00
N180   N     0.81205   0.65891   0.87143   0.00000  Uiso   1.00
N181   N     0.40497   0.27309   0.50566   0.00000  Uiso   1.00
N182   N     0.37220   0.60674   0.64244   0.00000  Uiso   1.00
N183   N     0.97920   0.51901   0.91820   0.00000  Uiso   1.00
N184   N     0.57212   0.13319   0.55243   0.00000  Uiso   1.00
