data_job_06226
_audit_creation_date              2018-12-19
_audit_creation_method            'Materials Studio'
_symmetry_space_group_name_H-M    'P1'
_symmetry_Int_Tables_number       1
_symmetry_cell_setting            triclinic
loop_
_symmetry_equiv_pos_as_xyz
  x,y,z
_cell_length_a                    16.3683
_cell_length_b                    16.1217
_cell_length_c                    15.4697
_cell_angle_alpha                 89.3561
_cell_angle_beta                  89.3978
_cell_angle_gamma                 88.3712
loop_
_atom_site_label
_atom_site_type_symbol
_atom_site_fract_x
_atom_site_fract_y
_atom_site_fract_z
_atom_site_U_iso_or_equiv
_atom_site_adp_type
_atom_site_occupancy
C1     C     0.13187   0.20027   0.46827   0.00000  Uiso   1.00
C2     C     0.19656   0.13037   0.47122   0.00000  Uiso   1.00
C3     C     0.21492   0.07534   0.40499   0.00000  Uiso   1.00
C4     C     0.27613   0.01578   0.42036   0.00000  Uiso   1.00
C5     C     0.37027   0.90788   0.41298   0.00000  Uiso   1.00
C6     C     0.07486   0.18534   0.54514   0.00000  Uiso   1.00
C7     C     0.99090   0.17655   0.54104   0.00000  Uiso   1.00
C8     C     0.94967   0.16328   0.61864   0.00000  Uiso   1.00
C9     C     0.85486   0.14078   0.72602   0.00000  Uiso   1.00
C10    C     0.17629   0.27966   0.48788   0.00000  Uiso   1.00
C11    C     0.17759   0.35018   0.43566   0.00000  Uiso   1.00
C12    C     0.22174   0.41632   0.46507   0.00000  Uiso   1.00
C13    C     0.28442   0.54026   0.48354   0.00000  Uiso   1.00
C14    C     0.20793   0.19234   0.61336   0.00000  Uiso   1.00
C15    C     0.23788   0.12606   0.55003   0.00000  Uiso   1.00
C16    C     0.29908   0.06657   0.56551   0.00000  Uiso   1.00
C17    C     0.31753   0.01147   0.49931   0.00000  Uiso   1.00
C18    C     0.11618   0.18104   0.62394   0.00000  Uiso   1.00
C19    C     0.07506   0.16778   0.70157   0.00000  Uiso   1.00
C20    C     0.99106   0.15897   0.69759   0.00000  Uiso   1.00
C21    C     0.21761   0.27535   0.56669   0.00000  Uiso   1.00
C22    C     0.26176   0.34140   0.59618   0.00000  Uiso   1.00
C23    C     0.26313   0.41201   0.54401   0.00000  Uiso   1.00
H24    H     0.09969   0.20362   0.40692   0.00000  Uiso   1.00
H25    H     0.18292   0.07869   0.34401   0.00000  Uiso   1.00
H26    H     0.95894   0.17989   0.48005   0.00000  Uiso   1.00
H27    H     0.14561   0.35349   0.37468   0.00000  Uiso   1.00
H28    H     0.29340   0.93827   0.30903   0.00000  Uiso   1.00
H29    H     0.82112   0.15168   0.59588   0.00000  Uiso   1.00
H30    H     0.21474   0.51775   0.37369   0.00000  Uiso   1.00
H31    H     0.24010   0.18899   0.67472   0.00000  Uiso   1.00
H32    H     0.33104   0.06326   0.62650   0.00000  Uiso   1.00
H33    H     0.10705   0.16446   0.76254   0.00000  Uiso   1.00
H34    H     0.29373   0.33805   0.65717   0.00000  Uiso   1.00
H35    H     0.41362   0.92574   0.53831   0.00000  Uiso   1.00
H36    H     0.94133   0.13916   0.82516   0.00000  Uiso   1.00
H37    H     0.33496   0.50522   0.60297   0.00000  Uiso   1.00
O38    O     0.41078   0.84954   0.38714   0.00000  Uiso   1.00
O39    O     0.79116   0.12955   0.76347   0.00000  Uiso   1.00
O40    O     0.30759   0.60981   0.47195   0.00000  Uiso   1.00
N41    N     0.30923   0.95259   0.36960   0.00000  Uiso   1.00
N42    N     0.86767   0.15210   0.63779   0.00000  Uiso   1.00
N43    N     0.23566   0.49435   0.43007   0.00000  Uiso   1.00
N44    N     0.37391   0.94584   0.49298   0.00000  Uiso   1.00
N45    N     0.93235   0.14536   0.76116   0.00000  Uiso   1.00
N46    N     0.30035   0.48761   0.55344   0.00000  Uiso   1.00
C47    C     0.46891   0.13554   0.18694   0.00000  Uiso   1.00
C48    C     0.47130   0.20080   0.11490   0.00000  Uiso   1.00
C49    C     0.40889   0.21929   0.05717   0.00000  Uiso   1.00
C50    C     0.42298   0.28104   0.99598   0.00000  Uiso   1.00
C51    C     0.41547   0.37599   0.88459   0.00000  Uiso   1.00
C52    C     0.54255   0.07736   0.17141   0.00000  Uiso   1.00
C53    C     0.54004   0.99205   0.16121   0.00000  Uiso   1.00
C54    C     0.61412   0.94988   0.14759   0.00000  Uiso   1.00
C55    C     0.71723   0.85318   0.12400   0.00000  Uiso   1.00
C56    C     0.48609   0.18109   0.27039   0.00000  Uiso   1.00
C57    C     0.43612   0.18299   0.34342   0.00000  Uiso   1.00
C58    C     0.46268   0.22814   0.41315   0.00000  Uiso   1.00
C59    C     0.47813   0.29250   0.54322   0.00000  Uiso   1.00
C60    C     0.60492   0.21233   0.18093   0.00000  Uiso   1.00
C61    C     0.54518   0.24251   0.11164   0.00000  Uiso   1.00
C62    C     0.55937   0.30425   0.05052   0.00000  Uiso   1.00
C63    C     0.49699   0.32282   0.99271   0.00000  Uiso   1.00
C64    C     0.61643   0.11906   0.16814   0.00000  Uiso   1.00
C65    C     0.69053   0.07701   0.15455   0.00000  Uiso   1.00
C66    C     0.68813   0.99166   0.14432   0.00000  Uiso   1.00
C67    C     0.55997   0.22280   0.26712   0.00000  Uiso   1.00
C68    C     0.58661   0.26795   0.33675   0.00000  Uiso   1.00
C69    C     0.53669   0.26992   0.40987   0.00000  Uiso   1.00
H70    H     0.41139   0.10307   0.18949   0.00000  Uiso   1.00
H71    H     0.35172   0.18699   0.05972   0.00000  Uiso   1.00
H72    H     0.48286   0.95979   0.16375   0.00000  Uiso   1.00
H73    H     0.37896   0.15070   0.34592   0.00000  Uiso   1.00
H74    H     0.31816   0.29841   0.91439   0.00000  Uiso   1.00
H75    H     0.59467   0.81934   0.13376   0.00000  Uiso   1.00
H76    H     0.37557   0.22191   0.51792   0.00000  Uiso   1.00
H77    H     0.66245   0.24480   0.17838   0.00000  Uiso   1.00
H78    H     0.61655   0.33651   0.04800   0.00000  Uiso   1.00
H79    H     0.74769   0.10930   0.15203   0.00000  Uiso   1.00
H80    H     0.64378   0.30022   0.33420   0.00000  Uiso   1.00
H81    H     0.53311   0.41976   0.90487   0.00000  Uiso   1.00
H82    H     0.80962   0.94069   0.12425   0.00000  Uiso   1.00
H83    H     0.59052   0.34326   0.50840   0.00000  Uiso   1.00
O84    O     0.39092   0.41684   0.82405   0.00000  Uiso   1.00
O85    O     0.75369   0.78832   0.11187   0.00000  Uiso   1.00
O86    O     0.46624   0.31648   0.61587   0.00000  Uiso   1.00
N87    N     0.37504   0.31440   0.93005   0.00000  Uiso   1.00
N88    N     0.63356   0.86650   0.13514   0.00000  Uiso   1.00
N89    N     0.42873   0.24285   0.49430   0.00000  Uiso   1.00
N90    N     0.49070   0.37970   0.92493   0.00000  Uiso   1.00
N91    N     0.74922   0.93180   0.13002   0.00000  Uiso   1.00
N92    N     0.54439   0.30815   0.48918   0.00000  Uiso   1.00
C93    C     0.20764   0.46719   0.13014   0.00000  Uiso   1.00
C94    C     0.13897   0.47022   0.19751   0.00000  Uiso   1.00
C95    C     0.08522   0.40712   0.21550   0.00000  Uiso   1.00
C96    C     0.02665   0.42199   0.27946   0.00000  Uiso   1.00
C97    C     0.92069   0.41526   0.37730   0.00000  Uiso   1.00
C98    C     0.19233   0.54166   0.07024   0.00000  Uiso   1.00
C99    C     0.18344   0.53862   0.98122   0.00000  Uiso   1.00
C100   C     0.16980   0.61362   0.93804   0.00000  Uiso   1.00
C101   C     0.14674   0.71780   0.83828   0.00000  Uiso   1.00
C102   C     0.28585   0.48469   0.17857   0.00000  Uiso   1.00
C103   C     0.35562   0.43375   0.18062   0.00000  Uiso   1.00
C104   C     0.42073   0.46080   0.22864   0.00000  Uiso   1.00
C105   C     0.54287   0.47652   0.29708   0.00000  Uiso   1.00
C106   C     0.19922   0.60580   0.21173   0.00000  Uiso   1.00
C107   C     0.13440   0.54551   0.24183   0.00000  Uiso   1.00
C108   C     0.07590   0.56047   0.30578   0.00000  Uiso   1.00
C109   C     0.02207   0.49740   0.32386   0.00000  Uiso   1.00
C110   C     0.18775   0.61694   0.11456   0.00000  Uiso   1.00
C111   C     0.17413   0.69197   0.07150   0.00000  Uiso   1.00
C112   C     0.16522   0.68904   0.98244   0.00000  Uiso   1.00
C113   C     0.28128   0.55997   0.22290   0.00000  Uiso   1.00
C114   C     0.34630   0.58710   0.27091   0.00000  Uiso   1.00
C115   C     0.41614   0.53622   0.27303   0.00000  Uiso   1.00
H116   H     0.21120   0.40859   0.09563   0.00000  Uiso   1.00
H117   H     0.08877   0.34887   0.18118   0.00000  Uiso   1.00
H118   H     0.18699   0.48035   0.94694   0.00000  Uiso   1.00
H119   H     0.35913   0.37550   0.14632   0.00000  Uiso   1.00
H120   H     0.95099   0.31589   0.29556   0.00000  Uiso   1.00
H121   H     0.15813   0.59311   0.80164   0.00000  Uiso   1.00
H122   H     0.52112   0.37202   0.22206   0.00000  Uiso   1.00
H123   H     0.19567   0.66441   0.24624   0.00000  Uiso   1.00
H124   H     0.07238   0.61874   0.34006   0.00000  Uiso   1.00
H125   H     0.17060   0.75021   0.10582   0.00000  Uiso   1.00
H126   H     0.34274   0.64537   0.30519   0.00000  Uiso   1.00
H127   H     0.93769   0.53492   0.42451   0.00000  Uiso   1.00
H128   H     0.14482   0.81214   0.93059   0.00000  Uiso   1.00
H129   H     0.50782   0.59105   0.35101   0.00000  Uiso   1.00
O130   O     0.86350   0.39075   0.41901   0.00000  Uiso   1.00
O131   O     0.13527   0.75446   0.77101   0.00000  Uiso   1.00
O132   O     0.61151   0.46439   0.32260   0.00000  Uiso   1.00
N133   N     0.96479   0.37370   0.31304   0.00000  Uiso   1.00
N134   N     0.15843   0.63288   0.85126   0.00000  Uiso   1.00
N135   N     0.49782   0.42619   0.24430   0.00000  Uiso   1.00
N136   N     0.95763   0.49156   0.38243   0.00000  Uiso   1.00
N137   N     0.15128   0.75074   0.92065   0.00000  Uiso   1.00
N138   N     0.49066   0.54405   0.31369   0.00000  Uiso   1.00
C139   C     0.86813   0.79973   0.53173   0.00000  Uiso   1.00
C140   C     0.80344   0.86963   0.52878   0.00000  Uiso   1.00
C141   C     0.78508   0.92466   0.59501   0.00000  Uiso   1.00
C142   C     0.72387   0.98422   0.57964   0.00000  Uiso   1.00
C143   C     0.62973   0.09212   0.58702   0.00000  Uiso   1.00
C144   C     0.92513   0.81466   0.45486   0.00000  Uiso   1.00
C145   C     0.00910   0.82345   0.45896   0.00000  Uiso   1.00
C146   C     0.05033   0.83672   0.38136   0.00000  Uiso   1.00
C147   C     0.14514   0.85922   0.27398   0.00000  Uiso   1.00
C148   C     0.82371   0.72034   0.51212   0.00000  Uiso   1.00
C149   C     0.82241   0.64982   0.56434   0.00000  Uiso   1.00
C150   C     0.77826   0.58368   0.53493   0.00000  Uiso   1.00
C151   C     0.71558   0.45974   0.51646   0.00000  Uiso   1.00
C152   C     0.79206   0.80766   0.38664   0.00000  Uiso   1.00
C153   C     0.76212   0.87394   0.44997   0.00000  Uiso   1.00
C154   C     0.70092   0.93343   0.43449   0.00000  Uiso   1.00
C155   C     0.68247   0.98853   0.50069   0.00000  Uiso   1.00
C156   C     0.88382   0.81896   0.37606   0.00000  Uiso   1.00
C157   C     0.92494   0.83222   0.29843   0.00000  Uiso   1.00
C158   C     0.00894   0.84103   0.30241   0.00000  Uiso   1.00
C159   C     0.78239   0.72465   0.43331   0.00000  Uiso   1.00
C160   C     0.73824   0.65860   0.40382   0.00000  Uiso   1.00
C161   C     0.73687   0.58799   0.45599   0.00000  Uiso   1.00
H162   H     0.90031   0.79638   0.59308   0.00000  Uiso   1.00
H163   H     0.81708   0.92131   0.65599   0.00000  Uiso   1.00
H164   H     0.04106   0.82011   0.51995   0.00000  Uiso   1.00
H165   H     0.85439   0.64651   0.62532   0.00000  Uiso   1.00
H166   H     0.70660   0.06173   0.69097   0.00000  Uiso   1.00
H167   H     0.17888   0.84832   0.40412   0.00000  Uiso   1.00
H168   H     0.78526   0.48225   0.62631   0.00000  Uiso   1.00
H169   H     0.75990   0.81101   0.32528   0.00000  Uiso   1.00
H170   H     0.66896   0.93674   0.37350   0.00000  Uiso   1.00
H171   H     0.89294   0.83554   0.23746   0.00000  Uiso   1.00
H172   H     0.70627   0.66195   0.34283   0.00000  Uiso   1.00
H173   H     0.58638   0.07426   0.46169   0.00000  Uiso   1.00
H174   H     0.05867   0.86084   0.17484   0.00000  Uiso   1.00
H175   H     0.66504   0.49478   0.39703   0.00000  Uiso   1.00
O176   O     0.58922   0.15046   0.61286   0.00000  Uiso   1.00
O177   O     0.20884   0.87045   0.23653   0.00000  Uiso   1.00
O178   O     0.69241   0.39019   0.52805   0.00000  Uiso   1.00
N179   N     0.69077   0.04741   0.63040   0.00000  Uiso   1.00
N180   N     0.13233   0.84790   0.36221   0.00000  Uiso   1.00
N181   N     0.76434   0.50565   0.56993   0.00000  Uiso   1.00
N182   N     0.62609   0.05416   0.50702   0.00000  Uiso   1.00
N183   N     0.06765   0.85464   0.23884   0.00000  Uiso   1.00
N184   N     0.69965   0.51239   0.44656   0.00000  Uiso   1.00
C185   C     0.53109   0.86446   0.81306   0.00000  Uiso   1.00
C186   C     0.52870   0.79920   0.88510   0.00000  Uiso   1.00
C187   C     0.59111   0.78071   0.94282   0.00000  Uiso   1.00
C188   C     0.57702   0.71896   0.00402   0.00000  Uiso   1.00
C189   C     0.58453   0.62401   0.11541   0.00000  Uiso   1.00
C190   C     0.45745   0.92264   0.82859   0.00000  Uiso   1.00
C191   C     0.45996   0.00795   0.83879   0.00000  Uiso   1.00
C192   C     0.38588   0.05012   0.85240   0.00000  Uiso   1.00
C193   C     0.28277   0.14682   0.87600   0.00000  Uiso   1.00
C194   C     0.51391   0.81891   0.72961   0.00000  Uiso   1.00
C195   C     0.56388   0.81701   0.65658   0.00000  Uiso   1.00
C196   C     0.53732   0.77186   0.58685   0.00000  Uiso   1.00
C197   C     0.52187   0.70750   0.45678   0.00000  Uiso   1.00
C198   C     0.39507   0.78767   0.81907   0.00000  Uiso   1.00
C199   C     0.45482   0.75749   0.88836   0.00000  Uiso   1.00
C200   C     0.44063   0.69575   0.94948   0.00000  Uiso   1.00
C201   C     0.50301   0.67718   0.00729   0.00000  Uiso   1.00
C202   C     0.38357   0.88094   0.83186   0.00000  Uiso   1.00
C203   C     0.30947   0.92299   0.84545   0.00000  Uiso   1.00
C204   C     0.31187   0.00834   0.85568   0.00000  Uiso   1.00
C205   C     0.44003   0.77720   0.73288   0.00000  Uiso   1.00
C206   C     0.41339   0.73205   0.66325   0.00000  Uiso   1.00
C207   C     0.46331   0.73008   0.59013   0.00000  Uiso   1.00
H208   H     0.58861   0.89693   0.81051   0.00000  Uiso   1.00
H209   H     0.64828   0.81301   0.94028   0.00000  Uiso   1.00
H210   H     0.51714   0.04021   0.83625   0.00000  Uiso   1.00
H211   H     0.62104   0.84930   0.65408   0.00000  Uiso   1.00
H212   H     0.68184   0.70159   0.08561   0.00000  Uiso   1.00
H213   H     0.40533   0.18066   0.86624   0.00000  Uiso   1.00
H214   H     0.62443   0.77809   0.48208   0.00000  Uiso   1.00
H215   H     0.33755   0.75520   0.82161   0.00000  Uiso   1.00
H216   H     0.38345   0.66349   0.95199   0.00000  Uiso   1.00
H217   H     0.25231   0.89070   0.84797   0.00000  Uiso   1.00
H218   H     0.35622   0.69978   0.66580   0.00000  Uiso   1.00
H219   H     0.46689   0.58024   0.09513   0.00000  Uiso   1.00
H220   H     0.19038   0.05931   0.87575   0.00000  Uiso   1.00
H221   H     0.40948   0.65674   0.49160   0.00000  Uiso   1.00
O222   O     0.60908   0.58316   0.17595   0.00000  Uiso   1.00
O223   O     0.24631   0.21168   0.88813   0.00000  Uiso   1.00
O224   O     0.53376   0.68352   0.38413   0.00000  Uiso   1.00
N225   N     0.62496   0.68560   0.06995   0.00000  Uiso   1.00
N226   N     0.36644   0.13350   0.86486   0.00000  Uiso   1.00
N227   N     0.57127   0.75715   0.50570   0.00000  Uiso   1.00
N228   N     0.50930   0.62030   0.07507   0.00000  Uiso   1.00
N229   N     0.25078   0.06821   0.86998   0.00000  Uiso   1.00
N230   N     0.45561   0.69185   0.51082   0.00000  Uiso   1.00
C231   C     0.79236   0.53281   0.86986   0.00000  Uiso   1.00
C232   C     0.86103   0.52978   0.80249   0.00000  Uiso   1.00
C233   C     0.91478   0.59288   0.78450   0.00000  Uiso   1.00
C234   C     0.97335   0.57801   0.72054   0.00000  Uiso   1.00
C235   C     0.07931   0.58474   0.62270   0.00000  Uiso   1.00
C236   C     0.80767   0.45834   0.92976   0.00000  Uiso   1.00
C237   C     0.81656   0.46138   0.01878   0.00000  Uiso   1.00
C238   C     0.83020   0.38638   0.06196   0.00000  Uiso   1.00
C239   C     0.85326   0.28220   0.16172   0.00000  Uiso   1.00
C240   C     0.71415   0.51531   0.82143   0.00000  Uiso   1.00
C241   C     0.64438   0.56625   0.81938   0.00000  Uiso   1.00
C242   C     0.57927   0.53920   0.77136   0.00000  Uiso   1.00
C243   C     0.45713   0.52348   0.70292   0.00000  Uiso   1.00
C244   C     0.80077   0.39420   0.78826   0.00000  Uiso   1.00
C245   C     0.86560   0.45449   0.75817   0.00000  Uiso   1.00
C246   C     0.92410   0.43953   0.69422   0.00000  Uiso   1.00
C247   C     0.97793   0.50260   0.67614   0.00000  Uiso   1.00
C248   C     0.81225   0.38306   0.88544   0.00000  Uiso   1.00
C249   C     0.82587   0.30803   0.92850   0.00000  Uiso   1.00
C250   C     0.83478   0.31096   0.01756   0.00000  Uiso   1.00
C251   C     0.71872   0.44003   0.77710   0.00000  Uiso   1.00
C252   C     0.65370   0.41290   0.72909   0.00000  Uiso   1.00
C253   C     0.58386   0.46378   0.72697   0.00000  Uiso   1.00
H254   H     0.78880   0.59141   0.90437   0.00000  Uiso   1.00
H255   H     0.91123   0.65113   0.81882   0.00000  Uiso   1.00
H256   H     0.81301   0.51965   0.05306   0.00000  Uiso   1.00
H257   H     0.64087   0.62450   0.85368   0.00000  Uiso   1.00
H258   H     0.04901   0.68411   0.70444   0.00000  Uiso   1.00
H259   H     0.84187   0.40689   0.19836   0.00000  Uiso   1.00
H260   H     0.47888   0.62798   0.77793   0.00000  Uiso   1.00
H261   H     0.80433   0.33559   0.75376   0.00000  Uiso   1.00
H262   H     0.92762   0.38126   0.65994   0.00000  Uiso   1.00
H263   H     0.82940   0.24979   0.89418   0.00000  Uiso   1.00
H264   H     0.65726   0.35463   0.69481   0.00000  Uiso   1.00
H265   H     0.06231   0.46508   0.57549   0.00000  Uiso   1.00
H266   H     0.85518   0.18786   0.06941   0.00000  Uiso   1.00
H267   H     0.49218   0.40895   0.64899   0.00000  Uiso   1.00
O268   O     0.13650   0.60925   0.58099   0.00000  Uiso   1.00
O269   O     0.86473   0.24554   0.22899   0.00000  Uiso   1.00
O270   O     0.38849   0.53561   0.67740   0.00000  Uiso   1.00
N271   N     0.03521   0.62630   0.68696   0.00000  Uiso   1.00
N272   N     0.84157   0.36712   0.14874   0.00000  Uiso   1.00
N273   N     0.50218   0.57381   0.75570   0.00000  Uiso   1.00
N274   N     0.04237   0.50844   0.61757   0.00000  Uiso   1.00
N275   N     0.84872   0.24926   0.07935   0.00000  Uiso   1.00
N276   N     0.50934   0.45595   0.68631   0.00000  Uiso   1.00
