data_job_05588
_audit_creation_date              2018-12-19
_audit_creation_method            'Materials Studio'
_symmetry_space_group_name_H-M    'P1'
_symmetry_Int_Tables_number       1
_symmetry_cell_setting            triclinic
loop_
_symmetry_equiv_pos_as_xyz
  x,y,z
_cell_length_a                    19.4212
_cell_length_b                    19.4212
_cell_length_c                    15.0463
_cell_angle_alpha                 90.0000
_cell_angle_beta                  90.0000
_cell_angle_gamma                 90.0000
loop_
_atom_site_label
_atom_site_type_symbol
_atom_site_fract_x
_atom_site_fract_y
_atom_site_fract_z
_atom_site_U_iso_or_equiv
_atom_site_adp_type
_atom_site_occupancy
C1     C     0.51643   0.73077   0.90780   0.00000  Uiso   1.00
C2     C     0.56520   0.77175   0.96705   0.00000  Uiso   1.00
C3     C     0.56017   0.77817   0.05868   0.00000  Uiso   1.00
C4     C     0.60985   0.81794   0.10073   0.00000  Uiso   1.00
C5     C     0.67753   0.87670   0.20002   0.00000  Uiso   1.00
C6     C     0.48934   0.78142   0.83870   0.00000  Uiso   1.00
C7     C     0.42053   0.79597   0.82241   0.00000  Uiso   1.00
C8     C     0.40635   0.84387   0.75641   0.00000  Uiso   1.00
C9     C     0.35625   0.91762   0.65639   0.00000  Uiso   1.00
C10    C     0.56135   0.67970   0.85714   0.00000  Uiso   1.00
C11    C     0.55307   0.60873   0.85634   0.00000  Uiso   1.00
C12    C     0.59950   0.57099   0.80584   0.00000  Uiso   1.00
C13    C     0.66120   0.48681   0.73446   0.00000  Uiso   1.00
C14    C     0.61361   0.78996   0.81953   0.00000  Uiso   1.00
C15    C     0.61799   0.80390   0.91910   0.00000  Uiso   1.00
C16    C     0.66769   0.84366   0.96102   0.00000  Uiso   1.00
C17    C     0.66273   0.85014   0.05270   0.00000  Uiso   1.00
C18    C     0.54212   0.81357   0.79076   0.00000  Uiso   1.00
C19    C     0.52804   0.86146   0.72476   0.00000  Uiso   1.00
C20    C     0.45923   0.87608   0.70837   0.00000  Uiso   1.00
C21    C     0.61413   0.71185   0.80920   0.00000  Uiso   1.00
C22    C     0.66059   0.67422   0.75868   0.00000  Uiso   1.00
C23    C     0.65238   0.60320   0.75780   0.00000  Uiso   1.00
H24    H     0.47534   0.70574   0.94512   0.00000  Uiso   1.00
H25    H     0.51931   0.75329   0.09576   0.00000  Uiso   1.00
H26    H     0.37969   0.77108   0.85952   0.00000  Uiso   1.00
H27    H     0.51221   0.58387   0.89345   0.00000  Uiso   1.00
H28    H     0.59133   0.82020   0.24163   0.00000  Uiso   1.00
H29    H     0.29693   0.85770   0.74349   0.00000  Uiso   1.00
H30    H     0.57638   0.46293   0.81502   0.00000  Uiso   1.00
H31    H     0.65471   0.81499   0.78220   0.00000  Uiso   1.00
H32    H     0.70853   0.86854   0.92390   0.00000  Uiso   1.00
H33    H     0.56891   0.88633   0.68766   0.00000  Uiso   1.00
H34    H     0.70143   0.69912   0.72159   0.00000  Uiso   1.00
H35    H     0.74491   0.91375   0.10214   0.00000  Uiso   1.00
H36    H     0.45050   0.95124   0.60399   0.00000  Uiso   1.00
H37    H     0.72995   0.55647   0.67553   0.00000  Uiso   1.00
O38    O     0.70027   0.90025   0.26804   0.00000  Uiso   1.00
O39    O     0.31403   0.94943   0.61448   0.00000  Uiso   1.00
O40    O     0.68066   0.43150   0.70834   0.00000  Uiso   1.00
N41    N     0.62010   0.83486   0.18935   0.00000  Uiso   1.00
N42    N     0.34485   0.86992   0.72363   0.00000  Uiso   1.00
N43    N     0.60610   0.50085   0.79049   0.00000  Uiso   1.00
N44    N     0.70273   0.88519   0.11430   0.00000  Uiso   1.00
N45    N     0.42749   0.92026   0.64857   0.00000  Uiso   1.00
N46    N     0.68874   0.55118   0.71543   0.00000  Uiso   1.00
C47    C     0.48357   0.26923   0.40780   0.00000  Uiso   1.00
C48    C     0.43480   0.22825   0.46705   0.00000  Uiso   1.00
C49    C     0.43983   0.22183   0.55868   0.00000  Uiso   1.00
C50    C     0.39015   0.18206   0.60073   0.00000  Uiso   1.00
C51    C     0.32247   0.12330   0.70002   0.00000  Uiso   1.00
C52    C     0.51066   0.21858   0.33870   0.00000  Uiso   1.00
C53    C     0.57947   0.20403   0.32241   0.00000  Uiso   1.00
C54    C     0.59365   0.15613   0.25641   0.00000  Uiso   1.00
C55    C     0.64375   0.08238   0.15639   0.00000  Uiso   1.00
C56    C     0.43865   0.32030   0.35714   0.00000  Uiso   1.00
C57    C     0.44693   0.39127   0.35634   0.00000  Uiso   1.00
C58    C     0.40050   0.42901   0.30584   0.00000  Uiso   1.00
C59    C     0.33880   0.51319   0.23446   0.00000  Uiso   1.00
C60    C     0.38639   0.21004   0.31953   0.00000  Uiso   1.00
C61    C     0.38201   0.19610   0.41910   0.00000  Uiso   1.00
C62    C     0.33231   0.15634   0.46102   0.00000  Uiso   1.00
C63    C     0.33727   0.14986   0.55270   0.00000  Uiso   1.00
C64    C     0.45788   0.18643   0.29076   0.00000  Uiso   1.00
C65    C     0.47196   0.13854   0.22476   0.00000  Uiso   1.00
C66    C     0.54077   0.12392   0.20837   0.00000  Uiso   1.00
C67    C     0.38587   0.28815   0.30920   0.00000  Uiso   1.00
C68    C     0.33941   0.32578   0.25868   0.00000  Uiso   1.00
C69    C     0.34762   0.39680   0.25780   0.00000  Uiso   1.00
H70    H     0.52466   0.29426   0.44512   0.00000  Uiso   1.00
H71    H     0.48069   0.24671   0.59576   0.00000  Uiso   1.00
H72    H     0.62031   0.22892   0.35952   0.00000  Uiso   1.00
H73    H     0.48779   0.41613   0.39345   0.00000  Uiso   1.00
H74    H     0.40867   0.17980   0.74163   0.00000  Uiso   1.00
H75    H     0.70307   0.14230   0.24349   0.00000  Uiso   1.00
H76    H     0.42362   0.53707   0.31502   0.00000  Uiso   1.00
H77    H     0.34529   0.18501   0.28220   0.00000  Uiso   1.00
H78    H     0.29147   0.13146   0.42390   0.00000  Uiso   1.00
H79    H     0.43109   0.11367   0.18766   0.00000  Uiso   1.00
H80    H     0.29857   0.30088   0.22159   0.00000  Uiso   1.00
H81    H     0.25509   0.08625   0.60214   0.00000  Uiso   1.00
H82    H     0.54950   0.04876   0.10399   0.00000  Uiso   1.00
H83    H     0.27005   0.44353   0.17553   0.00000  Uiso   1.00
O84    O     0.29973   0.09975   0.76804   0.00000  Uiso   1.00
O85    O     0.68597   0.05057   0.11448   0.00000  Uiso   1.00
O86    O     0.31934   0.56850   0.20834   0.00000  Uiso   1.00
N87    N     0.37990   0.16514   0.68935   0.00000  Uiso   1.00
N88    N     0.65515   0.13008   0.22363   0.00000  Uiso   1.00
N89    N     0.39390   0.49915   0.29049   0.00000  Uiso   1.00
N90    N     0.29727   0.11481   0.61430   0.00000  Uiso   1.00
N91    N     0.57251   0.07974   0.14857   0.00000  Uiso   1.00
N92    N     0.31126   0.44882   0.21543   0.00000  Uiso   1.00
C93    C     0.76923   0.01643   0.65780   0.00000  Uiso   1.00
C94    C     0.72825   0.06520   0.71705   0.00000  Uiso   1.00
C95    C     0.72183   0.06017   0.80868   0.00000  Uiso   1.00
C96    C     0.68206   0.10985   0.85073   0.00000  Uiso   1.00
C97    C     0.62330   0.17753   0.95002   0.00000  Uiso   1.00
C98    C     0.71858   0.98934   0.58870   0.00000  Uiso   1.00
C99    C     0.70403   0.92053   0.57241   0.00000  Uiso   1.00
C100   C     0.65613   0.90635   0.50641   0.00000  Uiso   1.00
C101   C     0.58238   0.85625   0.40639   0.00000  Uiso   1.00
C102   C     0.82030   0.06135   0.60714   0.00000  Uiso   1.00
C103   C     0.89127   0.05307   0.60634   0.00000  Uiso   1.00
C104   C     0.92901   0.09950   0.55584   0.00000  Uiso   1.00
C105   C     0.01319   0.16120   0.48446   0.00000  Uiso   1.00
C106   C     0.71004   0.11361   0.56953   0.00000  Uiso   1.00
C107   C     0.69610   0.11799   0.66910   0.00000  Uiso   1.00
C108   C     0.65634   0.16769   0.71102   0.00000  Uiso   1.00
C109   C     0.64986   0.16273   0.80270   0.00000  Uiso   1.00
C110   C     0.68643   0.04212   0.54076   0.00000  Uiso   1.00
C111   C     0.63854   0.02804   0.47476   0.00000  Uiso   1.00
C112   C     0.62392   0.95923   0.45837   0.00000  Uiso   1.00
C113   C     0.78815   0.11413   0.55920   0.00000  Uiso   1.00
C114   C     0.82578   0.16059   0.50868   0.00000  Uiso   1.00
C115   C     0.89680   0.15238   0.50780   0.00000  Uiso   1.00
H116   H     0.79426   0.97534   0.69512   0.00000  Uiso   1.00
H117   H     0.74671   0.01931   0.84576   0.00000  Uiso   1.00
H118   H     0.72892   0.87969   0.60952   0.00000  Uiso   1.00
H119   H     0.91613   0.01221   0.64345   0.00000  Uiso   1.00
H120   H     0.67980   0.09133   0.99163   0.00000  Uiso   1.00
H121   H     0.64230   0.79693   0.49349   0.00000  Uiso   1.00
H122   H     0.03707   0.07638   0.56502   0.00000  Uiso   1.00
H123   H     0.68501   0.15471   0.53220   0.00000  Uiso   1.00
H124   H     0.63146   0.20853   0.67390   0.00000  Uiso   1.00
H125   H     0.61367   0.06891   0.43766   0.00000  Uiso   1.00
H126   H     0.80088   0.20143   0.47159   0.00000  Uiso   1.00
H127   H     0.58625   0.24491   0.85214   0.00000  Uiso   1.00
H128   H     0.54876   0.95050   0.35399   0.00000  Uiso   1.00
H129   H     0.94353   0.22995   0.42553   0.00000  Uiso   1.00
O130   O     0.59975   0.20027   0.01804   0.00000  Uiso   1.00
O131   O     0.55057   0.81403   0.36448   0.00000  Uiso   1.00
O132   O     0.06850   0.18066   0.45834   0.00000  Uiso   1.00
N133   N     0.66514   0.12010   0.93935   0.00000  Uiso   1.00
N134   N     0.63008   0.84485   0.47363   0.00000  Uiso   1.00
N135   N     0.99915   0.10610   0.54049   0.00000  Uiso   1.00
N136   N     0.61481   0.20273   0.86430   0.00000  Uiso   1.00
N137   N     0.57974   0.92749   0.39857   0.00000  Uiso   1.00
N138   N     0.94882   0.18874   0.46543   0.00000  Uiso   1.00
C139   C     0.23077   0.98357   0.15780   0.00000  Uiso   1.00
C140   C     0.27175   0.93480   0.21705   0.00000  Uiso   1.00
C141   C     0.27817   0.93983   0.30868   0.00000  Uiso   1.00
C142   C     0.31794   0.89015   0.35073   0.00000  Uiso   1.00
C143   C     0.37670   0.82247   0.45002   0.00000  Uiso   1.00
C144   C     0.28142   0.01066   0.08870   0.00000  Uiso   1.00
C145   C     0.29597   0.07947   0.07241   0.00000  Uiso   1.00
C146   C     0.34387   0.09365   0.00641   0.00000  Uiso   1.00
C147   C     0.41762   0.14375   0.90639   0.00000  Uiso   1.00
C148   C     0.17970   0.93865   0.10714   0.00000  Uiso   1.00
C149   C     0.10873   0.94693   0.10634   0.00000  Uiso   1.00
C150   C     0.07099   0.90050   0.05584   0.00000  Uiso   1.00
C151   C     0.98681   0.83880   0.98446   0.00000  Uiso   1.00
C152   C     0.28996   0.88639   0.06953   0.00000  Uiso   1.00
C153   C     0.30390   0.88201   0.16910   0.00000  Uiso   1.00
C154   C     0.34366   0.83231   0.21102   0.00000  Uiso   1.00
C155   C     0.35014   0.83727   0.30270   0.00000  Uiso   1.00
C156   C     0.31357   0.95788   0.04076   0.00000  Uiso   1.00
C157   C     0.36146   0.97196   0.97476   0.00000  Uiso   1.00
C158   C     0.37608   0.04077   0.95837   0.00000  Uiso   1.00
C159   C     0.21185   0.88587   0.05920   0.00000  Uiso   1.00
C160   C     0.17422   0.83941   0.00868   0.00000  Uiso   1.00
C161   C     0.10320   0.84762   0.00780   0.00000  Uiso   1.00
H162   H     0.20574   0.02466   0.19512   0.00000  Uiso   1.00
H163   H     0.25329   0.98069   0.34576   0.00000  Uiso   1.00
H164   H     0.27108   0.12031   0.10952   0.00000  Uiso   1.00
H165   H     0.08387   0.98779   0.14345   0.00000  Uiso   1.00
H166   H     0.32020   0.90867   0.49163   0.00000  Uiso   1.00
H167   H     0.35770   0.20307   0.99349   0.00000  Uiso   1.00
H168   H     0.96293   0.92362   0.06502   0.00000  Uiso   1.00
H169   H     0.31499   0.84529   0.03220   0.00000  Uiso   1.00
H170   H     0.36854   0.79147   0.17390   0.00000  Uiso   1.00
H171   H     0.38633   0.93109   0.93766   0.00000  Uiso   1.00
H172   H     0.19912   0.79857   0.97159   0.00000  Uiso   1.00
H173   H     0.41375   0.75509   0.35214   0.00000  Uiso   1.00
H174   H     0.45124   0.04950   0.85399   0.00000  Uiso   1.00
H175   H     0.05647   0.77005   0.92553   0.00000  Uiso   1.00
O176   O     0.40025   0.79973   0.51804   0.00000  Uiso   1.00
O177   O     0.44943   0.18597   0.86448   0.00000  Uiso   1.00
O178   O     0.93150   0.81934   0.95834   0.00000  Uiso   1.00
N179   N     0.33486   0.87990   0.43935   0.00000  Uiso   1.00
N180   N     0.36992   0.15515   0.97363   0.00000  Uiso   1.00
N181   N     0.00085   0.89390   0.04049   0.00000  Uiso   1.00
N182   N     0.38519   0.79727   0.36430   0.00000  Uiso   1.00
N183   N     0.42026   0.07251   0.89857   0.00000  Uiso   1.00
N184   N     0.05118   0.81126   0.96543   0.00000  Uiso   1.00
C185   C     0.98357   0.23077   0.84220   0.00000  Uiso   1.00
C186   C     0.93480   0.27175   0.78295   0.00000  Uiso   1.00
C187   C     0.93983   0.27817   0.69132   0.00000  Uiso   1.00
C188   C     0.89015   0.31794   0.64927   0.00000  Uiso   1.00
C189   C     0.82247   0.37670   0.54998   0.00000  Uiso   1.00
C190   C     0.01066   0.28142   0.91130   0.00000  Uiso   1.00
C191   C     0.07947   0.29597   0.92759   0.00000  Uiso   1.00
C192   C     0.09365   0.34387   0.99359   0.00000  Uiso   1.00
C193   C     0.14375   0.41762   0.09361   0.00000  Uiso   1.00
C194   C     0.93865   0.17970   0.89286   0.00000  Uiso   1.00
C195   C     0.94693   0.10873   0.89366   0.00000  Uiso   1.00
C196   C     0.90050   0.07099   0.94416   0.00000  Uiso   1.00
C197   C     0.83880   0.98681   0.01554   0.00000  Uiso   1.00
C198   C     0.88639   0.28996   0.93047   0.00000  Uiso   1.00
C199   C     0.88201   0.30390   0.83090   0.00000  Uiso   1.00
C200   C     0.83231   0.34366   0.78898   0.00000  Uiso   1.00
C201   C     0.83727   0.35014   0.69730   0.00000  Uiso   1.00
C202   C     0.95788   0.31357   0.95924   0.00000  Uiso   1.00
C203   C     0.97196   0.36146   0.02524   0.00000  Uiso   1.00
C204   C     0.04077   0.37608   0.04163   0.00000  Uiso   1.00
C205   C     0.88587   0.21185   0.94080   0.00000  Uiso   1.00
C206   C     0.83941   0.17422   0.99132   0.00000  Uiso   1.00
C207   C     0.84762   0.10320   0.99220   0.00000  Uiso   1.00
H208   H     0.02466   0.20574   0.80488   0.00000  Uiso   1.00
H209   H     0.98069   0.25329   0.65424   0.00000  Uiso   1.00
H210   H     0.12031   0.27108   0.89048   0.00000  Uiso   1.00
H211   H     0.98779   0.08387   0.85655   0.00000  Uiso   1.00
H212   H     0.90867   0.32020   0.50837   0.00000  Uiso   1.00
H213   H     0.20307   0.35770   0.00651   0.00000  Uiso   1.00
H214   H     0.92362   0.96293   0.93498   0.00000  Uiso   1.00
H215   H     0.84529   0.31499   0.96780   0.00000  Uiso   1.00
H216   H     0.79147   0.36854   0.82610   0.00000  Uiso   1.00
H217   H     0.93109   0.38633   0.06234   0.00000  Uiso   1.00
H218   H     0.79857   0.19912   0.02841   0.00000  Uiso   1.00
H219   H     0.75509   0.41375   0.64786   0.00000  Uiso   1.00
H220   H     0.04950   0.45124   0.14601   0.00000  Uiso   1.00
H221   H     0.77005   0.05647   0.07447   0.00000  Uiso   1.00
O222   O     0.79973   0.40025   0.48196   0.00000  Uiso   1.00
O223   O     0.18597   0.44943   0.13552   0.00000  Uiso   1.00
O224   O     0.81934   0.93150   0.04166   0.00000  Uiso   1.00
N225   N     0.87990   0.33486   0.56065   0.00000  Uiso   1.00
N226   N     0.15515   0.36992   0.02637   0.00000  Uiso   1.00
N227   N     0.89390   0.00085   0.95951   0.00000  Uiso   1.00
N228   N     0.79727   0.38519   0.63570   0.00000  Uiso   1.00
N229   N     0.07251   0.42026   0.10143   0.00000  Uiso   1.00
N230   N     0.81126   0.05118   0.03457   0.00000  Uiso   1.00
C231   C     0.01643   0.76923   0.34220   0.00000  Uiso   1.00
C232   C     0.06520   0.72825   0.28295   0.00000  Uiso   1.00
C233   C     0.06017   0.72183   0.19132   0.00000  Uiso   1.00
C234   C     0.10985   0.68206   0.14927   0.00000  Uiso   1.00
C235   C     0.17753   0.62330   0.04998   0.00000  Uiso   1.00
C236   C     0.98934   0.71858   0.41130   0.00000  Uiso   1.00
C237   C     0.92053   0.70403   0.42759   0.00000  Uiso   1.00
C238   C     0.90635   0.65613   0.49359   0.00000  Uiso   1.00
C239   C     0.85625   0.58238   0.59361   0.00000  Uiso   1.00
C240   C     0.06135   0.82030   0.39286   0.00000  Uiso   1.00
C241   C     0.05307   0.89127   0.39366   0.00000  Uiso   1.00
C242   C     0.09950   0.92901   0.44416   0.00000  Uiso   1.00
C243   C     0.16120   0.01319   0.51554   0.00000  Uiso   1.00
C244   C     0.11361   0.71004   0.43047   0.00000  Uiso   1.00
C245   C     0.11799   0.69610   0.33090   0.00000  Uiso   1.00
C246   C     0.16769   0.65634   0.28898   0.00000  Uiso   1.00
C247   C     0.16273   0.64986   0.19730   0.00000  Uiso   1.00
C248   C     0.04212   0.68643   0.45924   0.00000  Uiso   1.00
C249   C     0.02804   0.63854   0.52524   0.00000  Uiso   1.00
C250   C     0.95923   0.62392   0.54163   0.00000  Uiso   1.00
C251   C     0.11413   0.78815   0.44080   0.00000  Uiso   1.00
C252   C     0.16059   0.82578   0.49132   0.00000  Uiso   1.00
C253   C     0.15238   0.89680   0.49220   0.00000  Uiso   1.00
H254   H     0.97534   0.79426   0.30488   0.00000  Uiso   1.00
H255   H     0.01931   0.74671   0.15424   0.00000  Uiso   1.00
H256   H     0.87969   0.72892   0.39048   0.00000  Uiso   1.00
H257   H     0.01221   0.91613   0.35655   0.00000  Uiso   1.00
H258   H     0.09133   0.67980   0.00837   0.00000  Uiso   1.00
H259   H     0.79693   0.64230   0.50651   0.00000  Uiso   1.00
H260   H     0.07638   0.03707   0.43498   0.00000  Uiso   1.00
H261   H     0.15471   0.68501   0.46780   0.00000  Uiso   1.00
H262   H     0.20853   0.63146   0.32610   0.00000  Uiso   1.00
H263   H     0.06891   0.61367   0.56234   0.00000  Uiso   1.00
H264   H     0.20143   0.80088   0.52841   0.00000  Uiso   1.00
H265   H     0.24491   0.58625   0.14786   0.00000  Uiso   1.00
H266   H     0.95050   0.54876   0.64601   0.00000  Uiso   1.00
H267   H     0.22995   0.94353   0.57447   0.00000  Uiso   1.00
O268   O     0.20027   0.59975   0.98196   0.00000  Uiso   1.00
O269   O     0.81403   0.55057   0.63552   0.00000  Uiso   1.00
O270   O     0.18066   0.06850   0.54166   0.00000  Uiso   1.00
N271   N     0.12010   0.66514   0.06065   0.00000  Uiso   1.00
N272   N     0.84485   0.63008   0.52637   0.00000  Uiso   1.00
N273   N     0.10610   0.99915   0.45951   0.00000  Uiso   1.00
N274   N     0.20273   0.61481   0.13570   0.00000  Uiso   1.00
N275   N     0.92749   0.57974   0.60143   0.00000  Uiso   1.00
N276   N     0.18874   0.94882   0.53457   0.00000  Uiso   1.00
C277   C     0.73077   0.51643   0.09220   0.00000  Uiso   1.00
C278   C     0.77175   0.56520   0.03295   0.00000  Uiso   1.00
C279   C     0.77817   0.56017   0.94132   0.00000  Uiso   1.00
C280   C     0.81794   0.60985   0.89927   0.00000  Uiso   1.00
C281   C     0.87670   0.67753   0.79998   0.00000  Uiso   1.00
C282   C     0.78142   0.48934   0.16130   0.00000  Uiso   1.00
C283   C     0.79597   0.42053   0.17759   0.00000  Uiso   1.00
C284   C     0.84387   0.40635   0.24359   0.00000  Uiso   1.00
C285   C     0.91762   0.35625   0.34361   0.00000  Uiso   1.00
C286   C     0.67970   0.56135   0.14286   0.00000  Uiso   1.00
C287   C     0.60873   0.55307   0.14366   0.00000  Uiso   1.00
C288   C     0.57099   0.59950   0.19416   0.00000  Uiso   1.00
C289   C     0.48681   0.66120   0.26554   0.00000  Uiso   1.00
C290   C     0.78996   0.61361   0.18047   0.00000  Uiso   1.00
C291   C     0.80390   0.61799   0.08090   0.00000  Uiso   1.00
C292   C     0.84366   0.66769   0.03898   0.00000  Uiso   1.00
C293   C     0.85014   0.66273   0.94730   0.00000  Uiso   1.00
C294   C     0.81357   0.54212   0.20924   0.00000  Uiso   1.00
C295   C     0.86146   0.52804   0.27524   0.00000  Uiso   1.00
C296   C     0.87608   0.45923   0.29163   0.00000  Uiso   1.00
C297   C     0.71185   0.61413   0.19080   0.00000  Uiso   1.00
C298   C     0.67422   0.66059   0.24132   0.00000  Uiso   1.00
C299   C     0.60320   0.65238   0.24220   0.00000  Uiso   1.00
H300   H     0.70574   0.47534   0.05488   0.00000  Uiso   1.00
H301   H     0.75329   0.51931   0.90424   0.00000  Uiso   1.00
H302   H     0.77108   0.37969   0.14048   0.00000  Uiso   1.00
H303   H     0.58387   0.51221   0.10655   0.00000  Uiso   1.00
H304   H     0.82020   0.59133   0.75837   0.00000  Uiso   1.00
H305   H     0.85770   0.29693   0.25651   0.00000  Uiso   1.00
H306   H     0.46293   0.57638   0.18498   0.00000  Uiso   1.00
H307   H     0.81499   0.65471   0.21780   0.00000  Uiso   1.00
H308   H     0.86854   0.70853   0.07610   0.00000  Uiso   1.00
H309   H     0.88633   0.56891   0.31234   0.00000  Uiso   1.00
H310   H     0.69912   0.70143   0.27841   0.00000  Uiso   1.00
H311   H     0.91375   0.74491   0.89786   0.00000  Uiso   1.00
H312   H     0.95124   0.45050   0.39601   0.00000  Uiso   1.00
H313   H     0.55647   0.72995   0.32447   0.00000  Uiso   1.00
O314   O     0.90025   0.70027   0.73196   0.00000  Uiso   1.00
O315   O     0.94943   0.31403   0.38552   0.00000  Uiso   1.00
O316   O     0.43150   0.68066   0.29166   0.00000  Uiso   1.00
N317   N     0.83486   0.62010   0.81065   0.00000  Uiso   1.00
N318   N     0.86992   0.34485   0.27637   0.00000  Uiso   1.00
N319   N     0.50085   0.60610   0.20951   0.00000  Uiso   1.00
N320   N     0.88519   0.70273   0.88570   0.00000  Uiso   1.00
N321   N     0.92026   0.42749   0.35143   0.00000  Uiso   1.00
N322   N     0.55118   0.68874   0.28457   0.00000  Uiso   1.00
C323   C     0.26923   0.48357   0.59220   0.00000  Uiso   1.00
C324   C     0.22825   0.43480   0.53295   0.00000  Uiso   1.00
C325   C     0.22183   0.43983   0.44132   0.00000  Uiso   1.00
C326   C     0.18206   0.39015   0.39927   0.00000  Uiso   1.00
C327   C     0.12330   0.32247   0.29998   0.00000  Uiso   1.00
C328   C     0.21858   0.51066   0.66130   0.00000  Uiso   1.00
C329   C     0.20403   0.57947   0.67759   0.00000  Uiso   1.00
C330   C     0.15613   0.59365   0.74359   0.00000  Uiso   1.00
C331   C     0.08238   0.64375   0.84361   0.00000  Uiso   1.00
C332   C     0.32030   0.43865   0.64286   0.00000  Uiso   1.00
C333   C     0.39127   0.44693   0.64366   0.00000  Uiso   1.00
C334   C     0.42901   0.40050   0.69416   0.00000  Uiso   1.00
C335   C     0.51319   0.33880   0.76554   0.00000  Uiso   1.00
C336   C     0.21004   0.38639   0.68047   0.00000  Uiso   1.00
C337   C     0.19610   0.38201   0.58090   0.00000  Uiso   1.00
C338   C     0.15634   0.33231   0.53898   0.00000  Uiso   1.00
C339   C     0.14986   0.33727   0.44730   0.00000  Uiso   1.00
C340   C     0.18643   0.45788   0.70924   0.00000  Uiso   1.00
C341   C     0.13854   0.47196   0.77524   0.00000  Uiso   1.00
C342   C     0.12392   0.54077   0.79163   0.00000  Uiso   1.00
C343   C     0.28815   0.38587   0.69080   0.00000  Uiso   1.00
C344   C     0.32578   0.33941   0.74132   0.00000  Uiso   1.00
C345   C     0.39680   0.34762   0.74220   0.00000  Uiso   1.00
H346   H     0.29426   0.52466   0.55488   0.00000  Uiso   1.00
H347   H     0.24671   0.48069   0.40424   0.00000  Uiso   1.00
H348   H     0.22892   0.62031   0.64048   0.00000  Uiso   1.00
H349   H     0.41613   0.48779   0.60655   0.00000  Uiso   1.00
H350   H     0.17980   0.40867   0.25837   0.00000  Uiso   1.00
H351   H     0.14230   0.70307   0.75651   0.00000  Uiso   1.00
H352   H     0.53707   0.42362   0.68498   0.00000  Uiso   1.00
H353   H     0.18501   0.34529   0.71780   0.00000  Uiso   1.00
H354   H     0.13146   0.29147   0.57610   0.00000  Uiso   1.00
H355   H     0.11367   0.43109   0.81234   0.00000  Uiso   1.00
H356   H     0.30088   0.29857   0.77841   0.00000  Uiso   1.00
H357   H     0.08625   0.25509   0.39786   0.00000  Uiso   1.00
H358   H     0.04876   0.54950   0.89601   0.00000  Uiso   1.00
H359   H     0.44353   0.27005   0.82447   0.00000  Uiso   1.00
O360   O     0.09975   0.29973   0.23196   0.00000  Uiso   1.00
O361   O     0.05057   0.68597   0.88552   0.00000  Uiso   1.00
O362   O     0.56850   0.31934   0.79166   0.00000  Uiso   1.00
N363   N     0.16514   0.37990   0.31065   0.00000  Uiso   1.00
N364   N     0.13008   0.65515   0.77637   0.00000  Uiso   1.00
N365   N     0.49915   0.39390   0.70951   0.00000  Uiso   1.00
N366   N     0.11481   0.29727   0.38570   0.00000  Uiso   1.00
N367   N     0.07974   0.57251   0.85143   0.00000  Uiso   1.00
N368   N     0.44882   0.31126   0.78457   0.00000  Uiso   1.00
