data_job_01442
_audit_creation_date              2018-12-19
_audit_creation_method            'Materials Studio'
_symmetry_space_group_name_H-M    'P1'
_symmetry_Int_Tables_number       1
_symmetry_cell_setting            triclinic
loop_
_symmetry_equiv_pos_as_xyz
  x,y,z
_cell_length_a                    19.6645
_cell_length_b                    9.3125
_cell_length_c                    22.1222
_cell_angle_alpha                 90.0000
_cell_angle_beta                  145.0380
_cell_angle_gamma                 90.0000
loop_
_atom_site_label
_atom_site_type_symbol
_atom_site_fract_x
_atom_site_fract_y
_atom_site_fract_z
_atom_site_U_iso_or_equiv
_atom_site_adp_type
_atom_site_occupancy
C1     C     0.56960   0.02785   0.83262   0.00000  Uiso   1.00
C2     C     0.49414   0.93502   0.81944   0.00000  Uiso   1.00
C3     C     0.37160   0.92122   0.72776   0.00000  Uiso   1.00
C4     C     0.31915   0.83105   0.73178   0.00000  Uiso   1.00
C5     C     0.19166   0.69817   0.69728   0.00000  Uiso   1.00
C6     C     0.63968   0.12848   0.92469   0.00000  Uiso   1.00
C7     C     0.63952   0.27733   0.92151   0.00000  Uiso   1.00
C8     C     0.70959   0.35001   0.01414   0.00000  Uiso   1.00
C9     C     0.80811   0.51747   0.14306   0.00000  Uiso   1.00
C10    C     0.66048   0.92714   0.87033   0.00000  Uiso   1.00
C11    C     0.67783   0.90673   0.82147   0.00000  Uiso   1.00
C12    C     0.76544   0.80991   0.86835   0.00000  Uiso   1.00
C13    C     0.89626   0.66476   0.91287   0.00000  Uiso   1.00
C14    C     0.69434   0.89224   0.00278   0.00000  Uiso   1.00
C15    C     0.56189   0.86137   0.91187   0.00000  Uiso   1.00
C16    C     0.50961   0.77118   0.91603   0.00000  Uiso   1.00
C17    C     0.38702   0.75725   0.82437   0.00000  Uiso   1.00
C18    C     0.70743   0.05483   0.01712   0.00000  Uiso   1.00
C19    C     0.77752   0.12730   0.10978   0.00000  Uiso   1.00
C20    C     0.77746   0.27622   0.10674   0.00000  Uiso   1.00
C21    C     0.72823   0.85348   0.96276   0.00000  Uiso   1.00
C22    C     0.81583   0.75668   0.00973   0.00000  Uiso   1.00
C23    C     0.83331   0.73612   0.96094   0.00000  Uiso   1.00
H24    H     0.51686   0.08521   0.76066   0.00000  Uiso   1.00
H25    H     0.31920   0.97826   0.65625   0.00000  Uiso   1.00
H26    H     0.58708   0.33430   0.84998   0.00000  Uiso   1.00
H27    H     0.62539   0.96375   0.74995   0.00000  Uiso   1.00
H28    H     0.12994   0.82723   0.58127   0.00000  Uiso   1.00
H29    H     0.69481   0.57798   0.98975   0.00000  Uiso   1.00
H30    H     0.77558   0.79660   0.77882   0.00000  Uiso   1.00
H31    H     0.74709   0.83490   0.07474   0.00000  Uiso   1.00
H32    H     0.56206   0.71420   0.98757   0.00000  Uiso   1.00
H33    H     0.82995   0.07026   0.18129   0.00000  Uiso   1.00
H34    H     0.86825   0.69970   0.08126   0.00000  Uiso   1.00
H35    H     0.32705   0.61292   0.85017   0.00000  Uiso   1.00
H36    H     0.89193   0.36368   0.25866   0.00000  Uiso   1.00
H37    H     0.97270   0.58229   0.04772   0.00000  Uiso   1.00
O38    O     0.10262   0.64523   0.65272   0.00000  Uiso   1.00
O39    O     0.84373   0.63019   0.18863   0.00000  Uiso   1.00
O40    O     0.94969   0.60503   0.91189   0.00000  Uiso   1.00
N41    N     0.20172   0.79334   0.65651   0.00000  Uiso   1.00
N42    N     0.72983   0.49525   0.03842   0.00000  Uiso   1.00
N43    N     0.80537   0.76475   0.84122   0.00000  Uiso   1.00
N44    N     0.30779   0.67802   0.80121   0.00000  Uiso   1.00
N45    N     0.83590   0.37993   0.18311   0.00000  Uiso   1.00
N46    N     0.91143   0.64943   0.98592   0.00000  Uiso   1.00
C47    C     0.43040   0.52785   0.66738   0.00000  Uiso   1.00
C48    C     0.50586   0.43502   0.68056   0.00000  Uiso   1.00
C49    C     0.62840   0.42122   0.77224   0.00000  Uiso   1.00
C50    C     0.68085   0.33105   0.76822   0.00000  Uiso   1.00
C51    C     0.80834   0.19817   0.80272   0.00000  Uiso   1.00
C52    C     0.36032   0.62848   0.57531   0.00000  Uiso   1.00
C53    C     0.36048   0.77733   0.57849   0.00000  Uiso   1.00
C54    C     0.29041   0.85001   0.48586   0.00000  Uiso   1.00
C55    C     0.19189   0.01747   0.35694   0.00000  Uiso   1.00
C56    C     0.33952   0.42714   0.62967   0.00000  Uiso   1.00
C57    C     0.32217   0.40673   0.67853   0.00000  Uiso   1.00
C58    C     0.23456   0.30991   0.63165   0.00000  Uiso   1.00
C59    C     0.10374   0.16476   0.58713   0.00000  Uiso   1.00
C60    C     0.30566   0.39224   0.49722   0.00000  Uiso   1.00
C61    C     0.43811   0.36137   0.58813   0.00000  Uiso   1.00
C62    C     0.49039   0.27118   0.58397   0.00000  Uiso   1.00
C63    C     0.61298   0.25725   0.67563   0.00000  Uiso   1.00
C64    C     0.29257   0.55483   0.48288   0.00000  Uiso   1.00
C65    C     0.22248   0.62730   0.39022   0.00000  Uiso   1.00
C66    C     0.22254   0.77622   0.39326   0.00000  Uiso   1.00
C67    C     0.27177   0.35348   0.53724   0.00000  Uiso   1.00
C68    C     0.18417   0.25668   0.49027   0.00000  Uiso   1.00
C69    C     0.16669   0.23612   0.53906   0.00000  Uiso   1.00
H70    H     0.48314   0.58521   0.73934   0.00000  Uiso   1.00
H71    H     0.68080   0.47826   0.84375   0.00000  Uiso   1.00
H72    H     0.41292   0.83430   0.65002   0.00000  Uiso   1.00
H73    H     0.37461   0.46375   0.75005   0.00000  Uiso   1.00
H74    H     0.87006   0.32723   0.91873   0.00000  Uiso   1.00
H75    H     0.30519   0.07798   0.51025   0.00000  Uiso   1.00
H76    H     0.22442   0.29660   0.72118   0.00000  Uiso   1.00
H77    H     0.25291   0.33490   0.42526   0.00000  Uiso   1.00
H78    H     0.43794   0.21420   0.51243   0.00000  Uiso   1.00
H79    H     0.17005   0.57026   0.31871   0.00000  Uiso   1.00
H80    H     0.13175   0.19970   0.41874   0.00000  Uiso   1.00
H81    H     0.67295   0.11292   0.64983   0.00000  Uiso   1.00
H82    H     0.10807   0.86368   0.24134   0.00000  Uiso   1.00
H83    H     0.02730   0.08229   0.45228   0.00000  Uiso   1.00
O84    O     0.89738   0.14523   0.84728   0.00000  Uiso   1.00
O85    O     0.15627   0.13019   0.31137   0.00000  Uiso   1.00
O86    O     0.05031   0.10503   0.58811   0.00000  Uiso   1.00
N87    N     0.79828   0.29334   0.84349   0.00000  Uiso   1.00
N88    N     0.27017   0.99525   0.46158   0.00000  Uiso   1.00
N89    N     0.19463   0.26475   0.65878   0.00000  Uiso   1.00
N90    N     0.69221   0.17802   0.69879   0.00000  Uiso   1.00
N91    N     0.16410   0.87993   0.31689   0.00000  Uiso   1.00
N92    N     0.08857   0.14943   0.51408   0.00000  Uiso   1.00
C93    C     0.43040   0.97215   0.16738   0.00000  Uiso   1.00
C94    C     0.50586   0.06498   0.18056   0.00000  Uiso   1.00
C95    C     0.62840   0.07878   0.27224   0.00000  Uiso   1.00
C96    C     0.68085   0.16895   0.26822   0.00000  Uiso   1.00
C97    C     0.80834   0.30183   0.30272   0.00000  Uiso   1.00
C98    C     0.36032   0.87152   0.07531   0.00000  Uiso   1.00
C99    C     0.36048   0.72267   0.07849   0.00000  Uiso   1.00
C100   C     0.29041   0.64999   0.98586   0.00000  Uiso   1.00
C101   C     0.19189   0.48253   0.85694   0.00000  Uiso   1.00
C102   C     0.33952   0.07286   0.12967   0.00000  Uiso   1.00
C103   C     0.32217   0.09327   0.17853   0.00000  Uiso   1.00
C104   C     0.23456   0.19009   0.13165   0.00000  Uiso   1.00
C105   C     0.10374   0.33524   0.08713   0.00000  Uiso   1.00
C106   C     0.30566   0.10776   0.99722   0.00000  Uiso   1.00
C107   C     0.43811   0.13863   0.08813   0.00000  Uiso   1.00
C108   C     0.49039   0.22882   0.08397   0.00000  Uiso   1.00
C109   C     0.61298   0.24275   0.17563   0.00000  Uiso   1.00
C110   C     0.29257   0.94517   0.98288   0.00000  Uiso   1.00
C111   C     0.22248   0.87270   0.89022   0.00000  Uiso   1.00
C112   C     0.22254   0.72378   0.89326   0.00000  Uiso   1.00
C113   C     0.27177   0.14652   0.03724   0.00000  Uiso   1.00
C114   C     0.18417   0.24332   0.99027   0.00000  Uiso   1.00
C115   C     0.16669   0.26388   0.03906   0.00000  Uiso   1.00
H116   H     0.48314   0.91479   0.23934   0.00000  Uiso   1.00
H117   H     0.68080   0.02174   0.34375   0.00000  Uiso   1.00
H118   H     0.41292   0.66570   0.15002   0.00000  Uiso   1.00
H119   H     0.37461   0.03625   0.25005   0.00000  Uiso   1.00
H120   H     0.87006   0.17277   0.41873   0.00000  Uiso   1.00
H121   H     0.30519   0.42202   0.01025   0.00000  Uiso   1.00
H122   H     0.22442   0.20340   0.22118   0.00000  Uiso   1.00
H123   H     0.25291   0.16510   0.92526   0.00000  Uiso   1.00
H124   H     0.43794   0.28580   0.01243   0.00000  Uiso   1.00
H125   H     0.17005   0.92974   0.81871   0.00000  Uiso   1.00
H126   H     0.13175   0.30030   0.91874   0.00000  Uiso   1.00
H127   H     0.67295   0.38708   0.14983   0.00000  Uiso   1.00
H128   H     0.10807   0.63632   0.74134   0.00000  Uiso   1.00
H129   H     0.02730   0.41771   0.95228   0.00000  Uiso   1.00
O130   O     0.89738   0.35477   0.34728   0.00000  Uiso   1.00
O131   O     0.15627   0.36981   0.81137   0.00000  Uiso   1.00
O132   O     0.05031   0.39497   0.08811   0.00000  Uiso   1.00
N133   N     0.79828   0.20666   0.34349   0.00000  Uiso   1.00
N134   N     0.27017   0.50475   0.96158   0.00000  Uiso   1.00
N135   N     0.19463   0.23525   0.15878   0.00000  Uiso   1.00
N136   N     0.69221   0.32198   0.19879   0.00000  Uiso   1.00
N137   N     0.16410   0.62007   0.81689   0.00000  Uiso   1.00
N138   N     0.08857   0.35057   0.01408   0.00000  Uiso   1.00
C139   C     0.56960   0.47215   0.33262   0.00000  Uiso   1.00
C140   C     0.49414   0.56498   0.31944   0.00000  Uiso   1.00
C141   C     0.37160   0.57878   0.22776   0.00000  Uiso   1.00
C142   C     0.31915   0.66895   0.23178   0.00000  Uiso   1.00
C143   C     0.19166   0.80183   0.19728   0.00000  Uiso   1.00
C144   C     0.63968   0.37152   0.42469   0.00000  Uiso   1.00
C145   C     0.63952   0.22267   0.42151   0.00000  Uiso   1.00
C146   C     0.70959   0.14999   0.51414   0.00000  Uiso   1.00
C147   C     0.80811   0.98253   0.64306   0.00000  Uiso   1.00
C148   C     0.66048   0.57286   0.37033   0.00000  Uiso   1.00
C149   C     0.67783   0.59327   0.32147   0.00000  Uiso   1.00
C150   C     0.76544   0.69009   0.36835   0.00000  Uiso   1.00
C151   C     0.89626   0.83524   0.41287   0.00000  Uiso   1.00
C152   C     0.69434   0.60776   0.50278   0.00000  Uiso   1.00
C153   C     0.56189   0.63863   0.41187   0.00000  Uiso   1.00
C154   C     0.50961   0.72882   0.41603   0.00000  Uiso   1.00
C155   C     0.38702   0.74275   0.32437   0.00000  Uiso   1.00
C156   C     0.70743   0.44517   0.51712   0.00000  Uiso   1.00
C157   C     0.77752   0.37270   0.60978   0.00000  Uiso   1.00
C158   C     0.77746   0.22378   0.60674   0.00000  Uiso   1.00
C159   C     0.72823   0.64652   0.46276   0.00000  Uiso   1.00
C160   C     0.81583   0.74332   0.50973   0.00000  Uiso   1.00
C161   C     0.83331   0.76388   0.46094   0.00000  Uiso   1.00
H162   H     0.51686   0.41479   0.26066   0.00000  Uiso   1.00
H163   H     0.31920   0.52174   0.15625   0.00000  Uiso   1.00
H164   H     0.58708   0.16570   0.34998   0.00000  Uiso   1.00
H165   H     0.62539   0.53625   0.24995   0.00000  Uiso   1.00
H166   H     0.12994   0.67277   0.08127   0.00000  Uiso   1.00
H167   H     0.69481   0.92202   0.48975   0.00000  Uiso   1.00
H168   H     0.77558   0.70340   0.27882   0.00000  Uiso   1.00
H169   H     0.74709   0.66510   0.57474   0.00000  Uiso   1.00
H170   H     0.56206   0.78580   0.48757   0.00000  Uiso   1.00
H171   H     0.82995   0.42974   0.68129   0.00000  Uiso   1.00
H172   H     0.86825   0.80030   0.58126   0.00000  Uiso   1.00
H173   H     0.32705   0.88708   0.35017   0.00000  Uiso   1.00
H174   H     0.89193   0.13632   0.75866   0.00000  Uiso   1.00
H175   H     0.97270   0.91771   0.54772   0.00000  Uiso   1.00
O176   O     0.10262   0.85477   0.15272   0.00000  Uiso   1.00
O177   O     0.84373   0.86981   0.68863   0.00000  Uiso   1.00
O178   O     0.94969   0.89497   0.41189   0.00000  Uiso   1.00
N179   N     0.20172   0.70666   0.15651   0.00000  Uiso   1.00
N180   N     0.72983   0.00475   0.53842   0.00000  Uiso   1.00
N181   N     0.80537   0.73525   0.34122   0.00000  Uiso   1.00
N182   N     0.30779   0.82198   0.30121   0.00000  Uiso   1.00
N183   N     0.83590   0.12007   0.68311   0.00000  Uiso   1.00
N184   N     0.91143   0.85057   0.48592   0.00000  Uiso   1.00
