data_job_00523
_audit_creation_date              2018-12-19
_audit_creation_method            'Materials Studio'
_symmetry_space_group_name_H-M    'P1'
_symmetry_Int_Tables_number       1
_symmetry_cell_setting            triclinic
loop_
_symmetry_equiv_pos_as_xyz
  x,y,z
_cell_length_a                    7.3948
_cell_length_b                    11.5393
_cell_length_c                    16.6840
_cell_angle_alpha                 86.1687
_cell_angle_beta                  77.2395
_cell_angle_gamma                 108.6653
loop_
_atom_site_label
_atom_site_type_symbol
_atom_site_fract_x
_atom_site_fract_y
_atom_site_fract_z
_atom_site_U_iso_or_equiv
_atom_site_adp_type
_atom_site_occupancy
C1     C     0.61178   0.87339   0.30107   0.00000  Uiso   1.00
C2     C     0.68294   0.79519   0.23980   0.00000  Uiso   1.00
C3     C     0.57768   0.72949   0.18824   0.00000  Uiso   1.00
C4     C     0.66852   0.66363   0.13669   0.00000  Uiso   1.00
C5     C     0.75019   0.54218   0.04158   0.00000  Uiso   1.00
C6     C     0.62360   0.82235   0.38572   0.00000  Uiso   1.00
C7     C     0.46843   0.77950   0.45685   0.00000  Uiso   1.00
C8     C     0.50934   0.73652   0.52813   0.00000  Uiso   1.00
C9     C     0.49890   0.65732   0.65957   0.00000  Uiso   1.00
C10    C     0.76763   0.00252   0.27777   0.00000  Uiso   1.00
C11    C     0.73358   0.11117   0.25816   0.00000  Uiso   1.00
C12    C     0.89575   0.21989   0.23857   0.00000  Uiso   1.00
C13    C     0.10895   0.42042   0.20240   0.00000  Uiso   1.00
C14    C     0.96032   0.87326   0.30119   0.00000  Uiso   1.00
C15    C     0.87226   0.79512   0.23987   0.00000  Uiso   1.00
C16    C     0.96330   0.72935   0.18838   0.00000  Uiso   1.00
C17    C     0.85818   0.66357   0.13675   0.00000  Uiso   1.00
C18    C     0.81290   0.82228   0.38579   0.00000  Uiso   1.00
C19    C     0.85405   0.77937   0.45698   0.00000  Uiso   1.00
C20    C     0.69899   0.73646   0.52819   0.00000  Uiso   1.00
C21    C     0.95695   0.00245   0.27784   0.00000  Uiso   1.00
C22    C     0.11920   0.11103   0.25828   0.00000  Uiso   1.00
C23    C     0.08540   0.21982   0.23864   0.00000  Uiso   1.00
H24    H     0.46439   0.87344   0.30102   0.00000  Uiso   1.00
H25    H     0.43116   0.72956   0.18822   0.00000  Uiso   1.00
H26    H     0.32195   0.77958   0.45678   0.00000  Uiso   1.00
H27    H     0.58706   0.11118   0.25811   0.00000  Uiso   1.00
H28    H     0.47779   0.56998   0.06320   0.00000  Uiso   1.00
H29    H     0.24752   0.67548   0.62949   0.00000  Uiso   1.00
H30    H     0.80655   0.37475   0.21056   0.00000  Uiso   1.00
H31    H     0.10771   0.87321   0.30124   0.00000  Uiso   1.00
H32    H     0.10980   0.72932   0.18844   0.00000  Uiso   1.00
H33    H     0.00057   0.77933   0.45701   0.00000  Uiso   1.00
H34    H     0.26568   0.11094   0.25834   0.00000  Uiso   1.00
H35    H     0.02859   0.56978   0.06339   0.00000  Uiso   1.00
H36    H     0.79831   0.67529   0.62968   0.00000  Uiso   1.00
H37    H     0.35735   0.37454   0.21075   0.00000  Uiso   1.00
O38    O     0.74293   0.47519   0.98911   0.00000  Uiso   1.00
O39    O     0.44082   0.61363   0.73205   0.00000  Uiso   1.00
O40    O     0.17426   0.53104   0.18243   0.00000  Uiso   1.00
N41    N     0.60715   0.58970   0.07871   0.00000  Uiso   1.00
N42    N     0.39185   0.68832   0.60815   0.00000  Uiso   1.00
N43    N     0.91449   0.34208   0.21651   0.00000  Uiso   1.00
N44    N     0.90353   0.58959   0.07881   0.00000  Uiso   1.00
N45    N     0.68823   0.68821   0.60825   0.00000  Uiso   1.00
N46    N     0.21087   0.34197   0.21661   0.00000  Uiso   1.00
C47    C     0.38822   0.12661   0.69893   0.00000  Uiso   1.00
C48    C     0.31706   0.20481   0.76020   0.00000  Uiso   1.00
C49    C     0.42232   0.27051   0.81176   0.00000  Uiso   1.00
C50    C     0.33148   0.33637   0.86331   0.00000  Uiso   1.00
C51    C     0.24981   0.45782   0.95842   0.00000  Uiso   1.00
C52    C     0.37640   0.17765   0.61428   0.00000  Uiso   1.00
C53    C     0.53157   0.22050   0.54315   0.00000  Uiso   1.00
C54    C     0.49066   0.26348   0.47187   0.00000  Uiso   1.00
C55    C     0.50110   0.34268   0.34043   0.00000  Uiso   1.00
C56    C     0.23237   0.99748   0.72223   0.00000  Uiso   1.00
C57    C     0.26642   0.88883   0.74184   0.00000  Uiso   1.00
C58    C     0.10425   0.78011   0.76143   0.00000  Uiso   1.00
C59    C     0.89105   0.57958   0.79760   0.00000  Uiso   1.00
C60    C     0.03968   0.12674   0.69881   0.00000  Uiso   1.00
C61    C     0.12774   0.20488   0.76013   0.00000  Uiso   1.00
C62    C     0.03670   0.27065   0.81162   0.00000  Uiso   1.00
C63    C     0.14182   0.33643   0.86325   0.00000  Uiso   1.00
C64    C     0.18710   0.17772   0.61421   0.00000  Uiso   1.00
C65    C     0.14595   0.22063   0.54302   0.00000  Uiso   1.00
C66    C     0.30101   0.26354   0.47181   0.00000  Uiso   1.00
C67    C     0.04305   0.99755   0.72216   0.00000  Uiso   1.00
C68    C     0.88080   0.88897   0.74172   0.00000  Uiso   1.00
C69    C     0.91460   0.78018   0.76136   0.00000  Uiso   1.00
H70    H     0.53561   0.12656   0.69898   0.00000  Uiso   1.00
H71    H     0.56884   0.27044   0.81178   0.00000  Uiso   1.00
H72    H     0.67805   0.22042   0.54322   0.00000  Uiso   1.00
H73    H     0.41294   0.88882   0.74189   0.00000  Uiso   1.00
H74    H     0.52221   0.43002   0.93680   0.00000  Uiso   1.00
H75    H     0.75248   0.32452   0.37051   0.00000  Uiso   1.00
H76    H     0.19345   0.62525   0.78944   0.00000  Uiso   1.00
H77    H     0.89229   0.12679   0.69876   0.00000  Uiso   1.00
H78    H     0.89020   0.27068   0.81156   0.00000  Uiso   1.00
H79    H     0.99943   0.22067   0.54299   0.00000  Uiso   1.00
H80    H     0.73432   0.88906   0.74166   0.00000  Uiso   1.00
H81    H     0.97141   0.43022   0.93661   0.00000  Uiso   1.00
H82    H     0.20169   0.32471   0.37032   0.00000  Uiso   1.00
H83    H     0.64265   0.62546   0.78925   0.00000  Uiso   1.00
O84    O     0.25707   0.52481   0.01089   0.00000  Uiso   1.00
O85    O     0.55918   0.38637   0.26795   0.00000  Uiso   1.00
O86    O     0.82574   0.46896   0.81757   0.00000  Uiso   1.00
N87    N     0.39285   0.41030   0.92129   0.00000  Uiso   1.00
N88    N     0.60815   0.31168   0.39185   0.00000  Uiso   1.00
N89    N     0.08551   0.65792   0.78349   0.00000  Uiso   1.00
N90    N     0.09647   0.41041   0.92119   0.00000  Uiso   1.00
N91    N     0.31177   0.31179   0.39175   0.00000  Uiso   1.00
N92    N     0.78913   0.65803   0.78339   0.00000  Uiso   1.00
