data_job_02690
_audit_creation_date              2018-12-19
_audit_creation_method            'Materials Studio'
_symmetry_space_group_name_H-M    'P1'
_symmetry_Int_Tables_number       1
_symmetry_cell_setting            triclinic
loop_
_symmetry_equiv_pos_as_xyz
  x,y,z
_cell_length_a                    11.5825
_cell_length_b                    21.9944
_cell_length_c                    13.9936
_cell_angle_alpha                 90.0000
_cell_angle_beta                  126.6064
_cell_angle_gamma                 90.0000
loop_
_atom_site_label
_atom_site_type_symbol
_atom_site_fract_x
_atom_site_fract_y
_atom_site_fract_z
_atom_site_U_iso_or_equiv
_atom_site_adp_type
_atom_site_occupancy
C1     C     0.67601   0.57901   0.63138   0.00000  Uiso   1.00
C2     C     0.71519   0.51346   0.62654   0.00000  Uiso   1.00
C3     C     0.70900   0.46450   0.68591   0.00000  Uiso   1.00
C4     C     0.74935   0.40817   0.66996   0.00000  Uiso   1.00
C5     C     0.80343   0.30748   0.67356   0.00000  Uiso   1.00
C6     C     0.80857   0.61696   0.67313   0.00000  Uiso   1.00
C7     C     0.88087   0.65502   0.77166   0.00000  Uiso   1.00
C8     C     0.99981   0.68582   0.79492   0.00000  Uiso   1.00
C9     C     0.19878   0.74584   0.87080   0.00000  Uiso   1.00
C10    C     0.56094   0.59771   0.50272   0.00000  Uiso   1.00
C11    C     0.42504   0.61961   0.45796   0.00000  Uiso   1.00
C12    C     0.33550   0.63421   0.33775   0.00000  Uiso   1.00
C13    C     0.15000   0.66434   0.14904   0.00000  Uiso   1.00
C14    C     0.75867   0.56603   0.49749   0.00000  Uiso   1.00
C15    C     0.76009   0.50642   0.55382   0.00000  Uiso   1.00
C16    C     0.80045   0.45014   0.53777   0.00000  Uiso   1.00
C17    C     0.79432   0.40111   0.59710   0.00000  Uiso   1.00
C18    C     0.85346   0.60991   0.60041   0.00000  Uiso   1.00
C19    C     0.97232   0.64066   0.62353   0.00000  Uiso   1.00
C20    C     0.04478   0.67876   0.72207   0.00000  Uiso   1.00
C21    C     0.60583   0.59066   0.42999   0.00000  Uiso   1.00
C22    C     0.51649   0.60524   0.30983   0.00000  Uiso   1.00
C23    C     0.38048   0.62715   0.26490   0.00000  Uiso   1.00
H24    H     0.64107   0.58450   0.68800   0.00000  Uiso   1.00
H25    H     0.67427   0.46998   0.74219   0.00000  Uiso   1.00
H26    H     0.84609   0.66047   0.82792   0.00000  Uiso   1.00
H27    H     0.39034   0.62506   0.51427   0.00000  Uiso   1.00
H28    H     0.73092   0.33991   0.77023   0.00000  Uiso   1.00
H29    H     0.09320   0.74159   0.95097   0.00000  Uiso   1.00
H30    H     0.13215   0.66691   0.28958   0.00000  Uiso   1.00
H31    H     0.79363   0.56054   0.44087   0.00000  Uiso   1.00
H32    H     0.83519   0.44470   0.48149   0.00000  Uiso   1.00
H33    H     0.00702   0.63520   0.56723   0.00000  Uiso   1.00
H34    H     0.55127   0.59978   0.25358   0.00000  Uiso   1.00
H35    H     0.86155   0.31939   0.55864   0.00000  Uiso   1.00
H36    H     0.22382   0.72108   0.73938   0.00000  Uiso   1.00
H37    H     0.26277   0.64639   0.07799   0.00000  Uiso   1.00
O38    O     0.82087   0.25388   0.69565   0.00000  Uiso   1.00
O39    O     0.29614   0.78088   0.93276   0.00000  Uiso   1.00
O40    O     0.03527   0.68290   0.06504   0.00000  Uiso   1.00
N41    N     0.75593   0.35097   0.71484   0.00000  Uiso   1.00
N42    N     0.09465   0.72652   0.88383   0.00000  Uiso   1.00
N43    N     0.19616   0.65671   0.26550   0.00000  Uiso   1.00
N44    N     0.82622   0.33994   0.60098   0.00000  Uiso   1.00
N45    N     0.16494   0.71548   0.76998   0.00000  Uiso   1.00
N46    N     0.26645   0.64567   0.15164   0.00000  Uiso   1.00
C47    C     0.17601   0.07901   0.63138   0.00000  Uiso   1.00
C48    C     0.21519   0.01346   0.62654   0.00000  Uiso   1.00
C49    C     0.20900   0.96450   0.68591   0.00000  Uiso   1.00
C50    C     0.24935   0.90817   0.66996   0.00000  Uiso   1.00
C51    C     0.30343   0.80748   0.67356   0.00000  Uiso   1.00
C52    C     0.30857   0.11696   0.67313   0.00000  Uiso   1.00
C53    C     0.38087   0.15502   0.77166   0.00000  Uiso   1.00
C54    C     0.49981   0.18582   0.79492   0.00000  Uiso   1.00
C55    C     0.69878   0.24584   0.87080   0.00000  Uiso   1.00
C56    C     0.06094   0.09771   0.50272   0.00000  Uiso   1.00
C57    C     0.92504   0.11961   0.45796   0.00000  Uiso   1.00
C58    C     0.83550   0.13421   0.33775   0.00000  Uiso   1.00
C59    C     0.65000   0.16434   0.14904   0.00000  Uiso   1.00
C60    C     0.25867   0.06603   0.49749   0.00000  Uiso   1.00
C61    C     0.26009   0.00642   0.55382   0.00000  Uiso   1.00
C62    C     0.30045   0.95014   0.53777   0.00000  Uiso   1.00
C63    C     0.29432   0.90111   0.59710   0.00000  Uiso   1.00
C64    C     0.35346   0.10991   0.60041   0.00000  Uiso   1.00
C65    C     0.47232   0.14066   0.62353   0.00000  Uiso   1.00
C66    C     0.54478   0.17876   0.72207   0.00000  Uiso   1.00
C67    C     0.10583   0.09066   0.42999   0.00000  Uiso   1.00
C68    C     0.01649   0.10524   0.30983   0.00000  Uiso   1.00
C69    C     0.88048   0.12715   0.26490   0.00000  Uiso   1.00
H70    H     0.14107   0.08450   0.68800   0.00000  Uiso   1.00
H71    H     0.17427   0.96998   0.74219   0.00000  Uiso   1.00
H72    H     0.34609   0.16047   0.82792   0.00000  Uiso   1.00
H73    H     0.89034   0.12506   0.51427   0.00000  Uiso   1.00
H74    H     0.23092   0.83991   0.77023   0.00000  Uiso   1.00
H75    H     0.59320   0.24159   0.95097   0.00000  Uiso   1.00
H76    H     0.63215   0.16691   0.28958   0.00000  Uiso   1.00
H77    H     0.29363   0.06054   0.44087   0.00000  Uiso   1.00
H78    H     0.33519   0.94470   0.48149   0.00000  Uiso   1.00
H79    H     0.50702   0.13520   0.56723   0.00000  Uiso   1.00
H80    H     0.05127   0.09978   0.25358   0.00000  Uiso   1.00
H81    H     0.36155   0.81939   0.55864   0.00000  Uiso   1.00
H82    H     0.72382   0.22108   0.73938   0.00000  Uiso   1.00
H83    H     0.76277   0.14639   0.07799   0.00000  Uiso   1.00
O84    O     0.32087   0.75388   0.69565   0.00000  Uiso   1.00
O85    O     0.79614   0.28088   0.93276   0.00000  Uiso   1.00
O86    O     0.53527   0.18290   0.06504   0.00000  Uiso   1.00
N87    N     0.25593   0.85097   0.71484   0.00000  Uiso   1.00
N88    N     0.59465   0.22652   0.88383   0.00000  Uiso   1.00
N89    N     0.69616   0.15671   0.26550   0.00000  Uiso   1.00
N90    N     0.32622   0.83994   0.60098   0.00000  Uiso   1.00
N91    N     0.66494   0.21548   0.76998   0.00000  Uiso   1.00
N92    N     0.76645   0.14567   0.15164   0.00000  Uiso   1.00
C93    C     0.67601   0.42099   0.13138   0.00000  Uiso   1.00
C94    C     0.71519   0.48654   0.12654   0.00000  Uiso   1.00
C95    C     0.70900   0.53550   0.18591   0.00000  Uiso   1.00
C96    C     0.74935   0.59183   0.16996   0.00000  Uiso   1.00
C97    C     0.80343   0.69252   0.17356   0.00000  Uiso   1.00
C98    C     0.80857   0.38304   0.17313   0.00000  Uiso   1.00
C99    C     0.88087   0.34498   0.27166   0.00000  Uiso   1.00
C100   C     0.99981   0.31418   0.29492   0.00000  Uiso   1.00
C101   C     0.19878   0.25416   0.37080   0.00000  Uiso   1.00
C102   C     0.56094   0.40229   0.00272   0.00000  Uiso   1.00
C103   C     0.42504   0.38039   0.95796   0.00000  Uiso   1.00
C104   C     0.33550   0.36579   0.83775   0.00000  Uiso   1.00
C105   C     0.15000   0.33566   0.64904   0.00000  Uiso   1.00
C106   C     0.75867   0.43397   0.99749   0.00000  Uiso   1.00
C107   C     0.76009   0.49358   0.05382   0.00000  Uiso   1.00
C108   C     0.80045   0.54986   0.03777   0.00000  Uiso   1.00
C109   C     0.79432   0.59889   0.09710   0.00000  Uiso   1.00
C110   C     0.85346   0.39009   0.10041   0.00000  Uiso   1.00
C111   C     0.97232   0.35934   0.12353   0.00000  Uiso   1.00
C112   C     0.04478   0.32124   0.22207   0.00000  Uiso   1.00
C113   C     0.60583   0.40934   0.92999   0.00000  Uiso   1.00
C114   C     0.51649   0.39476   0.80983   0.00000  Uiso   1.00
C115   C     0.38048   0.37285   0.76490   0.00000  Uiso   1.00
H116   H     0.64107   0.41550   0.18800   0.00000  Uiso   1.00
H117   H     0.67427   0.53002   0.24219   0.00000  Uiso   1.00
H118   H     0.84609   0.33953   0.32792   0.00000  Uiso   1.00
H119   H     0.39034   0.37494   0.01427   0.00000  Uiso   1.00
H120   H     0.73092   0.66009   0.27023   0.00000  Uiso   1.00
H121   H     0.09320   0.25841   0.45097   0.00000  Uiso   1.00
H122   H     0.13215   0.33309   0.78958   0.00000  Uiso   1.00
H123   H     0.79363   0.43946   0.94087   0.00000  Uiso   1.00
H124   H     0.83519   0.55530   0.98149   0.00000  Uiso   1.00
H125   H     0.00702   0.36480   0.06723   0.00000  Uiso   1.00
H126   H     0.55127   0.40022   0.75358   0.00000  Uiso   1.00
H127   H     0.86155   0.68061   0.05864   0.00000  Uiso   1.00
H128   H     0.22382   0.27892   0.23938   0.00000  Uiso   1.00
H129   H     0.26277   0.35361   0.57799   0.00000  Uiso   1.00
O130   O     0.82087   0.74612   0.19565   0.00000  Uiso   1.00
O131   O     0.29614   0.21912   0.43276   0.00000  Uiso   1.00
O132   O     0.03527   0.31710   0.56504   0.00000  Uiso   1.00
N133   N     0.75593   0.64903   0.21484   0.00000  Uiso   1.00
N134   N     0.09465   0.27348   0.38383   0.00000  Uiso   1.00
N135   N     0.19616   0.34329   0.76550   0.00000  Uiso   1.00
N136   N     0.82622   0.66006   0.10098   0.00000  Uiso   1.00
N137   N     0.16494   0.28452   0.26998   0.00000  Uiso   1.00
N138   N     0.26645   0.35433   0.65164   0.00000  Uiso   1.00
C139   C     0.17601   0.92099   0.13138   0.00000  Uiso   1.00
C140   C     0.21519   0.98654   0.12654   0.00000  Uiso   1.00
C141   C     0.20900   0.03550   0.18591   0.00000  Uiso   1.00
C142   C     0.24935   0.09183   0.16996   0.00000  Uiso   1.00
C143   C     0.30343   0.19252   0.17356   0.00000  Uiso   1.00
C144   C     0.30857   0.88304   0.17313   0.00000  Uiso   1.00
C145   C     0.38087   0.84498   0.27166   0.00000  Uiso   1.00
C146   C     0.49981   0.81418   0.29492   0.00000  Uiso   1.00
C147   C     0.69878   0.75416   0.37080   0.00000  Uiso   1.00
C148   C     0.06094   0.90229   0.00272   0.00000  Uiso   1.00
C149   C     0.92504   0.88039   0.95796   0.00000  Uiso   1.00
C150   C     0.83550   0.86579   0.83775   0.00000  Uiso   1.00
C151   C     0.65000   0.83566   0.64904   0.00000  Uiso   1.00
C152   C     0.25867   0.93397   0.99749   0.00000  Uiso   1.00
C153   C     0.26009   0.99358   0.05382   0.00000  Uiso   1.00
C154   C     0.30045   0.04986   0.03777   0.00000  Uiso   1.00
C155   C     0.29432   0.09889   0.09710   0.00000  Uiso   1.00
C156   C     0.35346   0.89009   0.10041   0.00000  Uiso   1.00
C157   C     0.47232   0.85934   0.12353   0.00000  Uiso   1.00
C158   C     0.54478   0.82124   0.22207   0.00000  Uiso   1.00
C159   C     0.10583   0.90934   0.92999   0.00000  Uiso   1.00
C160   C     0.01649   0.89476   0.80983   0.00000  Uiso   1.00
C161   C     0.88048   0.87285   0.76490   0.00000  Uiso   1.00
H162   H     0.14107   0.91550   0.18800   0.00000  Uiso   1.00
H163   H     0.17427   0.03002   0.24219   0.00000  Uiso   1.00
H164   H     0.34609   0.83953   0.32792   0.00000  Uiso   1.00
H165   H     0.89034   0.87494   0.01427   0.00000  Uiso   1.00
H166   H     0.23092   0.16009   0.27023   0.00000  Uiso   1.00
H167   H     0.59320   0.75841   0.45097   0.00000  Uiso   1.00
H168   H     0.63215   0.83309   0.78958   0.00000  Uiso   1.00
H169   H     0.29363   0.93946   0.94087   0.00000  Uiso   1.00
H170   H     0.33519   0.05530   0.98149   0.00000  Uiso   1.00
H171   H     0.50702   0.86480   0.06723   0.00000  Uiso   1.00
H172   H     0.05127   0.90022   0.75358   0.00000  Uiso   1.00
H173   H     0.36155   0.18061   0.05864   0.00000  Uiso   1.00
H174   H     0.72382   0.77892   0.23938   0.00000  Uiso   1.00
H175   H     0.76277   0.85361   0.57799   0.00000  Uiso   1.00
O176   O     0.32087   0.24612   0.19565   0.00000  Uiso   1.00
O177   O     0.79614   0.71912   0.43276   0.00000  Uiso   1.00
O178   O     0.53527   0.81710   0.56504   0.00000  Uiso   1.00
N179   N     0.25593   0.14903   0.21484   0.00000  Uiso   1.00
N180   N     0.59465   0.77348   0.38383   0.00000  Uiso   1.00
N181   N     0.69616   0.84329   0.76550   0.00000  Uiso   1.00
N182   N     0.32622   0.16006   0.10098   0.00000  Uiso   1.00
N183   N     0.66494   0.78452   0.26998   0.00000  Uiso   1.00
N184   N     0.76645   0.85433   0.65164   0.00000  Uiso   1.00
