data_job_02901
_audit_creation_date              2018-12-19
_audit_creation_method            'Materials Studio'
_symmetry_space_group_name_H-M    'P1'
_symmetry_Int_Tables_number       1
_symmetry_cell_setting            triclinic
loop_
_symmetry_equiv_pos_as_xyz
  x,y,z
_cell_length_a                    20.7775
_cell_length_b                    39.9033
_cell_length_c                    9.9308
_cell_angle_alpha                 90.0000
_cell_angle_beta                  90.0000
_cell_angle_gamma                 90.0000
loop_
_atom_site_label
_atom_site_type_symbol
_atom_site_fract_x
_atom_site_fract_y
_atom_site_fract_z
_atom_site_U_iso_or_equiv
_atom_site_adp_type
_atom_site_occupancy
C1     C     0.97859   0.81990   0.83633   0.00000  Uiso   1.00
C2     C     0.04637   0.80620   0.85727   0.00000  Uiso   1.00
C3     C     0.06283   0.77942   0.93954   0.00000  Uiso   1.00
C4     C     0.12749   0.77075   0.94507   0.00000  Uiso   1.00
C5     C     0.22566   0.74681   0.98892   0.00000  Uiso   1.00
C6     C     0.98169   0.85697   0.87317   0.00000  Uiso   1.00
C7     C     0.94376   0.87288   0.96880   0.00000  Uiso   1.00
C8     C     0.95397   0.90695   0.98770   0.00000  Uiso   1.00
C9     C     0.95169   0.96184   0.05617   0.00000  Uiso   1.00
C10    C     0.96635   0.81861   0.68502   0.00000  Uiso   1.00
C11    C     0.91552   0.80229   0.62244   0.00000  Uiso   1.00
C12    C     0.91280   0.80407   0.48292   0.00000  Uiso   1.00
C13    C     0.88671   0.79941   0.25925   0.00000  Uiso   1.00
C14    C     0.06414   0.85210   0.69984   0.00000  Uiso   1.00
C15    C     0.09284   0.82369   0.78314   0.00000  Uiso   1.00
C16    C     0.15748   0.81505   0.78853   0.00000  Uiso   1.00
C17    C     0.17404   0.78826   0.87080   0.00000  Uiso   1.00
C18    C     0.02816   0.87446   0.79904   0.00000  Uiso   1.00
C19    C     0.03842   0.90851   0.81779   0.00000  Uiso   1.00
C20    C     0.00052   0.92447   0.91343   0.00000  Uiso   1.00
C21    C     0.01282   0.83610   0.61088   0.00000  Uiso   1.00
C22    C     0.01018   0.83791   0.47144   0.00000  Uiso   1.00
C23    C     0.95935   0.82159   0.40866   0.00000  Uiso   1.00
H24    H     0.94242   0.80629   0.89404   0.00000  Uiso   1.00
H25    H     0.02686   0.76590   0.99691   0.00000  Uiso   1.00
H26    H     0.90780   0.85934   0.02614   0.00000  Uiso   1.00
H27    H     0.87957   0.78876   0.67984   0.00000  Uiso   1.00
H28    H     0.14097   0.72883   0.07829   0.00000  Uiso   1.00
H29    H     0.88993   0.92587   0.13991   0.00000  Uiso   1.00
H30    H     0.83038   0.77703   0.40966   0.00000  Uiso   1.00
H31    H     0.10032   0.86572   0.64212   0.00000  Uiso   1.00
H32    H     0.19343   0.82859   0.73116   0.00000  Uiso   1.00
H33    H     0.07438   0.92203   0.76040   0.00000  Uiso   1.00
H34    H     0.04614   0.85145   0.41410   0.00000  Uiso   1.00
H35    H     0.27617   0.77972   0.86261   0.00000  Uiso   1.00
H36    H     0.02512   0.97675   0.92423   0.00000  Uiso   1.00
H37    H     0.96558   0.82791   0.19398   0.00000  Uiso   1.00
O38    O     0.26697   0.72878   0.03360   0.00000  Uiso   1.00
O39    O     0.93760   0.98729   0.11443   0.00000  Uiso   1.00
O40    O     0.85949   0.79201   0.15636   0.00000  Uiso   1.00
N41    N     0.16001   0.74590   0.01529   0.00000  Uiso   1.00
N42    N     0.92530   0.93012   0.07292   0.00000  Uiso   1.00
N43    N     0.86963   0.79097   0.39020   0.00000  Uiso   1.00
N44    N     0.23276   0.77328   0.89923   0.00000  Uiso   1.00
N45    N     0.99805   0.95750   0.95686   0.00000  Uiso   1.00
N46    N     0.94238   0.81835   0.27414   0.00000  Uiso   1.00
C47    C     0.52141   0.18010   0.83633   0.00000  Uiso   1.00
C48    C     0.45363   0.19380   0.85727   0.00000  Uiso   1.00
C49    C     0.43717   0.22058   0.93954   0.00000  Uiso   1.00
C50    C     0.37251   0.22925   0.94507   0.00000  Uiso   1.00
C51    C     0.27434   0.25319   0.98892   0.00000  Uiso   1.00
C52    C     0.51831   0.14303   0.87317   0.00000  Uiso   1.00
C53    C     0.55624   0.12712   0.96880   0.00000  Uiso   1.00
C54    C     0.54603   0.09305   0.98770   0.00000  Uiso   1.00
C55    C     0.54831   0.03816   0.05617   0.00000  Uiso   1.00
C56    C     0.53365   0.18139   0.68502   0.00000  Uiso   1.00
C57    C     0.58448   0.19771   0.62244   0.00000  Uiso   1.00
C58    C     0.58720   0.19593   0.48292   0.00000  Uiso   1.00
C59    C     0.61329   0.20059   0.25925   0.00000  Uiso   1.00
C60    C     0.43586   0.14790   0.69984   0.00000  Uiso   1.00
C61    C     0.40716   0.17631   0.78314   0.00000  Uiso   1.00
C62    C     0.34252   0.18495   0.78853   0.00000  Uiso   1.00
C63    C     0.32596   0.21174   0.87080   0.00000  Uiso   1.00
C64    C     0.47184   0.12554   0.79904   0.00000  Uiso   1.00
C65    C     0.46158   0.09149   0.81779   0.00000  Uiso   1.00
C66    C     0.49948   0.07553   0.91343   0.00000  Uiso   1.00
C67    C     0.48718   0.16390   0.61088   0.00000  Uiso   1.00
C68    C     0.48982   0.16209   0.47144   0.00000  Uiso   1.00
C69    C     0.54065   0.17841   0.40866   0.00000  Uiso   1.00
H70    H     0.55758   0.19371   0.89404   0.00000  Uiso   1.00
H71    H     0.47314   0.23410   0.99691   0.00000  Uiso   1.00
H72    H     0.59220   0.14066   0.02614   0.00000  Uiso   1.00
H73    H     0.62043   0.21124   0.67984   0.00000  Uiso   1.00
H74    H     0.35903   0.27117   0.07829   0.00000  Uiso   1.00
H75    H     0.61007   0.07413   0.13991   0.00000  Uiso   1.00
H76    H     0.66962   0.22297   0.40966   0.00000  Uiso   1.00
H77    H     0.39968   0.13428   0.64212   0.00000  Uiso   1.00
H78    H     0.30657   0.17141   0.73116   0.00000  Uiso   1.00
H79    H     0.42562   0.07797   0.76040   0.00000  Uiso   1.00
H80    H     0.45386   0.14855   0.41410   0.00000  Uiso   1.00
H81    H     0.22383   0.22028   0.86261   0.00000  Uiso   1.00
H82    H     0.47488   0.02325   0.92423   0.00000  Uiso   1.00
H83    H     0.53442   0.17209   0.19398   0.00000  Uiso   1.00
O84    O     0.23303   0.27122   0.03360   0.00000  Uiso   1.00
O85    O     0.56240   0.01271   0.11443   0.00000  Uiso   1.00
O86    O     0.64051   0.20799   0.15636   0.00000  Uiso   1.00
N87    N     0.33999   0.25410   0.01529   0.00000  Uiso   1.00
N88    N     0.57470   0.06988   0.07292   0.00000  Uiso   1.00
N89    N     0.63037   0.20903   0.39020   0.00000  Uiso   1.00
N90    N     0.26724   0.22672   0.89923   0.00000  Uiso   1.00
N91    N     0.50195   0.04250   0.95686   0.00000  Uiso   1.00
N92    N     0.55762   0.18165   0.27414   0.00000  Uiso   1.00
C93    C     0.52141   0.31990   0.66367   0.00000  Uiso   1.00
C94    C     0.45363   0.30620   0.64273   0.00000  Uiso   1.00
C95    C     0.43717   0.27942   0.56046   0.00000  Uiso   1.00
C96    C     0.37251   0.27075   0.55493   0.00000  Uiso   1.00
C97    C     0.27434   0.24681   0.51108   0.00000  Uiso   1.00
C98    C     0.51831   0.35697   0.62683   0.00000  Uiso   1.00
C99    C     0.55624   0.37288   0.53120   0.00000  Uiso   1.00
C100   C     0.54603   0.40695   0.51230   0.00000  Uiso   1.00
C101   C     0.54831   0.46184   0.44383   0.00000  Uiso   1.00
C102   C     0.53365   0.31861   0.81498   0.00000  Uiso   1.00
C103   C     0.58448   0.30229   0.87756   0.00000  Uiso   1.00
C104   C     0.58720   0.30407   0.01708   0.00000  Uiso   1.00
C105   C     0.61329   0.29941   0.24075   0.00000  Uiso   1.00
C106   C     0.43586   0.35210   0.80016   0.00000  Uiso   1.00
C107   C     0.40716   0.32369   0.71686   0.00000  Uiso   1.00
C108   C     0.34252   0.31505   0.71147   0.00000  Uiso   1.00
C109   C     0.32596   0.28826   0.62920   0.00000  Uiso   1.00
C110   C     0.47184   0.37446   0.70096   0.00000  Uiso   1.00
C111   C     0.46158   0.40851   0.68221   0.00000  Uiso   1.00
C112   C     0.49948   0.42447   0.58657   0.00000  Uiso   1.00
C113   C     0.48718   0.33610   0.88912   0.00000  Uiso   1.00
C114   C     0.48982   0.33791   0.02856   0.00000  Uiso   1.00
C115   C     0.54065   0.32159   0.09134   0.00000  Uiso   1.00
H116   H     0.55758   0.30629   0.60596   0.00000  Uiso   1.00
H117   H     0.47314   0.26590   0.50309   0.00000  Uiso   1.00
H118   H     0.59220   0.35934   0.47386   0.00000  Uiso   1.00
H119   H     0.62043   0.28876   0.82016   0.00000  Uiso   1.00
H120   H     0.35903   0.22883   0.42171   0.00000  Uiso   1.00
H121   H     0.61007   0.42587   0.36009   0.00000  Uiso   1.00
H122   H     0.66962   0.27703   0.09034   0.00000  Uiso   1.00
H123   H     0.39968   0.36572   0.85788   0.00000  Uiso   1.00
H124   H     0.30657   0.32859   0.76884   0.00000  Uiso   1.00
H125   H     0.42562   0.42203   0.73960   0.00000  Uiso   1.00
H126   H     0.45386   0.35145   0.08590   0.00000  Uiso   1.00
H127   H     0.22383   0.27972   0.63739   0.00000  Uiso   1.00
H128   H     0.47488   0.47675   0.57577   0.00000  Uiso   1.00
H129   H     0.53442   0.32791   0.30602   0.00000  Uiso   1.00
O130   O     0.23303   0.22878   0.46640   0.00000  Uiso   1.00
O131   O     0.56240   0.48729   0.38557   0.00000  Uiso   1.00
O132   O     0.64051   0.29201   0.34364   0.00000  Uiso   1.00
N133   N     0.33999   0.24590   0.48471   0.00000  Uiso   1.00
N134   N     0.57470   0.43012   0.42708   0.00000  Uiso   1.00
N135   N     0.63037   0.29097   0.10980   0.00000  Uiso   1.00
N136   N     0.26724   0.27328   0.60077   0.00000  Uiso   1.00
N137   N     0.50195   0.45750   0.54314   0.00000  Uiso   1.00
N138   N     0.55762   0.31835   0.22586   0.00000  Uiso   1.00
C139   C     0.97859   0.68010   0.66367   0.00000  Uiso   1.00
C140   C     0.04637   0.69380   0.64273   0.00000  Uiso   1.00
C141   C     0.06283   0.72058   0.56046   0.00000  Uiso   1.00
C142   C     0.12749   0.72925   0.55493   0.00000  Uiso   1.00
C143   C     0.22566   0.75319   0.51108   0.00000  Uiso   1.00
C144   C     0.98169   0.64303   0.62683   0.00000  Uiso   1.00
C145   C     0.94376   0.62712   0.53120   0.00000  Uiso   1.00
C146   C     0.95397   0.59305   0.51230   0.00000  Uiso   1.00
C147   C     0.95169   0.53816   0.44383   0.00000  Uiso   1.00
C148   C     0.96635   0.68139   0.81498   0.00000  Uiso   1.00
C149   C     0.91552   0.69771   0.87756   0.00000  Uiso   1.00
C150   C     0.91280   0.69593   0.01708   0.00000  Uiso   1.00
C151   C     0.88671   0.70059   0.24075   0.00000  Uiso   1.00
C152   C     0.06414   0.64790   0.80016   0.00000  Uiso   1.00
C153   C     0.09284   0.67631   0.71686   0.00000  Uiso   1.00
C154   C     0.15748   0.68495   0.71147   0.00000  Uiso   1.00
C155   C     0.17404   0.71174   0.62920   0.00000  Uiso   1.00
C156   C     0.02816   0.62554   0.70096   0.00000  Uiso   1.00
C157   C     0.03842   0.59149   0.68221   0.00000  Uiso   1.00
C158   C     0.00052   0.57553   0.58657   0.00000  Uiso   1.00
C159   C     0.01282   0.66390   0.88912   0.00000  Uiso   1.00
C160   C     0.01018   0.66209   0.02856   0.00000  Uiso   1.00
C161   C     0.95935   0.67841   0.09134   0.00000  Uiso   1.00
H162   H     0.94242   0.69371   0.60596   0.00000  Uiso   1.00
H163   H     0.02686   0.73410   0.50309   0.00000  Uiso   1.00
H164   H     0.90780   0.64066   0.47386   0.00000  Uiso   1.00
H165   H     0.87957   0.71124   0.82016   0.00000  Uiso   1.00
H166   H     0.14097   0.77117   0.42171   0.00000  Uiso   1.00
H167   H     0.88993   0.57413   0.36009   0.00000  Uiso   1.00
H168   H     0.83038   0.72297   0.09034   0.00000  Uiso   1.00
H169   H     0.10032   0.63428   0.85788   0.00000  Uiso   1.00
H170   H     0.19343   0.67141   0.76884   0.00000  Uiso   1.00
H171   H     0.07438   0.57797   0.73960   0.00000  Uiso   1.00
H172   H     0.04614   0.64855   0.08590   0.00000  Uiso   1.00
H173   H     0.27617   0.72028   0.63739   0.00000  Uiso   1.00
H174   H     0.02512   0.52325   0.57577   0.00000  Uiso   1.00
H175   H     0.96558   0.67209   0.30602   0.00000  Uiso   1.00
O176   O     0.26697   0.77122   0.46640   0.00000  Uiso   1.00
O177   O     0.93760   0.51271   0.38557   0.00000  Uiso   1.00
O178   O     0.85949   0.70799   0.34364   0.00000  Uiso   1.00
N179   N     0.16001   0.75410   0.48471   0.00000  Uiso   1.00
N180   N     0.92530   0.56988   0.42708   0.00000  Uiso   1.00
N181   N     0.86963   0.70903   0.10980   0.00000  Uiso   1.00
N182   N     0.23276   0.72672   0.60077   0.00000  Uiso   1.00
N183   N     0.99805   0.54250   0.54314   0.00000  Uiso   1.00
N184   N     0.94238   0.68165   0.22586   0.00000  Uiso   1.00
C185   C     0.02141   0.18010   0.16367   0.00000  Uiso   1.00
C186   C     0.95363   0.19380   0.14273   0.00000  Uiso   1.00
C187   C     0.93717   0.22058   0.06046   0.00000  Uiso   1.00
C188   C     0.87251   0.22925   0.05493   0.00000  Uiso   1.00
C189   C     0.77434   0.25319   0.01108   0.00000  Uiso   1.00
C190   C     0.01831   0.14303   0.12683   0.00000  Uiso   1.00
C191   C     0.05624   0.12712   0.03120   0.00000  Uiso   1.00
C192   C     0.04603   0.09305   0.01230   0.00000  Uiso   1.00
C193   C     0.04831   0.03816   0.94383   0.00000  Uiso   1.00
C194   C     0.03365   0.18139   0.31498   0.00000  Uiso   1.00
C195   C     0.08448   0.19771   0.37756   0.00000  Uiso   1.00
C196   C     0.08720   0.19593   0.51708   0.00000  Uiso   1.00
C197   C     0.11329   0.20059   0.74075   0.00000  Uiso   1.00
C198   C     0.93586   0.14790   0.30016   0.00000  Uiso   1.00
C199   C     0.90716   0.17631   0.21686   0.00000  Uiso   1.00
C200   C     0.84252   0.18495   0.21147   0.00000  Uiso   1.00
C201   C     0.82596   0.21174   0.12920   0.00000  Uiso   1.00
C202   C     0.97184   0.12554   0.20096   0.00000  Uiso   1.00
C203   C     0.96158   0.09149   0.18221   0.00000  Uiso   1.00
C204   C     0.99948   0.07553   0.08657   0.00000  Uiso   1.00
C205   C     0.98718   0.16390   0.38912   0.00000  Uiso   1.00
C206   C     0.98982   0.16209   0.52856   0.00000  Uiso   1.00
C207   C     0.04065   0.17841   0.59134   0.00000  Uiso   1.00
H208   H     0.05758   0.19371   0.10596   0.00000  Uiso   1.00
H209   H     0.97314   0.23410   0.00309   0.00000  Uiso   1.00
H210   H     0.09220   0.14066   0.97386   0.00000  Uiso   1.00
H211   H     0.12043   0.21124   0.32016   0.00000  Uiso   1.00
H212   H     0.85903   0.27117   0.92171   0.00000  Uiso   1.00
H213   H     0.11007   0.07413   0.86009   0.00000  Uiso   1.00
H214   H     0.16962   0.22297   0.59034   0.00000  Uiso   1.00
H215   H     0.89968   0.13428   0.35788   0.00000  Uiso   1.00
H216   H     0.80657   0.17141   0.26884   0.00000  Uiso   1.00
H217   H     0.92562   0.07797   0.23960   0.00000  Uiso   1.00
H218   H     0.95386   0.14855   0.58590   0.00000  Uiso   1.00
H219   H     0.72383   0.22028   0.13739   0.00000  Uiso   1.00
H220   H     0.97488   0.02325   0.07577   0.00000  Uiso   1.00
H221   H     0.03442   0.17209   0.80602   0.00000  Uiso   1.00
O222   O     0.73303   0.27122   0.96640   0.00000  Uiso   1.00
O223   O     0.06240   0.01271   0.88557   0.00000  Uiso   1.00
O224   O     0.14051   0.20799   0.84364   0.00000  Uiso   1.00
N225   N     0.83999   0.25410   0.98471   0.00000  Uiso   1.00
N226   N     0.07470   0.06988   0.92708   0.00000  Uiso   1.00
N227   N     0.13037   0.20903   0.60980   0.00000  Uiso   1.00
N228   N     0.76724   0.22672   0.10077   0.00000  Uiso   1.00
N229   N     0.00195   0.04250   0.04314   0.00000  Uiso   1.00
N230   N     0.05762   0.18165   0.72586   0.00000  Uiso   1.00
C231   C     0.47859   0.81990   0.16367   0.00000  Uiso   1.00
C232   C     0.54637   0.80620   0.14273   0.00000  Uiso   1.00
C233   C     0.56283   0.77942   0.06046   0.00000  Uiso   1.00
C234   C     0.62749   0.77075   0.05493   0.00000  Uiso   1.00
C235   C     0.72566   0.74681   0.01108   0.00000  Uiso   1.00
C236   C     0.48169   0.85697   0.12683   0.00000  Uiso   1.00
C237   C     0.44376   0.87288   0.03120   0.00000  Uiso   1.00
C238   C     0.45397   0.90695   0.01230   0.00000  Uiso   1.00
C239   C     0.45169   0.96184   0.94383   0.00000  Uiso   1.00
C240   C     0.46635   0.81861   0.31498   0.00000  Uiso   1.00
C241   C     0.41552   0.80229   0.37756   0.00000  Uiso   1.00
C242   C     0.41280   0.80407   0.51708   0.00000  Uiso   1.00
C243   C     0.38671   0.79941   0.74075   0.00000  Uiso   1.00
C244   C     0.56414   0.85210   0.30016   0.00000  Uiso   1.00
C245   C     0.59284   0.82369   0.21686   0.00000  Uiso   1.00
C246   C     0.65748   0.81505   0.21147   0.00000  Uiso   1.00
C247   C     0.67404   0.78826   0.12920   0.00000  Uiso   1.00
C248   C     0.52816   0.87446   0.20096   0.00000  Uiso   1.00
C249   C     0.53842   0.90851   0.18221   0.00000  Uiso   1.00
C250   C     0.50052   0.92447   0.08657   0.00000  Uiso   1.00
C251   C     0.51282   0.83610   0.38912   0.00000  Uiso   1.00
C252   C     0.51018   0.83791   0.52856   0.00000  Uiso   1.00
C253   C     0.45935   0.82159   0.59134   0.00000  Uiso   1.00
H254   H     0.44242   0.80629   0.10596   0.00000  Uiso   1.00
H255   H     0.52686   0.76590   0.00309   0.00000  Uiso   1.00
H256   H     0.40780   0.85934   0.97386   0.00000  Uiso   1.00
H257   H     0.37957   0.78876   0.32016   0.00000  Uiso   1.00
H258   H     0.64097   0.72883   0.92171   0.00000  Uiso   1.00
H259   H     0.38993   0.92587   0.86009   0.00000  Uiso   1.00
H260   H     0.33038   0.77703   0.59034   0.00000  Uiso   1.00
H261   H     0.60032   0.86572   0.35788   0.00000  Uiso   1.00
H262   H     0.69343   0.82859   0.26884   0.00000  Uiso   1.00
H263   H     0.57438   0.92203   0.23960   0.00000  Uiso   1.00
H264   H     0.54614   0.85145   0.58590   0.00000  Uiso   1.00
H265   H     0.77617   0.77972   0.13739   0.00000  Uiso   1.00
H266   H     0.52512   0.97675   0.07577   0.00000  Uiso   1.00
H267   H     0.46558   0.82791   0.80602   0.00000  Uiso   1.00
O268   O     0.76697   0.72878   0.96640   0.00000  Uiso   1.00
O269   O     0.43760   0.98729   0.88557   0.00000  Uiso   1.00
O270   O     0.35949   0.79201   0.84364   0.00000  Uiso   1.00
N271   N     0.66001   0.74590   0.98471   0.00000  Uiso   1.00
N272   N     0.42530   0.93012   0.92708   0.00000  Uiso   1.00
N273   N     0.36963   0.79097   0.60980   0.00000  Uiso   1.00
N274   N     0.73276   0.77328   0.10077   0.00000  Uiso   1.00
N275   N     0.49805   0.95750   0.04314   0.00000  Uiso   1.00
N276   N     0.44238   0.81835   0.72586   0.00000  Uiso   1.00
C277   C     0.47859   0.68010   0.33633   0.00000  Uiso   1.00
C278   C     0.54637   0.69380   0.35727   0.00000  Uiso   1.00
C279   C     0.56283   0.72058   0.43954   0.00000  Uiso   1.00
C280   C     0.62749   0.72925   0.44507   0.00000  Uiso   1.00
C281   C     0.72566   0.75319   0.48892   0.00000  Uiso   1.00
C282   C     0.48169   0.64303   0.37317   0.00000  Uiso   1.00
C283   C     0.44376   0.62712   0.46880   0.00000  Uiso   1.00
C284   C     0.45397   0.59305   0.48770   0.00000  Uiso   1.00
C285   C     0.45169   0.53816   0.55617   0.00000  Uiso   1.00
C286   C     0.46635   0.68139   0.18502   0.00000  Uiso   1.00
C287   C     0.41552   0.69771   0.12244   0.00000  Uiso   1.00
C288   C     0.41280   0.69593   0.98292   0.00000  Uiso   1.00
C289   C     0.38671   0.70059   0.75925   0.00000  Uiso   1.00
C290   C     0.56414   0.64790   0.19984   0.00000  Uiso   1.00
C291   C     0.59284   0.67631   0.28314   0.00000  Uiso   1.00
C292   C     0.65748   0.68495   0.28853   0.00000  Uiso   1.00
C293   C     0.67404   0.71174   0.37080   0.00000  Uiso   1.00
C294   C     0.52816   0.62554   0.29904   0.00000  Uiso   1.00
C295   C     0.53842   0.59149   0.31779   0.00000  Uiso   1.00
C296   C     0.50052   0.57553   0.41343   0.00000  Uiso   1.00
C297   C     0.51282   0.66390   0.11088   0.00000  Uiso   1.00
C298   C     0.51018   0.66209   0.97144   0.00000  Uiso   1.00
C299   C     0.45935   0.67841   0.90866   0.00000  Uiso   1.00
H300   H     0.44242   0.69371   0.39404   0.00000  Uiso   1.00
H301   H     0.52686   0.73410   0.49691   0.00000  Uiso   1.00
H302   H     0.40780   0.64066   0.52614   0.00000  Uiso   1.00
H303   H     0.37957   0.71124   0.17984   0.00000  Uiso   1.00
H304   H     0.64097   0.77117   0.57829   0.00000  Uiso   1.00
H305   H     0.38993   0.57413   0.63991   0.00000  Uiso   1.00
H306   H     0.33038   0.72297   0.90966   0.00000  Uiso   1.00
H307   H     0.60032   0.63428   0.14212   0.00000  Uiso   1.00
H308   H     0.69343   0.67141   0.23116   0.00000  Uiso   1.00
H309   H     0.57438   0.57797   0.26040   0.00000  Uiso   1.00
H310   H     0.54614   0.64855   0.91410   0.00000  Uiso   1.00
H311   H     0.77617   0.72028   0.36261   0.00000  Uiso   1.00
H312   H     0.52512   0.52325   0.42423   0.00000  Uiso   1.00
H313   H     0.46558   0.67209   0.69398   0.00000  Uiso   1.00
O314   O     0.76697   0.77122   0.53360   0.00000  Uiso   1.00
O315   O     0.43760   0.51271   0.61443   0.00000  Uiso   1.00
O316   O     0.35949   0.70799   0.65636   0.00000  Uiso   1.00
N317   N     0.66001   0.75410   0.51529   0.00000  Uiso   1.00
N318   N     0.42530   0.56988   0.57292   0.00000  Uiso   1.00
N319   N     0.36963   0.70903   0.89020   0.00000  Uiso   1.00
N320   N     0.73276   0.72672   0.39923   0.00000  Uiso   1.00
N321   N     0.49805   0.54250   0.45686   0.00000  Uiso   1.00
N322   N     0.44238   0.68165   0.77414   0.00000  Uiso   1.00
C323   C     0.02141   0.31990   0.33633   0.00000  Uiso   1.00
C324   C     0.95363   0.30620   0.35727   0.00000  Uiso   1.00
C325   C     0.93717   0.27942   0.43954   0.00000  Uiso   1.00
C326   C     0.87251   0.27075   0.44507   0.00000  Uiso   1.00
C327   C     0.77434   0.24681   0.48892   0.00000  Uiso   1.00
C328   C     0.01831   0.35697   0.37317   0.00000  Uiso   1.00
C329   C     0.05624   0.37288   0.46880   0.00000  Uiso   1.00
C330   C     0.04603   0.40695   0.48770   0.00000  Uiso   1.00
C331   C     0.04831   0.46184   0.55617   0.00000  Uiso   1.00
C332   C     0.03365   0.31861   0.18502   0.00000  Uiso   1.00
C333   C     0.08448   0.30229   0.12244   0.00000  Uiso   1.00
C334   C     0.08720   0.30407   0.98292   0.00000  Uiso   1.00
C335   C     0.11329   0.29941   0.75925   0.00000  Uiso   1.00
C336   C     0.93586   0.35210   0.19984   0.00000  Uiso   1.00
C337   C     0.90716   0.32369   0.28314   0.00000  Uiso   1.00
C338   C     0.84252   0.31505   0.28853   0.00000  Uiso   1.00
C339   C     0.82596   0.28826   0.37080   0.00000  Uiso   1.00
C340   C     0.97184   0.37446   0.29904   0.00000  Uiso   1.00
C341   C     0.96158   0.40851   0.31779   0.00000  Uiso   1.00
C342   C     0.99948   0.42447   0.41343   0.00000  Uiso   1.00
C343   C     0.98718   0.33610   0.11088   0.00000  Uiso   1.00
C344   C     0.98982   0.33791   0.97144   0.00000  Uiso   1.00
C345   C     0.04065   0.32159   0.90866   0.00000  Uiso   1.00
H346   H     0.05758   0.30629   0.39404   0.00000  Uiso   1.00
H347   H     0.97314   0.26590   0.49691   0.00000  Uiso   1.00
H348   H     0.09220   0.35934   0.52614   0.00000  Uiso   1.00
H349   H     0.12043   0.28876   0.17984   0.00000  Uiso   1.00
H350   H     0.85903   0.22883   0.57829   0.00000  Uiso   1.00
H351   H     0.11007   0.42587   0.63991   0.00000  Uiso   1.00
H352   H     0.16962   0.27703   0.90966   0.00000  Uiso   1.00
H353   H     0.89968   0.36572   0.14212   0.00000  Uiso   1.00
H354   H     0.80657   0.32859   0.23116   0.00000  Uiso   1.00
H355   H     0.92562   0.42203   0.26040   0.00000  Uiso   1.00
H356   H     0.95386   0.35145   0.91410   0.00000  Uiso   1.00
H357   H     0.72383   0.27972   0.36261   0.00000  Uiso   1.00
H358   H     0.97488   0.47675   0.42423   0.00000  Uiso   1.00
H359   H     0.03442   0.32791   0.69398   0.00000  Uiso   1.00
O360   O     0.73303   0.22878   0.53360   0.00000  Uiso   1.00
O361   O     0.06240   0.48729   0.61443   0.00000  Uiso   1.00
O362   O     0.14051   0.29201   0.65636   0.00000  Uiso   1.00
N363   N     0.83999   0.24590   0.51529   0.00000  Uiso   1.00
N364   N     0.07470   0.43012   0.57292   0.00000  Uiso   1.00
N365   N     0.13037   0.29097   0.89020   0.00000  Uiso   1.00
N366   N     0.76724   0.27328   0.39923   0.00000  Uiso   1.00
N367   N     0.00195   0.45750   0.45686   0.00000  Uiso   1.00
N368   N     0.05762   0.31835   0.77414   0.00000  Uiso   1.00
