data_job_01892
_audit_creation_date              2018-12-19
_audit_creation_method            'Materials Studio'
_symmetry_space_group_name_H-M    'P1'
_symmetry_Int_Tables_number       1
_symmetry_cell_setting            triclinic
loop_
_symmetry_equiv_pos_as_xyz
  x,y,z
_cell_length_a                    28.8888
_cell_length_b                    23.4825
_cell_length_c                    9.9276
_cell_angle_alpha                 90.0000
_cell_angle_beta                  90.0000
_cell_angle_gamma                 90.0000
loop_
_atom_site_label
_atom_site_type_symbol
_atom_site_fract_x
_atom_site_fract_y
_atom_site_fract_z
_atom_site_U_iso_or_equiv
_atom_site_adp_type
_atom_site_occupancy
C1     C     0.61904   0.07947   0.18720   0.00000  Uiso   1.00
C2     C     0.59556   0.10628   0.30930   0.00000  Uiso   1.00
C3     C     0.57676   0.16062   0.31465   0.00000  Uiso   1.00
C4     C     0.55684   0.17723   0.43569   0.00000  Uiso   1.00
C5     C     0.52057   0.22442   0.60832   0.00000  Uiso   1.00
C6     C     0.66724   0.06187   0.23393   0.00000  Uiso   1.00
C7     C     0.70871   0.07886   0.17589   0.00000  Uiso   1.00
C8     C     0.74912   0.05808   0.23347   0.00000  Uiso   1.00
C9     C     0.82414   0.03628   0.28902   0.00000  Uiso   1.00
C10    C     0.59296   0.02427   0.15918   0.00000  Uiso   1.00
C11    C     0.57198   0.00963   0.03828   0.00000  Uiso   1.00
C12    C     0.54986   0.95719   0.03292   0.00000  Uiso   1.00
C13    C     0.50955   0.87701   0.97242   0.00000  Uiso   1.00
C14    C     0.61707   0.01235   0.39265   0.00000  Uiso   1.00
C15    C     0.59450   0.06982   0.42089   0.00000  Uiso   1.00
C16    C     0.57459   0.08636   0.54196   0.00000  Uiso   1.00
C17    C     0.55577   0.14071   0.54748   0.00000  Uiso   1.00
C18    C     0.66618   0.02541   0.34552   0.00000  Uiso   1.00
C19    C     0.70654   0.00460   0.40319   0.00000  Uiso   1.00
C20    C     0.74805   0.02156   0.34527   0.00000  Uiso   1.00
C21    C     0.59189   0.98781   0.27077   0.00000  Uiso   1.00
C22    C     0.56981   0.93537   0.26559   0.00000  Uiso   1.00
C23    C     0.54879   0.92067   0.14472   0.00000  Uiso   1.00
H24    H     0.61987   0.10785   0.10033   0.00000  Uiso   1.00
H25    H     0.57760   0.18882   0.22827   0.00000  Uiso   1.00
H26    H     0.70952   0.10707   0.08952   0.00000  Uiso   1.00
H27    H     0.57281   0.03786   0.95195   0.00000  Uiso   1.00
H28    H     0.53028   0.26252   0.41935   0.00000  Uiso   1.00
H29    H     0.80845   0.09013   0.12677   0.00000  Uiso   1.00
H30    H     0.52017   0.94418   0.83665   0.00000  Uiso   1.00
H31    H     0.61624   0.98396   0.47954   0.00000  Uiso   1.00
H32    H     0.57377   0.05814   0.62830   0.00000  Uiso   1.00
H33    H     0.70570   0.97638   0.48955   0.00000  Uiso   1.00
H34    H     0.56899   0.90717   0.35197   0.00000  Uiso   1.00
H35    H     0.52718   0.15645   0.74403   0.00000  Uiso   1.00
H36    H     0.80534   0.98406   0.45144   0.00000  Uiso   1.00
H37    H     0.51707   0.83811   0.16133   0.00000  Uiso   1.00
O38    O     0.50087   0.26052   0.67272   0.00000  Uiso   1.00
O39    O     0.86581   0.03434   0.28884   0.00000  Uiso   1.00
O40    O     0.48760   0.84286   0.90822   0.00000  Uiso   1.00
N41    N     0.53537   0.22737   0.47534   0.00000  Uiso   1.00
N42    N     0.79544   0.06620   0.20180   0.00000  Uiso   1.00
N43    N     0.52594   0.92975   0.93056   0.00000  Uiso   1.00
N44    N     0.53370   0.17030   0.65005   0.00000  Uiso   1.00
N45    N     0.79377   0.00913   0.37651   0.00000  Uiso   1.00
N46    N     0.52427   0.87267   0.10526   0.00000  Uiso   1.00
C47    C     0.61904   0.57947   0.68720   0.00000  Uiso   1.00
C48    C     0.59556   0.60628   0.80930   0.00000  Uiso   1.00
C49    C     0.57676   0.66062   0.81465   0.00000  Uiso   1.00
C50    C     0.55684   0.67723   0.93569   0.00000  Uiso   1.00
C51    C     0.52057   0.72442   0.10832   0.00000  Uiso   1.00
C52    C     0.66724   0.56187   0.73393   0.00000  Uiso   1.00
C53    C     0.70871   0.57886   0.67589   0.00000  Uiso   1.00
C54    C     0.74912   0.55808   0.73347   0.00000  Uiso   1.00
C55    C     0.82414   0.53628   0.78902   0.00000  Uiso   1.00
C56    C     0.59296   0.52427   0.65918   0.00000  Uiso   1.00
C57    C     0.57198   0.50963   0.53828   0.00000  Uiso   1.00
C58    C     0.54986   0.45719   0.53292   0.00000  Uiso   1.00
C59    C     0.50955   0.37701   0.47242   0.00000  Uiso   1.00
C60    C     0.61707   0.51235   0.89265   0.00000  Uiso   1.00
C61    C     0.59450   0.56982   0.92089   0.00000  Uiso   1.00
C62    C     0.57459   0.58636   0.04196   0.00000  Uiso   1.00
C63    C     0.55577   0.64071   0.04748   0.00000  Uiso   1.00
C64    C     0.66618   0.52541   0.84552   0.00000  Uiso   1.00
C65    C     0.70654   0.50460   0.90319   0.00000  Uiso   1.00
C66    C     0.74805   0.52156   0.84527   0.00000  Uiso   1.00
C67    C     0.59189   0.48781   0.77077   0.00000  Uiso   1.00
C68    C     0.56981   0.43537   0.76559   0.00000  Uiso   1.00
C69    C     0.54879   0.42067   0.64472   0.00000  Uiso   1.00
H70    H     0.61987   0.60785   0.60033   0.00000  Uiso   1.00
H71    H     0.57760   0.68882   0.72827   0.00000  Uiso   1.00
H72    H     0.70952   0.60707   0.58952   0.00000  Uiso   1.00
H73    H     0.57281   0.53786   0.45195   0.00000  Uiso   1.00
H74    H     0.53028   0.76252   0.91935   0.00000  Uiso   1.00
H75    H     0.80845   0.59013   0.62677   0.00000  Uiso   1.00
H76    H     0.52017   0.44418   0.33665   0.00000  Uiso   1.00
H77    H     0.61624   0.48396   0.97954   0.00000  Uiso   1.00
H78    H     0.57377   0.55814   0.12830   0.00000  Uiso   1.00
H79    H     0.70570   0.47638   0.98955   0.00000  Uiso   1.00
H80    H     0.56899   0.40717   0.85197   0.00000  Uiso   1.00
H81    H     0.52718   0.65645   0.24403   0.00000  Uiso   1.00
H82    H     0.80534   0.48406   0.95144   0.00000  Uiso   1.00
H83    H     0.51707   0.33811   0.66133   0.00000  Uiso   1.00
O84    O     0.50087   0.76052   0.17272   0.00000  Uiso   1.00
O85    O     0.86581   0.53434   0.78884   0.00000  Uiso   1.00
O86    O     0.48760   0.34286   0.40822   0.00000  Uiso   1.00
N87    N     0.53537   0.72737   0.97534   0.00000  Uiso   1.00
N88    N     0.79544   0.56620   0.70180   0.00000  Uiso   1.00
N89    N     0.52594   0.42975   0.43056   0.00000  Uiso   1.00
N90    N     0.53370   0.67030   0.15005   0.00000  Uiso   1.00
N91    N     0.79377   0.50913   0.87651   0.00000  Uiso   1.00
N92    N     0.52427   0.37267   0.60526   0.00000  Uiso   1.00
C93    C     0.38096   0.92053   0.18720   0.00000  Uiso   1.00
C94    C     0.40444   0.89372   0.30930   0.00000  Uiso   1.00
C95    C     0.42324   0.83938   0.31465   0.00000  Uiso   1.00
C96    C     0.44316   0.82277   0.43569   0.00000  Uiso   1.00
C97    C     0.47943   0.77558   0.60832   0.00000  Uiso   1.00
C98    C     0.33276   0.93813   0.23393   0.00000  Uiso   1.00
C99    C     0.29129   0.92114   0.17589   0.00000  Uiso   1.00
C100   C     0.25088   0.94192   0.23347   0.00000  Uiso   1.00
C101   C     0.17586   0.96372   0.28902   0.00000  Uiso   1.00
C102   C     0.40704   0.97573   0.15918   0.00000  Uiso   1.00
C103   C     0.42802   0.99037   0.03828   0.00000  Uiso   1.00
C104   C     0.45014   0.04281   0.03292   0.00000  Uiso   1.00
C105   C     0.49045   0.12299   0.97242   0.00000  Uiso   1.00
C106   C     0.38293   0.98765   0.39265   0.00000  Uiso   1.00
C107   C     0.40550   0.93018   0.42089   0.00000  Uiso   1.00
C108   C     0.42541   0.91364   0.54196   0.00000  Uiso   1.00
C109   C     0.44423   0.85929   0.54748   0.00000  Uiso   1.00
C110   C     0.33382   0.97459   0.34552   0.00000  Uiso   1.00
C111   C     0.29346   0.99540   0.40319   0.00000  Uiso   1.00
C112   C     0.25195   0.97844   0.34527   0.00000  Uiso   1.00
C113   C     0.40811   0.01219   0.27077   0.00000  Uiso   1.00
C114   C     0.43019   0.06463   0.26559   0.00000  Uiso   1.00
C115   C     0.45121   0.07933   0.14472   0.00000  Uiso   1.00
H116   H     0.38013   0.89215   0.10033   0.00000  Uiso   1.00
H117   H     0.42240   0.81118   0.22827   0.00000  Uiso   1.00
H118   H     0.29048   0.89293   0.08952   0.00000  Uiso   1.00
H119   H     0.42719   0.96214   0.95195   0.00000  Uiso   1.00
H120   H     0.46972   0.73748   0.41935   0.00000  Uiso   1.00
H121   H     0.19155   0.90987   0.12677   0.00000  Uiso   1.00
H122   H     0.47983   0.05582   0.83665   0.00000  Uiso   1.00
H123   H     0.38376   0.01604   0.47954   0.00000  Uiso   1.00
H124   H     0.42623   0.94186   0.62830   0.00000  Uiso   1.00
H125   H     0.29430   0.02362   0.48955   0.00000  Uiso   1.00
H126   H     0.43101   0.09283   0.35197   0.00000  Uiso   1.00
H127   H     0.47282   0.84355   0.74403   0.00000  Uiso   1.00
H128   H     0.19466   0.01594   0.45144   0.00000  Uiso   1.00
H129   H     0.48293   0.16189   0.16133   0.00000  Uiso   1.00
O130   O     0.49913   0.73948   0.67272   0.00000  Uiso   1.00
O131   O     0.13419   0.96566   0.28884   0.00000  Uiso   1.00
O132   O     0.51240   0.15714   0.90822   0.00000  Uiso   1.00
N133   N     0.46463   0.77263   0.47534   0.00000  Uiso   1.00
N134   N     0.20456   0.93380   0.20180   0.00000  Uiso   1.00
N135   N     0.47406   0.07025   0.93056   0.00000  Uiso   1.00
N136   N     0.46630   0.82970   0.65005   0.00000  Uiso   1.00
N137   N     0.20623   0.99087   0.37651   0.00000  Uiso   1.00
N138   N     0.47573   0.12733   0.10526   0.00000  Uiso   1.00
C139   C     0.38096   0.42053   0.68720   0.00000  Uiso   1.00
C140   C     0.40444   0.39372   0.80930   0.00000  Uiso   1.00
C141   C     0.42324   0.33938   0.81465   0.00000  Uiso   1.00
C142   C     0.44316   0.32277   0.93569   0.00000  Uiso   1.00
C143   C     0.47943   0.27558   0.10832   0.00000  Uiso   1.00
C144   C     0.33276   0.43813   0.73393   0.00000  Uiso   1.00
C145   C     0.29129   0.42114   0.67589   0.00000  Uiso   1.00
C146   C     0.25088   0.44192   0.73347   0.00000  Uiso   1.00
C147   C     0.17586   0.46372   0.78902   0.00000  Uiso   1.00
C148   C     0.40704   0.47573   0.65918   0.00000  Uiso   1.00
C149   C     0.42802   0.49037   0.53828   0.00000  Uiso   1.00
C150   C     0.45014   0.54281   0.53292   0.00000  Uiso   1.00
C151   C     0.49045   0.62299   0.47242   0.00000  Uiso   1.00
C152   C     0.38293   0.48765   0.89265   0.00000  Uiso   1.00
C153   C     0.40550   0.43018   0.92089   0.00000  Uiso   1.00
C154   C     0.42541   0.41364   0.04196   0.00000  Uiso   1.00
C155   C     0.44423   0.35929   0.04748   0.00000  Uiso   1.00
C156   C     0.33382   0.47459   0.84552   0.00000  Uiso   1.00
C157   C     0.29346   0.49540   0.90319   0.00000  Uiso   1.00
C158   C     0.25195   0.47844   0.84527   0.00000  Uiso   1.00
C159   C     0.40811   0.51219   0.77077   0.00000  Uiso   1.00
C160   C     0.43019   0.56463   0.76559   0.00000  Uiso   1.00
C161   C     0.45121   0.57933   0.64472   0.00000  Uiso   1.00
H162   H     0.38013   0.39215   0.60033   0.00000  Uiso   1.00
H163   H     0.42240   0.31118   0.72827   0.00000  Uiso   1.00
H164   H     0.29048   0.39293   0.58952   0.00000  Uiso   1.00
H165   H     0.42719   0.46214   0.45195   0.00000  Uiso   1.00
H166   H     0.46972   0.23748   0.91935   0.00000  Uiso   1.00
H167   H     0.19155   0.40987   0.62677   0.00000  Uiso   1.00
H168   H     0.47983   0.55582   0.33665   0.00000  Uiso   1.00
H169   H     0.38376   0.51604   0.97954   0.00000  Uiso   1.00
H170   H     0.42623   0.44186   0.12830   0.00000  Uiso   1.00
H171   H     0.29430   0.52362   0.98955   0.00000  Uiso   1.00
H172   H     0.43101   0.59283   0.85197   0.00000  Uiso   1.00
H173   H     0.47282   0.34355   0.24403   0.00000  Uiso   1.00
H174   H     0.19466   0.51594   0.95144   0.00000  Uiso   1.00
H175   H     0.48293   0.66189   0.66133   0.00000  Uiso   1.00
O176   O     0.49913   0.23948   0.17272   0.00000  Uiso   1.00
O177   O     0.13419   0.46566   0.78884   0.00000  Uiso   1.00
O178   O     0.51240   0.65714   0.40822   0.00000  Uiso   1.00
N179   N     0.46463   0.27263   0.97534   0.00000  Uiso   1.00
N180   N     0.20456   0.43380   0.70180   0.00000  Uiso   1.00
N181   N     0.47406   0.57025   0.43056   0.00000  Uiso   1.00
N182   N     0.46630   0.32970   0.15005   0.00000  Uiso   1.00
N183   N     0.20623   0.49087   0.87651   0.00000  Uiso   1.00
N184   N     0.47573   0.62733   0.60526   0.00000  Uiso   1.00
C185   C     0.11904   0.42053   0.18720   0.00000  Uiso   1.00
C186   C     0.09556   0.39372   0.30930   0.00000  Uiso   1.00
C187   C     0.07676   0.33938   0.31465   0.00000  Uiso   1.00
C188   C     0.05684   0.32277   0.43569   0.00000  Uiso   1.00
C189   C     0.02057   0.27558   0.60832   0.00000  Uiso   1.00
C190   C     0.16724   0.43813   0.23393   0.00000  Uiso   1.00
C191   C     0.20871   0.42114   0.17589   0.00000  Uiso   1.00
C192   C     0.24912   0.44192   0.23347   0.00000  Uiso   1.00
C193   C     0.32414   0.46372   0.28902   0.00000  Uiso   1.00
C194   C     0.09296   0.47573   0.15918   0.00000  Uiso   1.00
C195   C     0.07198   0.49037   0.03828   0.00000  Uiso   1.00
C196   C     0.04986   0.54281   0.03292   0.00000  Uiso   1.00
C197   C     0.00955   0.62299   0.97242   0.00000  Uiso   1.00
C198   C     0.11707   0.48765   0.39265   0.00000  Uiso   1.00
C199   C     0.09450   0.43018   0.42089   0.00000  Uiso   1.00
C200   C     0.07459   0.41364   0.54196   0.00000  Uiso   1.00
C201   C     0.05577   0.35929   0.54748   0.00000  Uiso   1.00
C202   C     0.16618   0.47459   0.34552   0.00000  Uiso   1.00
C203   C     0.20654   0.49540   0.40319   0.00000  Uiso   1.00
C204   C     0.24805   0.47844   0.34527   0.00000  Uiso   1.00
C205   C     0.09189   0.51219   0.27077   0.00000  Uiso   1.00
C206   C     0.06981   0.56463   0.26559   0.00000  Uiso   1.00
C207   C     0.04879   0.57933   0.14472   0.00000  Uiso   1.00
H208   H     0.11987   0.39215   0.10033   0.00000  Uiso   1.00
H209   H     0.07760   0.31118   0.22827   0.00000  Uiso   1.00
H210   H     0.20952   0.39293   0.08952   0.00000  Uiso   1.00
H211   H     0.07281   0.46214   0.95195   0.00000  Uiso   1.00
H212   H     0.03028   0.23748   0.41935   0.00000  Uiso   1.00
H213   H     0.30845   0.40987   0.12677   0.00000  Uiso   1.00
H214   H     0.02017   0.55582   0.83665   0.00000  Uiso   1.00
H215   H     0.11624   0.51604   0.47954   0.00000  Uiso   1.00
H216   H     0.07377   0.44186   0.62830   0.00000  Uiso   1.00
H217   H     0.20570   0.52362   0.48955   0.00000  Uiso   1.00
H218   H     0.06899   0.59283   0.35197   0.00000  Uiso   1.00
H219   H     0.02718   0.34355   0.74403   0.00000  Uiso   1.00
H220   H     0.30534   0.51594   0.45144   0.00000  Uiso   1.00
H221   H     0.01707   0.66189   0.16133   0.00000  Uiso   1.00
O222   O     0.00087   0.23948   0.67272   0.00000  Uiso   1.00
O223   O     0.36581   0.46566   0.28884   0.00000  Uiso   1.00
O224   O     0.98760   0.65714   0.90822   0.00000  Uiso   1.00
N225   N     0.03537   0.27263   0.47534   0.00000  Uiso   1.00
N226   N     0.29544   0.43380   0.20180   0.00000  Uiso   1.00
N227   N     0.02594   0.57025   0.93056   0.00000  Uiso   1.00
N228   N     0.03370   0.32970   0.65005   0.00000  Uiso   1.00
N229   N     0.29377   0.49087   0.37651   0.00000  Uiso   1.00
N230   N     0.02427   0.62733   0.10526   0.00000  Uiso   1.00
C231   C     0.11904   0.92053   0.68720   0.00000  Uiso   1.00
C232   C     0.09556   0.89372   0.80930   0.00000  Uiso   1.00
C233   C     0.07676   0.83938   0.81465   0.00000  Uiso   1.00
C234   C     0.05684   0.82277   0.93569   0.00000  Uiso   1.00
C235   C     0.02057   0.77558   0.10832   0.00000  Uiso   1.00
C236   C     0.16724   0.93813   0.73393   0.00000  Uiso   1.00
C237   C     0.20871   0.92114   0.67589   0.00000  Uiso   1.00
C238   C     0.24912   0.94192   0.73347   0.00000  Uiso   1.00
C239   C     0.32414   0.96372   0.78902   0.00000  Uiso   1.00
C240   C     0.09296   0.97573   0.65918   0.00000  Uiso   1.00
C241   C     0.07198   0.99037   0.53828   0.00000  Uiso   1.00
C242   C     0.04986   0.04281   0.53292   0.00000  Uiso   1.00
C243   C     0.00955   0.12299   0.47242   0.00000  Uiso   1.00
C244   C     0.11707   0.98765   0.89265   0.00000  Uiso   1.00
C245   C     0.09450   0.93018   0.92089   0.00000  Uiso   1.00
C246   C     0.07459   0.91364   0.04196   0.00000  Uiso   1.00
C247   C     0.05577   0.85929   0.04748   0.00000  Uiso   1.00
C248   C     0.16618   0.97459   0.84552   0.00000  Uiso   1.00
C249   C     0.20654   0.99540   0.90319   0.00000  Uiso   1.00
C250   C     0.24805   0.97844   0.84527   0.00000  Uiso   1.00
C251   C     0.09189   0.01219   0.77077   0.00000  Uiso   1.00
C252   C     0.06981   0.06463   0.76559   0.00000  Uiso   1.00
C253   C     0.04879   0.07933   0.64472   0.00000  Uiso   1.00
H254   H     0.11987   0.89215   0.60033   0.00000  Uiso   1.00
H255   H     0.07760   0.81118   0.72827   0.00000  Uiso   1.00
H256   H     0.20952   0.89293   0.58952   0.00000  Uiso   1.00
H257   H     0.07281   0.96214   0.45195   0.00000  Uiso   1.00
H258   H     0.03028   0.73748   0.91935   0.00000  Uiso   1.00
H259   H     0.30845   0.90987   0.62677   0.00000  Uiso   1.00
H260   H     0.02017   0.05582   0.33665   0.00000  Uiso   1.00
H261   H     0.11624   0.01604   0.97954   0.00000  Uiso   1.00
H262   H     0.07377   0.94186   0.12830   0.00000  Uiso   1.00
H263   H     0.20570   0.02362   0.98955   0.00000  Uiso   1.00
H264   H     0.06899   0.09283   0.85197   0.00000  Uiso   1.00
H265   H     0.02718   0.84355   0.24403   0.00000  Uiso   1.00
H266   H     0.30534   0.01594   0.95144   0.00000  Uiso   1.00
H267   H     0.01707   0.16189   0.66133   0.00000  Uiso   1.00
O268   O     0.00087   0.73948   0.17272   0.00000  Uiso   1.00
O269   O     0.36581   0.96566   0.78884   0.00000  Uiso   1.00
O270   O     0.98760   0.15714   0.40822   0.00000  Uiso   1.00
N271   N     0.03537   0.77263   0.97534   0.00000  Uiso   1.00
N272   N     0.29544   0.93380   0.70180   0.00000  Uiso   1.00
N273   N     0.02594   0.07025   0.43056   0.00000  Uiso   1.00
N274   N     0.03370   0.82970   0.15005   0.00000  Uiso   1.00
N275   N     0.29377   0.99087   0.87651   0.00000  Uiso   1.00
N276   N     0.02427   0.12733   0.60526   0.00000  Uiso   1.00
C277   C     0.88096   0.57947   0.18720   0.00000  Uiso   1.00
C278   C     0.90444   0.60628   0.30930   0.00000  Uiso   1.00
C279   C     0.92324   0.66062   0.31465   0.00000  Uiso   1.00
C280   C     0.94316   0.67723   0.43569   0.00000  Uiso   1.00
C281   C     0.97943   0.72442   0.60832   0.00000  Uiso   1.00
C282   C     0.83276   0.56187   0.23393   0.00000  Uiso   1.00
C283   C     0.79129   0.57886   0.17589   0.00000  Uiso   1.00
C284   C     0.75088   0.55808   0.23347   0.00000  Uiso   1.00
C285   C     0.67586   0.53628   0.28902   0.00000  Uiso   1.00
C286   C     0.90704   0.52427   0.15918   0.00000  Uiso   1.00
C287   C     0.92802   0.50963   0.03828   0.00000  Uiso   1.00
C288   C     0.95014   0.45719   0.03292   0.00000  Uiso   1.00
C289   C     0.99045   0.37701   0.97242   0.00000  Uiso   1.00
C290   C     0.88293   0.51235   0.39265   0.00000  Uiso   1.00
C291   C     0.90550   0.56982   0.42089   0.00000  Uiso   1.00
C292   C     0.92541   0.58636   0.54196   0.00000  Uiso   1.00
C293   C     0.94423   0.64071   0.54748   0.00000  Uiso   1.00
C294   C     0.83382   0.52541   0.34552   0.00000  Uiso   1.00
C295   C     0.79346   0.50460   0.40319   0.00000  Uiso   1.00
C296   C     0.75195   0.52156   0.34527   0.00000  Uiso   1.00
C297   C     0.90811   0.48781   0.27077   0.00000  Uiso   1.00
C298   C     0.93019   0.43537   0.26559   0.00000  Uiso   1.00
C299   C     0.95121   0.42067   0.14472   0.00000  Uiso   1.00
H300   H     0.88013   0.60785   0.10033   0.00000  Uiso   1.00
H301   H     0.92240   0.68882   0.22827   0.00000  Uiso   1.00
H302   H     0.79048   0.60707   0.08952   0.00000  Uiso   1.00
H303   H     0.92719   0.53786   0.95195   0.00000  Uiso   1.00
H304   H     0.96972   0.76252   0.41935   0.00000  Uiso   1.00
H305   H     0.69155   0.59013   0.12677   0.00000  Uiso   1.00
H306   H     0.97983   0.44418   0.83665   0.00000  Uiso   1.00
H307   H     0.88376   0.48396   0.47954   0.00000  Uiso   1.00
H308   H     0.92623   0.55814   0.62830   0.00000  Uiso   1.00
H309   H     0.79430   0.47638   0.48955   0.00000  Uiso   1.00
H310   H     0.93101   0.40717   0.35197   0.00000  Uiso   1.00
H311   H     0.97282   0.65645   0.74403   0.00000  Uiso   1.00
H312   H     0.69466   0.48406   0.45144   0.00000  Uiso   1.00
H313   H     0.98293   0.33811   0.16133   0.00000  Uiso   1.00
O314   O     0.99913   0.76052   0.67272   0.00000  Uiso   1.00
O315   O     0.63419   0.53434   0.28884   0.00000  Uiso   1.00
O316   O     0.01240   0.34286   0.90822   0.00000  Uiso   1.00
N317   N     0.96463   0.72737   0.47534   0.00000  Uiso   1.00
N318   N     0.70456   0.56620   0.20180   0.00000  Uiso   1.00
N319   N     0.97406   0.42975   0.93056   0.00000  Uiso   1.00
N320   N     0.96630   0.67030   0.65005   0.00000  Uiso   1.00
N321   N     0.70623   0.50913   0.37651   0.00000  Uiso   1.00
N322   N     0.97573   0.37267   0.10526   0.00000  Uiso   1.00
C323   C     0.88096   0.07947   0.68720   0.00000  Uiso   1.00
C324   C     0.90444   0.10628   0.80930   0.00000  Uiso   1.00
C325   C     0.92324   0.16062   0.81465   0.00000  Uiso   1.00
C326   C     0.94316   0.17723   0.93569   0.00000  Uiso   1.00
C327   C     0.97943   0.22442   0.10832   0.00000  Uiso   1.00
C328   C     0.83276   0.06187   0.73393   0.00000  Uiso   1.00
C329   C     0.79129   0.07886   0.67589   0.00000  Uiso   1.00
C330   C     0.75088   0.05808   0.73347   0.00000  Uiso   1.00
C331   C     0.67586   0.03628   0.78902   0.00000  Uiso   1.00
C332   C     0.90704   0.02427   0.65918   0.00000  Uiso   1.00
C333   C     0.92802   0.00963   0.53828   0.00000  Uiso   1.00
C334   C     0.95014   0.95719   0.53292   0.00000  Uiso   1.00
C335   C     0.99045   0.87701   0.47242   0.00000  Uiso   1.00
C336   C     0.88293   0.01235   0.89265   0.00000  Uiso   1.00
C337   C     0.90550   0.06982   0.92089   0.00000  Uiso   1.00
C338   C     0.92541   0.08636   0.04196   0.00000  Uiso   1.00
C339   C     0.94423   0.14071   0.04748   0.00000  Uiso   1.00
C340   C     0.83382   0.02541   0.84552   0.00000  Uiso   1.00
C341   C     0.79346   0.00460   0.90319   0.00000  Uiso   1.00
C342   C     0.75195   0.02156   0.84527   0.00000  Uiso   1.00
C343   C     0.90811   0.98781   0.77077   0.00000  Uiso   1.00
C344   C     0.93019   0.93537   0.76559   0.00000  Uiso   1.00
C345   C     0.95121   0.92067   0.64472   0.00000  Uiso   1.00
H346   H     0.88013   0.10785   0.60033   0.00000  Uiso   1.00
H347   H     0.92240   0.18882   0.72827   0.00000  Uiso   1.00
H348   H     0.79048   0.10707   0.58952   0.00000  Uiso   1.00
H349   H     0.92719   0.03786   0.45195   0.00000  Uiso   1.00
H350   H     0.96972   0.26252   0.91935   0.00000  Uiso   1.00
H351   H     0.69155   0.09013   0.62677   0.00000  Uiso   1.00
H352   H     0.97983   0.94418   0.33665   0.00000  Uiso   1.00
H353   H     0.88376   0.98396   0.97954   0.00000  Uiso   1.00
H354   H     0.92623   0.05814   0.12830   0.00000  Uiso   1.00
H355   H     0.79430   0.97638   0.98955   0.00000  Uiso   1.00
H356   H     0.93101   0.90717   0.85197   0.00000  Uiso   1.00
H357   H     0.97282   0.15645   0.24403   0.00000  Uiso   1.00
H358   H     0.69466   0.98406   0.95144   0.00000  Uiso   1.00
H359   H     0.98293   0.83811   0.66133   0.00000  Uiso   1.00
O360   O     0.99913   0.26052   0.17272   0.00000  Uiso   1.00
O361   O     0.63419   0.03434   0.78884   0.00000  Uiso   1.00
O362   O     0.01240   0.84286   0.40822   0.00000  Uiso   1.00
N363   N     0.96463   0.22737   0.97534   0.00000  Uiso   1.00
N364   N     0.70456   0.06620   0.70180   0.00000  Uiso   1.00
N365   N     0.97406   0.92975   0.43056   0.00000  Uiso   1.00
N366   N     0.96630   0.17030   0.15005   0.00000  Uiso   1.00
N367   N     0.70623   0.00913   0.87651   0.00000  Uiso   1.00
N368   N     0.97573   0.87267   0.60526   0.00000  Uiso   1.00
