data_job_03424
_audit_creation_date              2018-12-19
_audit_creation_method            'Materials Studio'
_symmetry_space_group_name_H-M    'P1'
_symmetry_Int_Tables_number       1
_symmetry_cell_setting            triclinic
loop_
_symmetry_equiv_pos_as_xyz
  x,y,z
_cell_length_a                    27.6889
_cell_length_b                    19.3993
_cell_length_c                    11.1801
_cell_angle_alpha                 90.0000
_cell_angle_beta                  97.3136
_cell_angle_gamma                 90.0000
loop_
_atom_site_label
_atom_site_type_symbol
_atom_site_fract_x
_atom_site_fract_y
_atom_site_fract_z
_atom_site_U_iso_or_equiv
_atom_site_adp_type
_atom_site_occupancy
C1     C     0.62998   0.30725   0.56604   0.00000  Uiso   1.00
C2     C     0.66070   0.36816   0.61747   0.00000  Uiso   1.00
C3     C     0.69132   0.36864   0.72586   0.00000  Uiso   1.00
C4     C     0.71628   0.42943   0.75697   0.00000  Uiso   1.00
C5     C     0.76479   0.51516   0.84822   0.00000  Uiso   1.00
C6     C     0.57760   0.33318   0.54516   0.00000  Uiso   1.00
C7     C     0.53835   0.30426   0.59273   0.00000  Uiso   1.00
C8     C     0.49334   0.33560   0.56294   0.00000  Uiso   1.00
C9     C     0.41283   0.36700   0.54186   0.00000  Uiso   1.00
C10    C     0.64470   0.29381   0.44125   0.00000  Uiso   1.00
C11    C     0.66186   0.23177   0.40145   0.00000  Uiso   1.00
C12    C     0.67335   0.22996   0.28416   0.00000  Uiso   1.00
C13    C     0.69703   0.20022   0.10175   0.00000  Uiso   1.00
C14    C     0.61985   0.41434   0.42853   0.00000  Uiso   1.00
C15    C     0.65519   0.42632   0.54278   0.00000  Uiso   1.00
C16    C     0.68011   0.48712   0.57373   0.00000  Uiso   1.00
C17    C     0.71076   0.48769   0.68214   0.00000  Uiso   1.00
C18    C     0.57209   0.39134   0.47047   0.00000  Uiso   1.00
C19    C     0.52713   0.42273   0.44060   0.00000  Uiso   1.00
C20    C     0.48782   0.39386   0.48812   0.00000  Uiso   1.00
C21    C     0.63920   0.35197   0.36656   0.00000  Uiso   1.00
C22    C     0.65065   0.35025   0.24931   0.00000  Uiso   1.00
C23    C     0.66783   0.28822   0.20934   0.00000  Uiso   1.00
H24    H     0.63427   0.26197   0.62419   0.00000  Uiso   1.00
H25    H     0.69557   0.32362   0.78365   0.00000  Uiso   1.00
H26    H     0.54262   0.25924   0.65052   0.00000  Uiso   1.00
H27    H     0.66612   0.18677   0.45927   0.00000  Uiso   1.00
H28    H     0.76110   0.41763   0.92752   0.00000  Uiso   1.00
H29    H     0.43858   0.28187   0.64679   0.00000  Uiso   1.00
H30    H     0.69901   0.12905   0.24349   0.00000  Uiso   1.00
H31    H     0.61556   0.45962   0.37038   0.00000  Uiso   1.00
H32    H     0.67584   0.53212   0.51591   0.00000  Uiso   1.00
H33    H     0.52288   0.46774   0.38279   0.00000  Uiso   1.00
H34    H     0.64639   0.39527   0.19154   0.00000  Uiso   1.00
H35    H     0.74508   0.58686   0.71022   0.00000  Uiso   1.00
H36    H     0.42256   0.45109   0.42948   0.00000  Uiso   1.00
H37    H     0.68299   0.29827   0.02619   0.00000  Uiso   1.00
O38    O     0.79307   0.54638   0.91920   0.00000  Uiso   1.00
O39    O     0.36994   0.36825   0.55088   0.00000  Uiso   1.00
O40    O     0.71161   0.16776   0.02177   0.00000  Uiso   1.00
N41    N     0.74906   0.44751   0.85639   0.00000  Uiso   1.00
N42    N     0.44753   0.32058   0.59394   0.00000  Uiso   1.00
N43    N     0.69099   0.17770   0.21689   0.00000  Uiso   1.00
N44    N     0.74045   0.53856   0.73946   0.00000  Uiso   1.00
N45    N     0.43891   0.41164   0.47701   0.00000  Uiso   1.00
N46    N     0.68238   0.26876   0.09996   0.00000  Uiso   1.00
C47    C     0.12998   0.80725   0.56604   0.00000  Uiso   1.00
C48    C     0.16070   0.86816   0.61747   0.00000  Uiso   1.00
C49    C     0.19132   0.86864   0.72586   0.00000  Uiso   1.00
C50    C     0.21628   0.92943   0.75697   0.00000  Uiso   1.00
C51    C     0.26479   0.01516   0.84822   0.00000  Uiso   1.00
C52    C     0.07760   0.83318   0.54516   0.00000  Uiso   1.00
C53    C     0.03835   0.80426   0.59273   0.00000  Uiso   1.00
C54    C     0.99334   0.83560   0.56294   0.00000  Uiso   1.00
C55    C     0.91283   0.86700   0.54186   0.00000  Uiso   1.00
C56    C     0.14470   0.79381   0.44125   0.00000  Uiso   1.00
C57    C     0.16186   0.73177   0.40145   0.00000  Uiso   1.00
C58    C     0.17335   0.72996   0.28416   0.00000  Uiso   1.00
C59    C     0.19703   0.70022   0.10175   0.00000  Uiso   1.00
C60    C     0.11985   0.91434   0.42853   0.00000  Uiso   1.00
C61    C     0.15519   0.92632   0.54278   0.00000  Uiso   1.00
C62    C     0.18011   0.98712   0.57373   0.00000  Uiso   1.00
C63    C     0.21076   0.98769   0.68214   0.00000  Uiso   1.00
C64    C     0.07209   0.89134   0.47047   0.00000  Uiso   1.00
C65    C     0.02713   0.92273   0.44060   0.00000  Uiso   1.00
C66    C     0.98782   0.89386   0.48812   0.00000  Uiso   1.00
C67    C     0.13920   0.85197   0.36656   0.00000  Uiso   1.00
C68    C     0.15065   0.85025   0.24931   0.00000  Uiso   1.00
C69    C     0.16783   0.78822   0.20934   0.00000  Uiso   1.00
H70    H     0.13427   0.76197   0.62419   0.00000  Uiso   1.00
H71    H     0.19557   0.82362   0.78365   0.00000  Uiso   1.00
H72    H     0.04262   0.75924   0.65052   0.00000  Uiso   1.00
H73    H     0.16612   0.68677   0.45927   0.00000  Uiso   1.00
H74    H     0.26110   0.91763   0.92752   0.00000  Uiso   1.00
H75    H     0.93858   0.78187   0.64679   0.00000  Uiso   1.00
H76    H     0.19901   0.62905   0.24349   0.00000  Uiso   1.00
H77    H     0.11556   0.95962   0.37038   0.00000  Uiso   1.00
H78    H     0.17584   0.03212   0.51591   0.00000  Uiso   1.00
H79    H     0.02288   0.96774   0.38279   0.00000  Uiso   1.00
H80    H     0.14639   0.89527   0.19154   0.00000  Uiso   1.00
H81    H     0.24508   0.08686   0.71022   0.00000  Uiso   1.00
H82    H     0.92256   0.95109   0.42948   0.00000  Uiso   1.00
H83    H     0.18299   0.79827   0.02619   0.00000  Uiso   1.00
O84    O     0.29307   0.04638   0.91920   0.00000  Uiso   1.00
O85    O     0.86994   0.86825   0.55088   0.00000  Uiso   1.00
O86    O     0.21161   0.66776   0.02177   0.00000  Uiso   1.00
N87    N     0.24906   0.94751   0.85639   0.00000  Uiso   1.00
N88    N     0.94753   0.82058   0.59394   0.00000  Uiso   1.00
N89    N     0.19099   0.67770   0.21689   0.00000  Uiso   1.00
N90    N     0.24045   0.03856   0.73946   0.00000  Uiso   1.00
N91    N     0.93891   0.91164   0.47701   0.00000  Uiso   1.00
N92    N     0.18238   0.76876   0.09996   0.00000  Uiso   1.00
C93    C     0.37002   0.30725   0.93396   0.00000  Uiso   1.00
C94    C     0.33930   0.36816   0.88253   0.00000  Uiso   1.00
C95    C     0.30868   0.36864   0.77414   0.00000  Uiso   1.00
C96    C     0.28372   0.42943   0.74303   0.00000  Uiso   1.00
C97    C     0.23521   0.51516   0.65178   0.00000  Uiso   1.00
C98    C     0.42240   0.33318   0.95484   0.00000  Uiso   1.00
C99    C     0.46165   0.30426   0.90727   0.00000  Uiso   1.00
C100   C     0.50666   0.33560   0.93706   0.00000  Uiso   1.00
C101   C     0.58717   0.36700   0.95814   0.00000  Uiso   1.00
C102   C     0.35530   0.29381   0.05875   0.00000  Uiso   1.00
C103   C     0.33814   0.23177   0.09855   0.00000  Uiso   1.00
C104   C     0.32665   0.22996   0.21584   0.00000  Uiso   1.00
C105   C     0.30297   0.20022   0.39825   0.00000  Uiso   1.00
C106   C     0.38015   0.41434   0.07147   0.00000  Uiso   1.00
C107   C     0.34481   0.42632   0.95722   0.00000  Uiso   1.00
C108   C     0.31989   0.48712   0.92627   0.00000  Uiso   1.00
C109   C     0.28924   0.48769   0.81786   0.00000  Uiso   1.00
C110   C     0.42791   0.39134   0.02953   0.00000  Uiso   1.00
C111   C     0.47287   0.42273   0.05940   0.00000  Uiso   1.00
C112   C     0.51218   0.39386   0.01188   0.00000  Uiso   1.00
C113   C     0.36080   0.35197   0.13344   0.00000  Uiso   1.00
C114   C     0.34935   0.35025   0.25069   0.00000  Uiso   1.00
C115   C     0.33217   0.28822   0.29066   0.00000  Uiso   1.00
H116   H     0.36573   0.26197   0.87581   0.00000  Uiso   1.00
H117   H     0.30443   0.32362   0.71635   0.00000  Uiso   1.00
H118   H     0.45738   0.25924   0.84948   0.00000  Uiso   1.00
H119   H     0.33388   0.18677   0.04073   0.00000  Uiso   1.00
H120   H     0.23890   0.41763   0.57248   0.00000  Uiso   1.00
H121   H     0.56142   0.28187   0.85321   0.00000  Uiso   1.00
H122   H     0.30099   0.12905   0.25651   0.00000  Uiso   1.00
H123   H     0.38444   0.45962   0.12962   0.00000  Uiso   1.00
H124   H     0.32416   0.53212   0.98409   0.00000  Uiso   1.00
H125   H     0.47712   0.46774   0.11721   0.00000  Uiso   1.00
H126   H     0.35361   0.39527   0.30846   0.00000  Uiso   1.00
H127   H     0.25492   0.58686   0.78978   0.00000  Uiso   1.00
H128   H     0.57744   0.45109   0.07052   0.00000  Uiso   1.00
H129   H     0.31701   0.29827   0.47381   0.00000  Uiso   1.00
O130   O     0.20693   0.54638   0.58080   0.00000  Uiso   1.00
O131   O     0.63006   0.36825   0.94912   0.00000  Uiso   1.00
O132   O     0.28839   0.16776   0.47823   0.00000  Uiso   1.00
N133   N     0.25094   0.44751   0.64361   0.00000  Uiso   1.00
N134   N     0.55247   0.32058   0.90606   0.00000  Uiso   1.00
N135   N     0.30901   0.17770   0.28311   0.00000  Uiso   1.00
N136   N     0.25955   0.53856   0.76054   0.00000  Uiso   1.00
N137   N     0.56109   0.41164   0.02299   0.00000  Uiso   1.00
N138   N     0.31762   0.26876   0.40004   0.00000  Uiso   1.00
C139   C     0.87002   0.80725   0.93396   0.00000  Uiso   1.00
C140   C     0.83930   0.86816   0.88253   0.00000  Uiso   1.00
C141   C     0.80868   0.86864   0.77414   0.00000  Uiso   1.00
C142   C     0.78372   0.92943   0.74303   0.00000  Uiso   1.00
C143   C     0.73521   0.01516   0.65178   0.00000  Uiso   1.00
C144   C     0.92240   0.83318   0.95484   0.00000  Uiso   1.00
C145   C     0.96165   0.80426   0.90727   0.00000  Uiso   1.00
C146   C     0.00666   0.83560   0.93706   0.00000  Uiso   1.00
C147   C     0.08717   0.86700   0.95814   0.00000  Uiso   1.00
C148   C     0.85530   0.79381   0.05875   0.00000  Uiso   1.00
C149   C     0.83814   0.73177   0.09855   0.00000  Uiso   1.00
C150   C     0.82665   0.72996   0.21584   0.00000  Uiso   1.00
C151   C     0.80297   0.70022   0.39825   0.00000  Uiso   1.00
C152   C     0.88015   0.91434   0.07147   0.00000  Uiso   1.00
C153   C     0.84481   0.92632   0.95722   0.00000  Uiso   1.00
C154   C     0.81989   0.98712   0.92627   0.00000  Uiso   1.00
C155   C     0.78924   0.98769   0.81786   0.00000  Uiso   1.00
C156   C     0.92791   0.89134   0.02953   0.00000  Uiso   1.00
C157   C     0.97287   0.92273   0.05940   0.00000  Uiso   1.00
C158   C     0.01218   0.89386   0.01188   0.00000  Uiso   1.00
C159   C     0.86080   0.85197   0.13344   0.00000  Uiso   1.00
C160   C     0.84935   0.85025   0.25069   0.00000  Uiso   1.00
C161   C     0.83217   0.78822   0.29066   0.00000  Uiso   1.00
H162   H     0.86573   0.76197   0.87581   0.00000  Uiso   1.00
H163   H     0.80443   0.82362   0.71635   0.00000  Uiso   1.00
H164   H     0.95738   0.75924   0.84948   0.00000  Uiso   1.00
H165   H     0.83388   0.68677   0.04073   0.00000  Uiso   1.00
H166   H     0.73890   0.91763   0.57248   0.00000  Uiso   1.00
H167   H     0.06142   0.78187   0.85321   0.00000  Uiso   1.00
H168   H     0.80099   0.62905   0.25651   0.00000  Uiso   1.00
H169   H     0.88444   0.95962   0.12962   0.00000  Uiso   1.00
H170   H     0.82416   0.03212   0.98409   0.00000  Uiso   1.00
H171   H     0.97712   0.96774   0.11721   0.00000  Uiso   1.00
H172   H     0.85361   0.89527   0.30846   0.00000  Uiso   1.00
H173   H     0.75492   0.08686   0.78978   0.00000  Uiso   1.00
H174   H     0.07744   0.95109   0.07052   0.00000  Uiso   1.00
H175   H     0.81701   0.79827   0.47381   0.00000  Uiso   1.00
O176   O     0.70693   0.04638   0.58080   0.00000  Uiso   1.00
O177   O     0.13006   0.86825   0.94912   0.00000  Uiso   1.00
O178   O     0.78839   0.66776   0.47823   0.00000  Uiso   1.00
N179   N     0.75094   0.94751   0.64361   0.00000  Uiso   1.00
N180   N     0.05247   0.82058   0.90606   0.00000  Uiso   1.00
N181   N     0.80901   0.67770   0.28311   0.00000  Uiso   1.00
N182   N     0.75955   0.03856   0.76054   0.00000  Uiso   1.00
N183   N     0.06109   0.91164   0.02299   0.00000  Uiso   1.00
N184   N     0.81762   0.76876   0.40004   0.00000  Uiso   1.00
C185   C     0.37002   0.69275   0.43396   0.00000  Uiso   1.00
C186   C     0.33930   0.63184   0.38253   0.00000  Uiso   1.00
C187   C     0.30868   0.63136   0.27414   0.00000  Uiso   1.00
C188   C     0.28372   0.57057   0.24303   0.00000  Uiso   1.00
C189   C     0.23521   0.48484   0.15178   0.00000  Uiso   1.00
C190   C     0.42240   0.66682   0.45484   0.00000  Uiso   1.00
C191   C     0.46165   0.69574   0.40727   0.00000  Uiso   1.00
C192   C     0.50666   0.66440   0.43706   0.00000  Uiso   1.00
C193   C     0.58717   0.63300   0.45814   0.00000  Uiso   1.00
C194   C     0.35530   0.70619   0.55875   0.00000  Uiso   1.00
C195   C     0.33814   0.76823   0.59855   0.00000  Uiso   1.00
C196   C     0.32665   0.77004   0.71584   0.00000  Uiso   1.00
C197   C     0.30297   0.79978   0.89825   0.00000  Uiso   1.00
C198   C     0.38015   0.58566   0.57147   0.00000  Uiso   1.00
C199   C     0.34481   0.57368   0.45722   0.00000  Uiso   1.00
C200   C     0.31989   0.51288   0.42627   0.00000  Uiso   1.00
C201   C     0.28924   0.51231   0.31786   0.00000  Uiso   1.00
C202   C     0.42791   0.60866   0.52953   0.00000  Uiso   1.00
C203   C     0.47287   0.57727   0.55940   0.00000  Uiso   1.00
C204   C     0.51218   0.60614   0.51188   0.00000  Uiso   1.00
C205   C     0.36080   0.64803   0.63344   0.00000  Uiso   1.00
C206   C     0.34935   0.64975   0.75069   0.00000  Uiso   1.00
C207   C     0.33217   0.71178   0.79066   0.00000  Uiso   1.00
H208   H     0.36573   0.73803   0.37581   0.00000  Uiso   1.00
H209   H     0.30443   0.67638   0.21635   0.00000  Uiso   1.00
H210   H     0.45738   0.74076   0.34948   0.00000  Uiso   1.00
H211   H     0.33388   0.81323   0.54073   0.00000  Uiso   1.00
H212   H     0.23890   0.58237   0.07248   0.00000  Uiso   1.00
H213   H     0.56142   0.71813   0.35321   0.00000  Uiso   1.00
H214   H     0.30099   0.87095   0.75651   0.00000  Uiso   1.00
H215   H     0.38444   0.54038   0.62962   0.00000  Uiso   1.00
H216   H     0.32416   0.46788   0.48409   0.00000  Uiso   1.00
H217   H     0.47712   0.53226   0.61721   0.00000  Uiso   1.00
H218   H     0.35361   0.60473   0.80846   0.00000  Uiso   1.00
H219   H     0.25492   0.41314   0.28978   0.00000  Uiso   1.00
H220   H     0.57744   0.54891   0.57052   0.00000  Uiso   1.00
H221   H     0.31701   0.70173   0.97381   0.00000  Uiso   1.00
O222   O     0.20693   0.45362   0.08080   0.00000  Uiso   1.00
O223   O     0.63006   0.63175   0.44912   0.00000  Uiso   1.00
O224   O     0.28839   0.83224   0.97823   0.00000  Uiso   1.00
N225   N     0.25094   0.55249   0.14361   0.00000  Uiso   1.00
N226   N     0.55247   0.67942   0.40606   0.00000  Uiso   1.00
N227   N     0.30901   0.82230   0.78311   0.00000  Uiso   1.00
N228   N     0.25955   0.46144   0.26054   0.00000  Uiso   1.00
N229   N     0.56109   0.58836   0.52299   0.00000  Uiso   1.00
N230   N     0.31762   0.73124   0.90004   0.00000  Uiso   1.00
C231   C     0.87002   0.19275   0.43396   0.00000  Uiso   1.00
C232   C     0.83930   0.13184   0.38253   0.00000  Uiso   1.00
C233   C     0.80868   0.13136   0.27414   0.00000  Uiso   1.00
C234   C     0.78372   0.07057   0.24303   0.00000  Uiso   1.00
C235   C     0.73521   0.98484   0.15178   0.00000  Uiso   1.00
C236   C     0.92240   0.16682   0.45484   0.00000  Uiso   1.00
C237   C     0.96165   0.19574   0.40727   0.00000  Uiso   1.00
C238   C     0.00666   0.16440   0.43706   0.00000  Uiso   1.00
C239   C     0.08717   0.13300   0.45814   0.00000  Uiso   1.00
C240   C     0.85530   0.20619   0.55875   0.00000  Uiso   1.00
C241   C     0.83814   0.26823   0.59855   0.00000  Uiso   1.00
C242   C     0.82665   0.27004   0.71584   0.00000  Uiso   1.00
C243   C     0.80297   0.29978   0.89825   0.00000  Uiso   1.00
C244   C     0.88015   0.08566   0.57147   0.00000  Uiso   1.00
C245   C     0.84481   0.07368   0.45722   0.00000  Uiso   1.00
C246   C     0.81989   0.01288   0.42627   0.00000  Uiso   1.00
C247   C     0.78924   0.01231   0.31786   0.00000  Uiso   1.00
C248   C     0.92791   0.10866   0.52953   0.00000  Uiso   1.00
C249   C     0.97287   0.07727   0.55940   0.00000  Uiso   1.00
C250   C     0.01218   0.10614   0.51188   0.00000  Uiso   1.00
C251   C     0.86080   0.14803   0.63344   0.00000  Uiso   1.00
C252   C     0.84935   0.14975   0.75069   0.00000  Uiso   1.00
C253   C     0.83217   0.21178   0.79066   0.00000  Uiso   1.00
H254   H     0.86573   0.23803   0.37581   0.00000  Uiso   1.00
H255   H     0.80443   0.17638   0.21635   0.00000  Uiso   1.00
H256   H     0.95738   0.24076   0.34948   0.00000  Uiso   1.00
H257   H     0.83388   0.31323   0.54073   0.00000  Uiso   1.00
H258   H     0.73890   0.08237   0.07248   0.00000  Uiso   1.00
H259   H     0.06142   0.21813   0.35321   0.00000  Uiso   1.00
H260   H     0.80099   0.37095   0.75651   0.00000  Uiso   1.00
H261   H     0.88444   0.04038   0.62962   0.00000  Uiso   1.00
H262   H     0.82416   0.96788   0.48409   0.00000  Uiso   1.00
H263   H     0.97712   0.03226   0.61721   0.00000  Uiso   1.00
H264   H     0.85361   0.10473   0.80846   0.00000  Uiso   1.00
H265   H     0.75492   0.91314   0.28978   0.00000  Uiso   1.00
H266   H     0.07744   0.04891   0.57052   0.00000  Uiso   1.00
H267   H     0.81701   0.20173   0.97381   0.00000  Uiso   1.00
O268   O     0.70693   0.95362   0.08080   0.00000  Uiso   1.00
O269   O     0.13006   0.13175   0.44912   0.00000  Uiso   1.00
O270   O     0.78839   0.33224   0.97823   0.00000  Uiso   1.00
N271   N     0.75094   0.05249   0.14361   0.00000  Uiso   1.00
N272   N     0.05247   0.17942   0.40606   0.00000  Uiso   1.00
N273   N     0.80901   0.32230   0.78311   0.00000  Uiso   1.00
N274   N     0.75955   0.96144   0.26054   0.00000  Uiso   1.00
N275   N     0.06109   0.08836   0.52299   0.00000  Uiso   1.00
N276   N     0.81762   0.23124   0.90004   0.00000  Uiso   1.00
C277   C     0.62998   0.69275   0.06604   0.00000  Uiso   1.00
C278   C     0.66070   0.63184   0.11747   0.00000  Uiso   1.00
C279   C     0.69132   0.63136   0.22586   0.00000  Uiso   1.00
C280   C     0.71628   0.57057   0.25697   0.00000  Uiso   1.00
C281   C     0.76479   0.48484   0.34822   0.00000  Uiso   1.00
C282   C     0.57760   0.66682   0.04516   0.00000  Uiso   1.00
C283   C     0.53835   0.69574   0.09273   0.00000  Uiso   1.00
C284   C     0.49334   0.66440   0.06294   0.00000  Uiso   1.00
C285   C     0.41283   0.63300   0.04186   0.00000  Uiso   1.00
C286   C     0.64470   0.70619   0.94125   0.00000  Uiso   1.00
C287   C     0.66186   0.76823   0.90145   0.00000  Uiso   1.00
C288   C     0.67335   0.77004   0.78416   0.00000  Uiso   1.00
C289   C     0.69703   0.79978   0.60175   0.00000  Uiso   1.00
C290   C     0.61985   0.58566   0.92853   0.00000  Uiso   1.00
C291   C     0.65519   0.57368   0.04278   0.00000  Uiso   1.00
C292   C     0.68011   0.51288   0.07373   0.00000  Uiso   1.00
C293   C     0.71076   0.51231   0.18214   0.00000  Uiso   1.00
C294   C     0.57209   0.60866   0.97047   0.00000  Uiso   1.00
C295   C     0.52713   0.57727   0.94060   0.00000  Uiso   1.00
C296   C     0.48782   0.60614   0.98812   0.00000  Uiso   1.00
C297   C     0.63920   0.64803   0.86656   0.00000  Uiso   1.00
C298   C     0.65065   0.64975   0.74931   0.00000  Uiso   1.00
C299   C     0.66783   0.71178   0.70934   0.00000  Uiso   1.00
H300   H     0.63427   0.73803   0.12419   0.00000  Uiso   1.00
H301   H     0.69557   0.67638   0.28365   0.00000  Uiso   1.00
H302   H     0.54262   0.74076   0.15052   0.00000  Uiso   1.00
H303   H     0.66612   0.81323   0.95927   0.00000  Uiso   1.00
H304   H     0.76110   0.58237   0.42752   0.00000  Uiso   1.00
H305   H     0.43858   0.71813   0.14679   0.00000  Uiso   1.00
H306   H     0.69901   0.87095   0.74349   0.00000  Uiso   1.00
H307   H     0.61556   0.54038   0.87038   0.00000  Uiso   1.00
H308   H     0.67584   0.46788   0.01591   0.00000  Uiso   1.00
H309   H     0.52288   0.53226   0.88279   0.00000  Uiso   1.00
H310   H     0.64639   0.60473   0.69154   0.00000  Uiso   1.00
H311   H     0.74508   0.41314   0.21022   0.00000  Uiso   1.00
H312   H     0.42256   0.54891   0.92948   0.00000  Uiso   1.00
H313   H     0.68299   0.70173   0.52619   0.00000  Uiso   1.00
O314   O     0.79307   0.45362   0.41920   0.00000  Uiso   1.00
O315   O     0.36994   0.63175   0.05088   0.00000  Uiso   1.00
O316   O     0.71161   0.83224   0.52177   0.00000  Uiso   1.00
N317   N     0.74906   0.55249   0.35639   0.00000  Uiso   1.00
N318   N     0.44753   0.67942   0.09394   0.00000  Uiso   1.00
N319   N     0.69099   0.82230   0.71689   0.00000  Uiso   1.00
N320   N     0.74045   0.46144   0.23946   0.00000  Uiso   1.00
N321   N     0.43891   0.58836   0.97701   0.00000  Uiso   1.00
N322   N     0.68238   0.73124   0.59996   0.00000  Uiso   1.00
C323   C     0.12998   0.19275   0.06604   0.00000  Uiso   1.00
C324   C     0.16070   0.13184   0.11747   0.00000  Uiso   1.00
C325   C     0.19132   0.13136   0.22586   0.00000  Uiso   1.00
C326   C     0.21628   0.07057   0.25697   0.00000  Uiso   1.00
C327   C     0.26479   0.98484   0.34822   0.00000  Uiso   1.00
C328   C     0.07760   0.16682   0.04516   0.00000  Uiso   1.00
C329   C     0.03835   0.19574   0.09273   0.00000  Uiso   1.00
C330   C     0.99334   0.16440   0.06294   0.00000  Uiso   1.00
C331   C     0.91283   0.13300   0.04186   0.00000  Uiso   1.00
C332   C     0.14470   0.20619   0.94125   0.00000  Uiso   1.00
C333   C     0.16186   0.26823   0.90145   0.00000  Uiso   1.00
C334   C     0.17335   0.27004   0.78416   0.00000  Uiso   1.00
C335   C     0.19703   0.29978   0.60175   0.00000  Uiso   1.00
C336   C     0.11985   0.08566   0.92853   0.00000  Uiso   1.00
C337   C     0.15519   0.07368   0.04278   0.00000  Uiso   1.00
C338   C     0.18011   0.01288   0.07373   0.00000  Uiso   1.00
C339   C     0.21076   0.01231   0.18214   0.00000  Uiso   1.00
C340   C     0.07209   0.10866   0.97047   0.00000  Uiso   1.00
C341   C     0.02713   0.07727   0.94060   0.00000  Uiso   1.00
C342   C     0.98782   0.10614   0.98812   0.00000  Uiso   1.00
C343   C     0.13920   0.14803   0.86656   0.00000  Uiso   1.00
C344   C     0.15065   0.14975   0.74931   0.00000  Uiso   1.00
C345   C     0.16783   0.21178   0.70934   0.00000  Uiso   1.00
H346   H     0.13427   0.23803   0.12419   0.00000  Uiso   1.00
H347   H     0.19557   0.17638   0.28365   0.00000  Uiso   1.00
H348   H     0.04262   0.24076   0.15052   0.00000  Uiso   1.00
H349   H     0.16612   0.31323   0.95927   0.00000  Uiso   1.00
H350   H     0.26110   0.08237   0.42752   0.00000  Uiso   1.00
H351   H     0.93858   0.21813   0.14679   0.00000  Uiso   1.00
H352   H     0.19901   0.37095   0.74349   0.00000  Uiso   1.00
H353   H     0.11556   0.04038   0.87038   0.00000  Uiso   1.00
H354   H     0.17584   0.96788   0.01591   0.00000  Uiso   1.00
H355   H     0.02288   0.03226   0.88279   0.00000  Uiso   1.00
H356   H     0.14639   0.10473   0.69154   0.00000  Uiso   1.00
H357   H     0.24508   0.91314   0.21022   0.00000  Uiso   1.00
H358   H     0.92256   0.04891   0.92948   0.00000  Uiso   1.00
H359   H     0.18299   0.20173   0.52619   0.00000  Uiso   1.00
O360   O     0.29307   0.95362   0.41920   0.00000  Uiso   1.00
O361   O     0.86994   0.13175   0.05088   0.00000  Uiso   1.00
O362   O     0.21161   0.33224   0.52177   0.00000  Uiso   1.00
N363   N     0.24906   0.05249   0.35639   0.00000  Uiso   1.00
N364   N     0.94753   0.17942   0.09394   0.00000  Uiso   1.00
N365   N     0.19099   0.32230   0.71689   0.00000  Uiso   1.00
N366   N     0.24045   0.96144   0.23946   0.00000  Uiso   1.00
N367   N     0.93891   0.08836   0.97701   0.00000  Uiso   1.00
N368   N     0.18238   0.23124   0.59996   0.00000  Uiso   1.00
