data_job_03204
_audit_creation_date              2018-12-19
_audit_creation_method            'Materials Studio'
_symmetry_space_group_name_H-M    'P1'
_symmetry_Int_Tables_number       1
_symmetry_cell_setting            triclinic
loop_
_symmetry_equiv_pos_as_xyz
  x,y,z
_cell_length_a                    14.6733
_cell_length_b                    12.5224
_cell_length_c                    50.1260
_cell_angle_alpha                 90.0000
_cell_angle_beta                  114.8755
_cell_angle_gamma                 90.0000
loop_
_atom_site_label
_atom_site_type_symbol
_atom_site_fract_x
_atom_site_fract_y
_atom_site_fract_z
_atom_site_U_iso_or_equiv
_atom_site_adp_type
_atom_site_occupancy
C1     C     0.45855   0.87582   0.38026   0.00000  Uiso   1.00
C2     C     0.51670   0.86741   0.36129   0.00000  Uiso   1.00
C3     C     0.47807   0.88638   0.33126   0.00000  Uiso   1.00
C4     C     0.54343   0.87440   0.31794   0.00000  Uiso   1.00
C5     C     0.61844   0.86584   0.28603   0.00000  Uiso   1.00
C6     C     0.46911   0.76750   0.39518   0.00000  Uiso   1.00
C7     C     0.39045   0.70248   0.39364   0.00000  Uiso   1.00
C8     C     0.41575   0.60640   0.40884   0.00000  Uiso   1.00
C9     C     0.41687   0.44276   0.42955   0.00000  Uiso   1.00
C10    C     0.51647   0.95485   0.40469   0.00000  Uiso   1.00
C11    C     0.47763   0.04733   0.41115   0.00000  Uiso   1.00
C12    C     0.54280   0.10897   0.43436   0.00000  Uiso   1.00
C13    C     0.61746   0.23621   0.46983   0.00000  Uiso   1.00
C14    C     0.64334   0.82083   0.41000   0.00000  Uiso   1.00
C15    C     0.61707   0.83754   0.37745   0.00000  Uiso   1.00
C16    C     0.68251   0.82554   0.36416   0.00000  Uiso   1.00
C17    C     0.64398   0.84448   0.33412   0.00000  Uiso   1.00
C18    C     0.56947   0.73763   0.41133   0.00000  Uiso   1.00
C19    C     0.59489   0.64163   0.42653   0.00000  Uiso   1.00
C20    C     0.51630   0.57648   0.42502   0.00000  Uiso   1.00
C21    C     0.61684   0.92498   0.42084   0.00000  Uiso   1.00
C22    C     0.68208   0.98649   0.44404   0.00000  Uiso   1.00
C23    C     0.64335   0.07904   0.45054   0.00000  Uiso   1.00
H24    H     0.38041   0.89907   0.36769   0.00000  Uiso   1.00
H25    H     0.40038   0.90948   0.31877   0.00000  Uiso   1.00
H26    H     0.31279   0.72562   0.38114   0.00000  Uiso   1.00
H27    H     0.39996   0.07042   0.39864   0.00000  Uiso   1.00
H28    H     0.46679   0.90782   0.27166   0.00000  Uiso   1.00
H29    H     0.28208   0.52014   0.40317   0.00000  Uiso   1.00
H30    H     0.46589   0.24722   0.44009   0.00000  Uiso   1.00
H31    H     0.72148   0.79757   0.42257   0.00000  Uiso   1.00
H32    H     0.76018   0.80242   0.37667   0.00000  Uiso   1.00
H33    H     0.67257   0.61855   0.43903   0.00000  Uiso   1.00
H34    H     0.75974   0.96335   0.45654   0.00000  Uiso   1.00
H35    H     0.75881   0.82091   0.31865   0.00000  Uiso   1.00
H36    H     0.57409   0.43324   0.45016   0.00000  Uiso   1.00
H37    H     0.75791   0.16031   0.48707   0.00000  Uiso   1.00
O38    O     0.63209   0.86935   0.26397   0.00000  Uiso   1.00
O39    O     0.38976   0.36075   0.43651   0.00000  Uiso   1.00
O40    O     0.63092   0.31465   0.48494   0.00000  Uiso   1.00
N41    N     0.53021   0.88672   0.28902   0.00000  Uiso   1.00
N42    N     0.35752   0.52426   0.41197   0.00000  Uiso   1.00
N43    N     0.52936   0.20400   0.44649   0.00000  Uiso   1.00
N44    N     0.68734   0.83996   0.31430   0.00000  Uiso   1.00
N45    N     0.51465   0.47750   0.43726   0.00000  Uiso   1.00
N46    N     0.68649   0.15724   0.47177   0.00000  Uiso   1.00
C47    C     0.95855   0.37582   0.38026   0.00000  Uiso   1.00
C48    C     0.01670   0.36741   0.36129   0.00000  Uiso   1.00
C49    C     0.97807   0.38638   0.33126   0.00000  Uiso   1.00
C50    C     0.04343   0.37440   0.31794   0.00000  Uiso   1.00
C51    C     0.11844   0.36584   0.28603   0.00000  Uiso   1.00
C52    C     0.96911   0.26750   0.39518   0.00000  Uiso   1.00
C53    C     0.89045   0.20248   0.39364   0.00000  Uiso   1.00
C54    C     0.91575   0.10640   0.40884   0.00000  Uiso   1.00
C55    C     0.91687   0.94276   0.42955   0.00000  Uiso   1.00
C56    C     0.01647   0.45485   0.40469   0.00000  Uiso   1.00
C57    C     0.97763   0.54733   0.41115   0.00000  Uiso   1.00
C58    C     0.04280   0.60897   0.43436   0.00000  Uiso   1.00
C59    C     0.11746   0.73621   0.46983   0.00000  Uiso   1.00
C60    C     0.14334   0.32083   0.41000   0.00000  Uiso   1.00
C61    C     0.11707   0.33754   0.37745   0.00000  Uiso   1.00
C62    C     0.18251   0.32554   0.36416   0.00000  Uiso   1.00
C63    C     0.14398   0.34448   0.33412   0.00000  Uiso   1.00
C64    C     0.06947   0.23763   0.41133   0.00000  Uiso   1.00
C65    C     0.09489   0.14163   0.42653   0.00000  Uiso   1.00
C66    C     0.01630   0.07648   0.42502   0.00000  Uiso   1.00
C67    C     0.11684   0.42498   0.42084   0.00000  Uiso   1.00
C68    C     0.18208   0.48649   0.44404   0.00000  Uiso   1.00
C69    C     0.14335   0.57904   0.45054   0.00000  Uiso   1.00
H70    H     0.88041   0.39907   0.36769   0.00000  Uiso   1.00
H71    H     0.90038   0.40948   0.31877   0.00000  Uiso   1.00
H72    H     0.81279   0.22562   0.38114   0.00000  Uiso   1.00
H73    H     0.89996   0.57042   0.39864   0.00000  Uiso   1.00
H74    H     0.96679   0.40782   0.27166   0.00000  Uiso   1.00
H75    H     0.78208   0.02014   0.40317   0.00000  Uiso   1.00
H76    H     0.96589   0.74722   0.44009   0.00000  Uiso   1.00
H77    H     0.22148   0.29757   0.42257   0.00000  Uiso   1.00
H78    H     0.26018   0.30242   0.37667   0.00000  Uiso   1.00
H79    H     0.17257   0.11855   0.43903   0.00000  Uiso   1.00
H80    H     0.25974   0.46335   0.45654   0.00000  Uiso   1.00
H81    H     0.25881   0.32091   0.31865   0.00000  Uiso   1.00
H82    H     0.07409   0.93324   0.45016   0.00000  Uiso   1.00
H83    H     0.25791   0.66031   0.48707   0.00000  Uiso   1.00
O84    O     0.13209   0.36935   0.26397   0.00000  Uiso   1.00
O85    O     0.88976   0.86075   0.43651   0.00000  Uiso   1.00
O86    O     0.13092   0.81465   0.48494   0.00000  Uiso   1.00
N87    N     0.03021   0.38672   0.28902   0.00000  Uiso   1.00
N88    N     0.85752   0.02426   0.41197   0.00000  Uiso   1.00
N89    N     0.02936   0.70400   0.44649   0.00000  Uiso   1.00
N90    N     0.18734   0.33996   0.31430   0.00000  Uiso   1.00
N91    N     0.01465   0.97750   0.43726   0.00000  Uiso   1.00
N92    N     0.18649   0.65724   0.47177   0.00000  Uiso   1.00
C93    C     0.54145   0.87582   0.11974   0.00000  Uiso   1.00
C94    C     0.48330   0.86741   0.13871   0.00000  Uiso   1.00
C95    C     0.52193   0.88638   0.16874   0.00000  Uiso   1.00
C96    C     0.45657   0.87440   0.18206   0.00000  Uiso   1.00
C97    C     0.38156   0.86584   0.21397   0.00000  Uiso   1.00
C98    C     0.53089   0.76750   0.10482   0.00000  Uiso   1.00
C99    C     0.60955   0.70248   0.10636   0.00000  Uiso   1.00
C100   C     0.58425   0.60640   0.09116   0.00000  Uiso   1.00
C101   C     0.58313   0.44276   0.07045   0.00000  Uiso   1.00
C102   C     0.48353   0.95485   0.09531   0.00000  Uiso   1.00
C103   C     0.52237   0.04733   0.08885   0.00000  Uiso   1.00
C104   C     0.45720   0.10897   0.06564   0.00000  Uiso   1.00
C105   C     0.38254   0.23621   0.03017   0.00000  Uiso   1.00
C106   C     0.35666   0.82083   0.09000   0.00000  Uiso   1.00
C107   C     0.38293   0.83754   0.12255   0.00000  Uiso   1.00
C108   C     0.31749   0.82554   0.13584   0.00000  Uiso   1.00
C109   C     0.35602   0.84448   0.16588   0.00000  Uiso   1.00
C110   C     0.43053   0.73763   0.08867   0.00000  Uiso   1.00
C111   C     0.40511   0.64163   0.07347   0.00000  Uiso   1.00
C112   C     0.48370   0.57648   0.07498   0.00000  Uiso   1.00
C113   C     0.38316   0.92498   0.07916   0.00000  Uiso   1.00
C114   C     0.31792   0.98649   0.05596   0.00000  Uiso   1.00
C115   C     0.35665   0.07904   0.04946   0.00000  Uiso   1.00
H116   H     0.61959   0.89907   0.13231   0.00000  Uiso   1.00
H117   H     0.59962   0.90948   0.18123   0.00000  Uiso   1.00
H118   H     0.68721   0.72562   0.11886   0.00000  Uiso   1.00
H119   H     0.60004   0.07042   0.10136   0.00000  Uiso   1.00
H120   H     0.53321   0.90782   0.22834   0.00000  Uiso   1.00
H121   H     0.71792   0.52014   0.09683   0.00000  Uiso   1.00
H122   H     0.53411   0.24722   0.05991   0.00000  Uiso   1.00
H123   H     0.27852   0.79757   0.07743   0.00000  Uiso   1.00
H124   H     0.23982   0.80242   0.12333   0.00000  Uiso   1.00
H125   H     0.32743   0.61855   0.06097   0.00000  Uiso   1.00
H126   H     0.24026   0.96335   0.04346   0.00000  Uiso   1.00
H127   H     0.24119   0.82091   0.18135   0.00000  Uiso   1.00
H128   H     0.42591   0.43324   0.04984   0.00000  Uiso   1.00
H129   H     0.24209   0.16031   0.01293   0.00000  Uiso   1.00
O130   O     0.36791   0.86935   0.23603   0.00000  Uiso   1.00
O131   O     0.61024   0.36075   0.06349   0.00000  Uiso   1.00
O132   O     0.36908   0.31465   0.01506   0.00000  Uiso   1.00
N133   N     0.46979   0.88672   0.21098   0.00000  Uiso   1.00
N134   N     0.64248   0.52426   0.08803   0.00000  Uiso   1.00
N135   N     0.47064   0.20400   0.05351   0.00000  Uiso   1.00
N136   N     0.31266   0.83996   0.18570   0.00000  Uiso   1.00
N137   N     0.48535   0.47750   0.06274   0.00000  Uiso   1.00
N138   N     0.31351   0.15724   0.02823   0.00000  Uiso   1.00
C139   C     0.04145   0.37582   0.11974   0.00000  Uiso   1.00
C140   C     0.98330   0.36741   0.13871   0.00000  Uiso   1.00
C141   C     0.02193   0.38638   0.16874   0.00000  Uiso   1.00
C142   C     0.95657   0.37440   0.18206   0.00000  Uiso   1.00
C143   C     0.88156   0.36584   0.21397   0.00000  Uiso   1.00
C144   C     0.03089   0.26750   0.10482   0.00000  Uiso   1.00
C145   C     0.10955   0.20248   0.10636   0.00000  Uiso   1.00
C146   C     0.08425   0.10640   0.09116   0.00000  Uiso   1.00
C147   C     0.08313   0.94276   0.07045   0.00000  Uiso   1.00
C148   C     0.98353   0.45485   0.09531   0.00000  Uiso   1.00
C149   C     0.02237   0.54733   0.08885   0.00000  Uiso   1.00
C150   C     0.95720   0.60897   0.06564   0.00000  Uiso   1.00
C151   C     0.88254   0.73621   0.03017   0.00000  Uiso   1.00
C152   C     0.85666   0.32083   0.09000   0.00000  Uiso   1.00
C153   C     0.88293   0.33754   0.12255   0.00000  Uiso   1.00
C154   C     0.81749   0.32554   0.13584   0.00000  Uiso   1.00
C155   C     0.85602   0.34448   0.16588   0.00000  Uiso   1.00
C156   C     0.93053   0.23763   0.08867   0.00000  Uiso   1.00
C157   C     0.90511   0.14163   0.07347   0.00000  Uiso   1.00
C158   C     0.98370   0.07648   0.07498   0.00000  Uiso   1.00
C159   C     0.88316   0.42498   0.07916   0.00000  Uiso   1.00
C160   C     0.81792   0.48649   0.05596   0.00000  Uiso   1.00
C161   C     0.85665   0.57904   0.04946   0.00000  Uiso   1.00
H162   H     0.11959   0.39907   0.13231   0.00000  Uiso   1.00
H163   H     0.09962   0.40948   0.18123   0.00000  Uiso   1.00
H164   H     0.18721   0.22562   0.11886   0.00000  Uiso   1.00
H165   H     0.10004   0.57042   0.10136   0.00000  Uiso   1.00
H166   H     0.03321   0.40782   0.22834   0.00000  Uiso   1.00
H167   H     0.21792   0.02014   0.09683   0.00000  Uiso   1.00
H168   H     0.03411   0.74722   0.05991   0.00000  Uiso   1.00
H169   H     0.77852   0.29757   0.07743   0.00000  Uiso   1.00
H170   H     0.73982   0.30242   0.12333   0.00000  Uiso   1.00
H171   H     0.82743   0.11855   0.06097   0.00000  Uiso   1.00
H172   H     0.74026   0.46335   0.04346   0.00000  Uiso   1.00
H173   H     0.74119   0.32091   0.18135   0.00000  Uiso   1.00
H174   H     0.92591   0.93324   0.04984   0.00000  Uiso   1.00
H175   H     0.74209   0.66031   0.01293   0.00000  Uiso   1.00
O176   O     0.86791   0.36935   0.23603   0.00000  Uiso   1.00
O177   O     0.11024   0.86075   0.06349   0.00000  Uiso   1.00
O178   O     0.86908   0.81465   0.01506   0.00000  Uiso   1.00
N179   N     0.96979   0.38672   0.21098   0.00000  Uiso   1.00
N180   N     0.14248   0.02426   0.08803   0.00000  Uiso   1.00
N181   N     0.97064   0.70400   0.05351   0.00000  Uiso   1.00
N182   N     0.81266   0.33996   0.18570   0.00000  Uiso   1.00
N183   N     0.98535   0.97750   0.06274   0.00000  Uiso   1.00
N184   N     0.81351   0.65724   0.02823   0.00000  Uiso   1.00
C185   C     0.54145   0.12418   0.61974   0.00000  Uiso   1.00
C186   C     0.48330   0.13259   0.63871   0.00000  Uiso   1.00
C187   C     0.52193   0.11362   0.66874   0.00000  Uiso   1.00
C188   C     0.45657   0.12560   0.68206   0.00000  Uiso   1.00
C189   C     0.38156   0.13416   0.71397   0.00000  Uiso   1.00
C190   C     0.53089   0.23250   0.60482   0.00000  Uiso   1.00
C191   C     0.60955   0.29752   0.60636   0.00000  Uiso   1.00
C192   C     0.58425   0.39360   0.59116   0.00000  Uiso   1.00
C193   C     0.58313   0.55724   0.57045   0.00000  Uiso   1.00
C194   C     0.48353   0.04515   0.59531   0.00000  Uiso   1.00
C195   C     0.52237   0.95267   0.58885   0.00000  Uiso   1.00
C196   C     0.45720   0.89103   0.56564   0.00000  Uiso   1.00
C197   C     0.38254   0.76379   0.53017   0.00000  Uiso   1.00
C198   C     0.35666   0.17917   0.59000   0.00000  Uiso   1.00
C199   C     0.38293   0.16246   0.62255   0.00000  Uiso   1.00
C200   C     0.31749   0.17446   0.63584   0.00000  Uiso   1.00
C201   C     0.35602   0.15552   0.66588   0.00000  Uiso   1.00
C202   C     0.43053   0.26237   0.58867   0.00000  Uiso   1.00
C203   C     0.40511   0.35837   0.57347   0.00000  Uiso   1.00
C204   C     0.48370   0.42352   0.57498   0.00000  Uiso   1.00
C205   C     0.38316   0.07502   0.57916   0.00000  Uiso   1.00
C206   C     0.31792   0.01351   0.55596   0.00000  Uiso   1.00
C207   C     0.35665   0.92096   0.54946   0.00000  Uiso   1.00
H208   H     0.61959   0.10093   0.63231   0.00000  Uiso   1.00
H209   H     0.59962   0.09052   0.68123   0.00000  Uiso   1.00
H210   H     0.68721   0.27438   0.61886   0.00000  Uiso   1.00
H211   H     0.60004   0.92958   0.60136   0.00000  Uiso   1.00
H212   H     0.53321   0.09218   0.72834   0.00000  Uiso   1.00
H213   H     0.71792   0.47986   0.59683   0.00000  Uiso   1.00
H214   H     0.53411   0.75278   0.55991   0.00000  Uiso   1.00
H215   H     0.27852   0.20243   0.57743   0.00000  Uiso   1.00
H216   H     0.23982   0.19758   0.62333   0.00000  Uiso   1.00
H217   H     0.32743   0.38145   0.56097   0.00000  Uiso   1.00
H218   H     0.24026   0.03665   0.54346   0.00000  Uiso   1.00
H219   H     0.24119   0.17909   0.68135   0.00000  Uiso   1.00
H220   H     0.42591   0.56676   0.54984   0.00000  Uiso   1.00
H221   H     0.24209   0.83969   0.51293   0.00000  Uiso   1.00
O222   O     0.36791   0.13065   0.73603   0.00000  Uiso   1.00
O223   O     0.61024   0.63925   0.56349   0.00000  Uiso   1.00
O224   O     0.36908   0.68535   0.51506   0.00000  Uiso   1.00
N225   N     0.46979   0.11328   0.71098   0.00000  Uiso   1.00
N226   N     0.64248   0.47574   0.58803   0.00000  Uiso   1.00
N227   N     0.47064   0.79600   0.55351   0.00000  Uiso   1.00
N228   N     0.31266   0.16004   0.68570   0.00000  Uiso   1.00
N229   N     0.48535   0.52250   0.56274   0.00000  Uiso   1.00
N230   N     0.31351   0.84276   0.52823   0.00000  Uiso   1.00
C231   C     0.04145   0.62418   0.61974   0.00000  Uiso   1.00
C232   C     0.98330   0.63259   0.63871   0.00000  Uiso   1.00
C233   C     0.02193   0.61362   0.66874   0.00000  Uiso   1.00
C234   C     0.95657   0.62560   0.68206   0.00000  Uiso   1.00
C235   C     0.88156   0.63416   0.71397   0.00000  Uiso   1.00
C236   C     0.03089   0.73250   0.60482   0.00000  Uiso   1.00
C237   C     0.10955   0.79752   0.60636   0.00000  Uiso   1.00
C238   C     0.08425   0.89360   0.59116   0.00000  Uiso   1.00
C239   C     0.08313   0.05724   0.57045   0.00000  Uiso   1.00
C240   C     0.98353   0.54515   0.59531   0.00000  Uiso   1.00
C241   C     0.02237   0.45267   0.58885   0.00000  Uiso   1.00
C242   C     0.95720   0.39103   0.56564   0.00000  Uiso   1.00
C243   C     0.88254   0.26379   0.53017   0.00000  Uiso   1.00
C244   C     0.85666   0.67917   0.59000   0.00000  Uiso   1.00
C245   C     0.88293   0.66246   0.62255   0.00000  Uiso   1.00
C246   C     0.81749   0.67446   0.63584   0.00000  Uiso   1.00
C247   C     0.85602   0.65552   0.66588   0.00000  Uiso   1.00
C248   C     0.93053   0.76237   0.58867   0.00000  Uiso   1.00
C249   C     0.90511   0.85837   0.57347   0.00000  Uiso   1.00
C250   C     0.98370   0.92352   0.57498   0.00000  Uiso   1.00
C251   C     0.88316   0.57502   0.57916   0.00000  Uiso   1.00
C252   C     0.81792   0.51351   0.55596   0.00000  Uiso   1.00
C253   C     0.85665   0.42096   0.54946   0.00000  Uiso   1.00
H254   H     0.11959   0.60093   0.63231   0.00000  Uiso   1.00
H255   H     0.09962   0.59052   0.68123   0.00000  Uiso   1.00
H256   H     0.18721   0.77438   0.61886   0.00000  Uiso   1.00
H257   H     0.10004   0.42958   0.60136   0.00000  Uiso   1.00
H258   H     0.03321   0.59218   0.72834   0.00000  Uiso   1.00
H259   H     0.21792   0.97986   0.59683   0.00000  Uiso   1.00
H260   H     0.03411   0.25278   0.55991   0.00000  Uiso   1.00
H261   H     0.77852   0.70243   0.57743   0.00000  Uiso   1.00
H262   H     0.73982   0.69758   0.62333   0.00000  Uiso   1.00
H263   H     0.82743   0.88145   0.56097   0.00000  Uiso   1.00
H264   H     0.74026   0.53665   0.54346   0.00000  Uiso   1.00
H265   H     0.74119   0.67909   0.68135   0.00000  Uiso   1.00
H266   H     0.92591   0.06676   0.54984   0.00000  Uiso   1.00
H267   H     0.74209   0.33969   0.51293   0.00000  Uiso   1.00
O268   O     0.86791   0.63065   0.73603   0.00000  Uiso   1.00
O269   O     0.11024   0.13925   0.56349   0.00000  Uiso   1.00
O270   O     0.86908   0.18535   0.51506   0.00000  Uiso   1.00
N271   N     0.96979   0.61328   0.71098   0.00000  Uiso   1.00
N272   N     0.14248   0.97574   0.58803   0.00000  Uiso   1.00
N273   N     0.97064   0.29600   0.55351   0.00000  Uiso   1.00
N274   N     0.81266   0.66004   0.68570   0.00000  Uiso   1.00
N275   N     0.98535   0.02250   0.56274   0.00000  Uiso   1.00
N276   N     0.81351   0.34276   0.52823   0.00000  Uiso   1.00
C277   C     0.45855   0.12418   0.88026   0.00000  Uiso   1.00
C278   C     0.51670   0.13259   0.86129   0.00000  Uiso   1.00
C279   C     0.47807   0.11362   0.83126   0.00000  Uiso   1.00
C280   C     0.54343   0.12560   0.81794   0.00000  Uiso   1.00
C281   C     0.61844   0.13416   0.78603   0.00000  Uiso   1.00
C282   C     0.46911   0.23250   0.89518   0.00000  Uiso   1.00
C283   C     0.39045   0.29752   0.89364   0.00000  Uiso   1.00
C284   C     0.41575   0.39360   0.90884   0.00000  Uiso   1.00
C285   C     0.41687   0.55724   0.92955   0.00000  Uiso   1.00
C286   C     0.51647   0.04515   0.90469   0.00000  Uiso   1.00
C287   C     0.47763   0.95267   0.91115   0.00000  Uiso   1.00
C288   C     0.54280   0.89103   0.93436   0.00000  Uiso   1.00
C289   C     0.61746   0.76379   0.96983   0.00000  Uiso   1.00
C290   C     0.64334   0.17917   0.91000   0.00000  Uiso   1.00
C291   C     0.61707   0.16246   0.87745   0.00000  Uiso   1.00
C292   C     0.68251   0.17446   0.86416   0.00000  Uiso   1.00
C293   C     0.64398   0.15552   0.83412   0.00000  Uiso   1.00
C294   C     0.56947   0.26237   0.91133   0.00000  Uiso   1.00
C295   C     0.59489   0.35837   0.92653   0.00000  Uiso   1.00
C296   C     0.51630   0.42352   0.92502   0.00000  Uiso   1.00
C297   C     0.61684   0.07502   0.92084   0.00000  Uiso   1.00
C298   C     0.68208   0.01351   0.94404   0.00000  Uiso   1.00
C299   C     0.64335   0.92096   0.95054   0.00000  Uiso   1.00
H300   H     0.38041   0.10093   0.86769   0.00000  Uiso   1.00
H301   H     0.40038   0.09052   0.81877   0.00000  Uiso   1.00
H302   H     0.31279   0.27438   0.88114   0.00000  Uiso   1.00
H303   H     0.39996   0.92958   0.89864   0.00000  Uiso   1.00
H304   H     0.46679   0.09218   0.77166   0.00000  Uiso   1.00
H305   H     0.28208   0.47986   0.90317   0.00000  Uiso   1.00
H306   H     0.46589   0.75278   0.94009   0.00000  Uiso   1.00
H307   H     0.72148   0.20243   0.92257   0.00000  Uiso   1.00
H308   H     0.76018   0.19758   0.87667   0.00000  Uiso   1.00
H309   H     0.67257   0.38145   0.93903   0.00000  Uiso   1.00
H310   H     0.75974   0.03665   0.95654   0.00000  Uiso   1.00
H311   H     0.75881   0.17909   0.81865   0.00000  Uiso   1.00
H312   H     0.57409   0.56676   0.95016   0.00000  Uiso   1.00
H313   H     0.75791   0.83969   0.98707   0.00000  Uiso   1.00
O314   O     0.63209   0.13065   0.76397   0.00000  Uiso   1.00
O315   O     0.38976   0.63925   0.93651   0.00000  Uiso   1.00
O316   O     0.63092   0.68535   0.98494   0.00000  Uiso   1.00
N317   N     0.53021   0.11328   0.78902   0.00000  Uiso   1.00
N318   N     0.35752   0.47574   0.91197   0.00000  Uiso   1.00
N319   N     0.52936   0.79600   0.94649   0.00000  Uiso   1.00
N320   N     0.68734   0.16004   0.81430   0.00000  Uiso   1.00
N321   N     0.51465   0.52250   0.93726   0.00000  Uiso   1.00
N322   N     0.68649   0.84276   0.97177   0.00000  Uiso   1.00
C323   C     0.95855   0.62418   0.88026   0.00000  Uiso   1.00
C324   C     0.01670   0.63259   0.86129   0.00000  Uiso   1.00
C325   C     0.97807   0.61362   0.83126   0.00000  Uiso   1.00
C326   C     0.04343   0.62560   0.81794   0.00000  Uiso   1.00
C327   C     0.11844   0.63416   0.78603   0.00000  Uiso   1.00
C328   C     0.96911   0.73250   0.89518   0.00000  Uiso   1.00
C329   C     0.89045   0.79752   0.89364   0.00000  Uiso   1.00
C330   C     0.91575   0.89360   0.90884   0.00000  Uiso   1.00
C331   C     0.91687   0.05724   0.92955   0.00000  Uiso   1.00
C332   C     0.01647   0.54515   0.90469   0.00000  Uiso   1.00
C333   C     0.97763   0.45267   0.91115   0.00000  Uiso   1.00
C334   C     0.04280   0.39103   0.93436   0.00000  Uiso   1.00
C335   C     0.11746   0.26379   0.96983   0.00000  Uiso   1.00
C336   C     0.14334   0.67917   0.91000   0.00000  Uiso   1.00
C337   C     0.11707   0.66246   0.87745   0.00000  Uiso   1.00
C338   C     0.18251   0.67446   0.86416   0.00000  Uiso   1.00
C339   C     0.14398   0.65552   0.83412   0.00000  Uiso   1.00
C340   C     0.06947   0.76237   0.91133   0.00000  Uiso   1.00
C341   C     0.09489   0.85837   0.92653   0.00000  Uiso   1.00
C342   C     0.01630   0.92352   0.92502   0.00000  Uiso   1.00
C343   C     0.11684   0.57502   0.92084   0.00000  Uiso   1.00
C344   C     0.18208   0.51351   0.94404   0.00000  Uiso   1.00
C345   C     0.14335   0.42096   0.95054   0.00000  Uiso   1.00
H346   H     0.88041   0.60093   0.86769   0.00000  Uiso   1.00
H347   H     0.90038   0.59052   0.81877   0.00000  Uiso   1.00
H348   H     0.81279   0.77438   0.88114   0.00000  Uiso   1.00
H349   H     0.89996   0.42958   0.89864   0.00000  Uiso   1.00
H350   H     0.96679   0.59218   0.77166   0.00000  Uiso   1.00
H351   H     0.78208   0.97986   0.90317   0.00000  Uiso   1.00
H352   H     0.96589   0.25278   0.94009   0.00000  Uiso   1.00
H353   H     0.22148   0.70243   0.92257   0.00000  Uiso   1.00
H354   H     0.26018   0.69758   0.87667   0.00000  Uiso   1.00
H355   H     0.17257   0.88145   0.93903   0.00000  Uiso   1.00
H356   H     0.25974   0.53665   0.95654   0.00000  Uiso   1.00
H357   H     0.25881   0.67909   0.81865   0.00000  Uiso   1.00
H358   H     0.07409   0.06676   0.95016   0.00000  Uiso   1.00
H359   H     0.25791   0.33969   0.98707   0.00000  Uiso   1.00
O360   O     0.13209   0.63065   0.76397   0.00000  Uiso   1.00
O361   O     0.88976   0.13925   0.93651   0.00000  Uiso   1.00
O362   O     0.13092   0.18535   0.98494   0.00000  Uiso   1.00
N363   N     0.03021   0.61328   0.78902   0.00000  Uiso   1.00
N364   N     0.85752   0.97574   0.91197   0.00000  Uiso   1.00
N365   N     0.02936   0.29600   0.94649   0.00000  Uiso   1.00
N366   N     0.18734   0.66004   0.81430   0.00000  Uiso   1.00
N367   N     0.01465   0.02250   0.93726   0.00000  Uiso   1.00
N368   N     0.18649   0.34276   0.97177   0.00000  Uiso   1.00
