data_job_03405
_audit_creation_date              2018-12-19
_audit_creation_method            'Materials Studio'
_symmetry_space_group_name_H-M    'P1'
_symmetry_Int_Tables_number       1
_symmetry_cell_setting            triclinic
loop_
_symmetry_equiv_pos_as_xyz
  x,y,z
_cell_length_a                    13.6039
_cell_length_b                    20.8972
_cell_length_c                    20.0490
_cell_angle_alpha                 90.0000
_cell_angle_beta                  90.0000
_cell_angle_gamma                 90.0000
loop_
_atom_site_label
_atom_site_type_symbol
_atom_site_fract_x
_atom_site_fract_y
_atom_site_fract_z
_atom_site_U_iso_or_equiv
_atom_site_adp_type
_atom_site_occupancy
C1     C     0.40333   0.25605   0.51972   0.00000  Uiso   1.00
C2     C     0.36020   0.31209   0.48077   0.00000  Uiso   1.00
C3     C     0.40023   0.37305   0.47671   0.00000  Uiso   1.00
C4     C     0.34961   0.41764   0.43855   0.00000  Uiso   1.00
C5     C     0.29593   0.50708   0.38311   0.00000  Uiso   1.00
C6     C     0.32282   0.23408   0.56744   0.00000  Uiso   1.00
C7     C     0.33144   0.22944   0.63624   0.00000  Uiso   1.00
C8     C     0.24936   0.20835   0.67104   0.00000  Uiso   1.00
C9     C     0.13767   0.17663   0.75014   0.00000  Uiso   1.00
C10    C     0.41657   0.20197   0.46946   0.00000  Uiso   1.00
C11    C     0.50399   0.17031   0.45590   0.00000  Uiso   1.00
C12    C     0.50083   0.12216   0.40822   0.00000  Uiso   1.00
C13    C     0.53469   0.04058   0.33520   0.00000  Uiso   1.00
C14    C     0.24226   0.22684   0.45917   0.00000  Uiso   1.00
C15    C     0.27271   0.29623   0.44788   0.00000  Uiso   1.00
C16    C     0.22202   0.34073   0.40972   0.00000  Uiso   1.00
C17    C     0.26197   0.40175   0.40560   0.00000  Uiso   1.00
C18    C     0.23534   0.21821   0.53455   0.00000  Uiso   1.00
C19    C     0.15323   0.19712   0.56925   0.00000  Uiso   1.00
C20    C     0.16171   0.19245   0.63809   0.00000  Uiso   1.00
C21    C     0.32908   0.18610   0.43657   0.00000  Uiso   1.00
C22    C     0.32578   0.13799   0.38891   0.00000  Uiso   1.00
C23    C     0.41318   0.10627   0.37527   0.00000  Uiso   1.00
H24    H     0.47143   0.26841   0.54532   0.00000  Uiso   1.00
H25    H     0.46793   0.38532   0.50217   0.00000  Uiso   1.00
H26    H     0.39915   0.24172   0.66168   0.00000  Uiso   1.00
H27    H     0.57168   0.18260   0.48136   0.00000  Uiso   1.00
H28    H     0.42545   0.50794   0.43985   0.00000  Uiso   1.00
H29    H     0.28043   0.20514   0.77617   0.00000  Uiso   1.00
H30    H     0.64423   0.08047   0.39594   0.00000  Uiso   1.00
H31    H     0.17414   0.21448   0.43357   0.00000  Uiso   1.00
H32    H     0.15432   0.32844   0.38428   0.00000  Uiso   1.00
H33    H     0.08554   0.18484   0.54379   0.00000  Uiso   1.00
H34    H     0.25807   0.12572   0.36347   0.00000  Uiso   1.00
H35    H     0.17091   0.46178   0.34416   0.00000  Uiso   1.00
H36    H     0.02589   0.15897   0.68049   0.00000  Uiso   1.00
H37    H     0.38969   0.03431   0.30025   0.00000  Uiso   1.00
O38    O     0.29049   0.56080   0.36162   0.00000  Uiso   1.00
O39    O     0.10024   0.16352   0.80286   0.00000  Uiso   1.00
O40    O     0.57754   0.99997   0.30400   0.00000  Uiso   1.00
N41    N     0.36827   0.48144   0.42408   0.00000  Uiso   1.00
N42    N     0.23268   0.19834   0.73852   0.00000  Uiso   1.00
N43    N     0.57280   0.08177   0.38305   0.00000  Uiso   1.00
N44    N     0.23130   0.45660   0.37259   0.00000  Uiso   1.00
N45    N     0.09572   0.17350   0.68704   0.00000  Uiso   1.00
N46    N     0.43584   0.05694   0.33156   0.00000  Uiso   1.00
C47    C     0.90333   0.75605   0.51972   0.00000  Uiso   1.00
C48    C     0.86020   0.81209   0.48077   0.00000  Uiso   1.00
C49    C     0.90023   0.87305   0.47671   0.00000  Uiso   1.00
C50    C     0.84961   0.91764   0.43855   0.00000  Uiso   1.00
C51    C     0.79593   0.00708   0.38311   0.00000  Uiso   1.00
C52    C     0.82282   0.73408   0.56744   0.00000  Uiso   1.00
C53    C     0.83144   0.72944   0.63624   0.00000  Uiso   1.00
C54    C     0.74936   0.70835   0.67104   0.00000  Uiso   1.00
C55    C     0.63767   0.67663   0.75014   0.00000  Uiso   1.00
C56    C     0.91657   0.70197   0.46946   0.00000  Uiso   1.00
C57    C     0.00399   0.67031   0.45590   0.00000  Uiso   1.00
C58    C     0.00083   0.62216   0.40822   0.00000  Uiso   1.00
C59    C     0.03469   0.54058   0.33520   0.00000  Uiso   1.00
C60    C     0.74226   0.72684   0.45917   0.00000  Uiso   1.00
C61    C     0.77271   0.79623   0.44788   0.00000  Uiso   1.00
C62    C     0.72202   0.84073   0.40972   0.00000  Uiso   1.00
C63    C     0.76197   0.90175   0.40560   0.00000  Uiso   1.00
C64    C     0.73534   0.71821   0.53455   0.00000  Uiso   1.00
C65    C     0.65323   0.69712   0.56925   0.00000  Uiso   1.00
C66    C     0.66171   0.69245   0.63809   0.00000  Uiso   1.00
C67    C     0.82908   0.68610   0.43657   0.00000  Uiso   1.00
C68    C     0.82578   0.63799   0.38891   0.00000  Uiso   1.00
C69    C     0.91318   0.60627   0.37527   0.00000  Uiso   1.00
H70    H     0.97143   0.76841   0.54532   0.00000  Uiso   1.00
H71    H     0.96793   0.88532   0.50217   0.00000  Uiso   1.00
H72    H     0.89915   0.74172   0.66168   0.00000  Uiso   1.00
H73    H     0.07168   0.68260   0.48136   0.00000  Uiso   1.00
H74    H     0.92545   0.00794   0.43985   0.00000  Uiso   1.00
H75    H     0.78043   0.70514   0.77617   0.00000  Uiso   1.00
H76    H     0.14423   0.58047   0.39594   0.00000  Uiso   1.00
H77    H     0.67414   0.71448   0.43357   0.00000  Uiso   1.00
H78    H     0.65432   0.82844   0.38428   0.00000  Uiso   1.00
H79    H     0.58554   0.68484   0.54379   0.00000  Uiso   1.00
H80    H     0.75807   0.62572   0.36347   0.00000  Uiso   1.00
H81    H     0.67091   0.96178   0.34416   0.00000  Uiso   1.00
H82    H     0.52589   0.65897   0.68049   0.00000  Uiso   1.00
H83    H     0.88969   0.53431   0.30025   0.00000  Uiso   1.00
O84    O     0.79049   0.06080   0.36162   0.00000  Uiso   1.00
O85    O     0.60024   0.66352   0.80286   0.00000  Uiso   1.00
O86    O     0.07754   0.49997   0.30400   0.00000  Uiso   1.00
N87    N     0.86827   0.98144   0.42408   0.00000  Uiso   1.00
N88    N     0.73268   0.69834   0.73852   0.00000  Uiso   1.00
N89    N     0.07280   0.58177   0.38305   0.00000  Uiso   1.00
N90    N     0.73130   0.95660   0.37259   0.00000  Uiso   1.00
N91    N     0.59572   0.67350   0.68704   0.00000  Uiso   1.00
N92    N     0.93584   0.55694   0.33156   0.00000  Uiso   1.00
C93    C     0.59667   0.74395   0.01972   0.00000  Uiso   1.00
C94    C     0.63980   0.68791   0.98077   0.00000  Uiso   1.00
C95    C     0.59977   0.62695   0.97671   0.00000  Uiso   1.00
C96    C     0.65039   0.58236   0.93855   0.00000  Uiso   1.00
C97    C     0.70407   0.49292   0.88311   0.00000  Uiso   1.00
C98    C     0.67718   0.76592   0.06744   0.00000  Uiso   1.00
C99    C     0.66856   0.77056   0.13624   0.00000  Uiso   1.00
C100   C     0.75064   0.79165   0.17104   0.00000  Uiso   1.00
C101   C     0.86233   0.82337   0.25014   0.00000  Uiso   1.00
C102   C     0.58343   0.79803   0.96946   0.00000  Uiso   1.00
C103   C     0.49601   0.82969   0.95590   0.00000  Uiso   1.00
C104   C     0.49917   0.87784   0.90822   0.00000  Uiso   1.00
C105   C     0.46531   0.95942   0.83520   0.00000  Uiso   1.00
C106   C     0.75774   0.77316   0.95917   0.00000  Uiso   1.00
C107   C     0.72729   0.70377   0.94788   0.00000  Uiso   1.00
C108   C     0.77798   0.65927   0.90972   0.00000  Uiso   1.00
C109   C     0.73803   0.59825   0.90560   0.00000  Uiso   1.00
C110   C     0.76466   0.78179   0.03455   0.00000  Uiso   1.00
C111   C     0.84677   0.80288   0.06925   0.00000  Uiso   1.00
C112   C     0.83829   0.80755   0.13809   0.00000  Uiso   1.00
C113   C     0.67092   0.81390   0.93657   0.00000  Uiso   1.00
C114   C     0.67422   0.86201   0.88891   0.00000  Uiso   1.00
C115   C     0.58682   0.89373   0.87527   0.00000  Uiso   1.00
H116   H     0.52857   0.73159   0.04532   0.00000  Uiso   1.00
H117   H     0.53207   0.61468   0.00217   0.00000  Uiso   1.00
H118   H     0.60085   0.75828   0.16168   0.00000  Uiso   1.00
H119   H     0.42832   0.81740   0.98136   0.00000  Uiso   1.00
H120   H     0.57455   0.49206   0.93985   0.00000  Uiso   1.00
H121   H     0.71957   0.79486   0.27617   0.00000  Uiso   1.00
H122   H     0.35577   0.91953   0.89594   0.00000  Uiso   1.00
H123   H     0.82586   0.78552   0.93357   0.00000  Uiso   1.00
H124   H     0.84568   0.67156   0.88428   0.00000  Uiso   1.00
H125   H     0.91446   0.81516   0.04379   0.00000  Uiso   1.00
H126   H     0.74193   0.87428   0.86347   0.00000  Uiso   1.00
H127   H     0.82909   0.53822   0.84416   0.00000  Uiso   1.00
H128   H     0.97411   0.84103   0.18049   0.00000  Uiso   1.00
H129   H     0.61031   0.96569   0.80025   0.00000  Uiso   1.00
O130   O     0.70951   0.43920   0.86162   0.00000  Uiso   1.00
O131   O     0.89976   0.83648   0.30286   0.00000  Uiso   1.00
O132   O     0.42246   0.00003   0.80400   0.00000  Uiso   1.00
N133   N     0.63173   0.51856   0.92408   0.00000  Uiso   1.00
N134   N     0.76732   0.80166   0.23852   0.00000  Uiso   1.00
N135   N     0.42720   0.91823   0.88305   0.00000  Uiso   1.00
N136   N     0.76870   0.54340   0.87259   0.00000  Uiso   1.00
N137   N     0.90428   0.82650   0.18704   0.00000  Uiso   1.00
N138   N     0.56416   0.94306   0.83156   0.00000  Uiso   1.00
C139   C     0.09667   0.24395   0.01972   0.00000  Uiso   1.00
C140   C     0.13980   0.18791   0.98077   0.00000  Uiso   1.00
C141   C     0.09977   0.12695   0.97671   0.00000  Uiso   1.00
C142   C     0.15039   0.08236   0.93855   0.00000  Uiso   1.00
C143   C     0.20407   0.99292   0.88311   0.00000  Uiso   1.00
C144   C     0.17718   0.26592   0.06744   0.00000  Uiso   1.00
C145   C     0.16856   0.27056   0.13624   0.00000  Uiso   1.00
C146   C     0.25064   0.29165   0.17104   0.00000  Uiso   1.00
C147   C     0.36233   0.32337   0.25014   0.00000  Uiso   1.00
C148   C     0.08343   0.29803   0.96946   0.00000  Uiso   1.00
C149   C     0.99601   0.32969   0.95590   0.00000  Uiso   1.00
C150   C     0.99917   0.37784   0.90822   0.00000  Uiso   1.00
C151   C     0.96531   0.45942   0.83520   0.00000  Uiso   1.00
C152   C     0.25774   0.27316   0.95917   0.00000  Uiso   1.00
C153   C     0.22729   0.20377   0.94788   0.00000  Uiso   1.00
C154   C     0.27798   0.15927   0.90972   0.00000  Uiso   1.00
C155   C     0.23803   0.09825   0.90560   0.00000  Uiso   1.00
C156   C     0.26466   0.28179   0.03455   0.00000  Uiso   1.00
C157   C     0.34677   0.30288   0.06925   0.00000  Uiso   1.00
C158   C     0.33829   0.30755   0.13809   0.00000  Uiso   1.00
C159   C     0.17092   0.31390   0.93657   0.00000  Uiso   1.00
C160   C     0.17422   0.36201   0.88891   0.00000  Uiso   1.00
C161   C     0.08682   0.39373   0.87527   0.00000  Uiso   1.00
H162   H     0.02857   0.23159   0.04532   0.00000  Uiso   1.00
H163   H     0.03207   0.11468   0.00217   0.00000  Uiso   1.00
H164   H     0.10085   0.25828   0.16168   0.00000  Uiso   1.00
H165   H     0.92832   0.31740   0.98136   0.00000  Uiso   1.00
H166   H     0.07455   0.99206   0.93985   0.00000  Uiso   1.00
H167   H     0.21957   0.29486   0.27617   0.00000  Uiso   1.00
H168   H     0.85577   0.41953   0.89594   0.00000  Uiso   1.00
H169   H     0.32586   0.28552   0.93357   0.00000  Uiso   1.00
H170   H     0.34568   0.17156   0.88428   0.00000  Uiso   1.00
H171   H     0.41446   0.31516   0.04379   0.00000  Uiso   1.00
H172   H     0.24193   0.37428   0.86347   0.00000  Uiso   1.00
H173   H     0.32909   0.03822   0.84416   0.00000  Uiso   1.00
H174   H     0.47411   0.34103   0.18049   0.00000  Uiso   1.00
H175   H     0.11031   0.46569   0.80025   0.00000  Uiso   1.00
O176   O     0.20951   0.93920   0.86162   0.00000  Uiso   1.00
O177   O     0.39976   0.33648   0.30286   0.00000  Uiso   1.00
O178   O     0.92246   0.50003   0.80400   0.00000  Uiso   1.00
N179   N     0.13173   0.01856   0.92408   0.00000  Uiso   1.00
N180   N     0.26732   0.30166   0.23852   0.00000  Uiso   1.00
N181   N     0.92720   0.41823   0.88305   0.00000  Uiso   1.00
N182   N     0.26870   0.04340   0.87259   0.00000  Uiso   1.00
N183   N     0.40428   0.32650   0.18704   0.00000  Uiso   1.00
N184   N     0.06416   0.44306   0.83156   0.00000  Uiso   1.00
C185   C     0.59667   0.25605   0.98028   0.00000  Uiso   1.00
C186   C     0.63980   0.31209   0.01923   0.00000  Uiso   1.00
C187   C     0.59977   0.37305   0.02329   0.00000  Uiso   1.00
C188   C     0.65039   0.41764   0.06145   0.00000  Uiso   1.00
C189   C     0.70407   0.50708   0.11689   0.00000  Uiso   1.00
C190   C     0.67718   0.23408   0.93256   0.00000  Uiso   1.00
C191   C     0.66856   0.22944   0.86376   0.00000  Uiso   1.00
C192   C     0.75064   0.20835   0.82896   0.00000  Uiso   1.00
C193   C     0.86233   0.17663   0.74986   0.00000  Uiso   1.00
C194   C     0.58343   0.20197   0.03054   0.00000  Uiso   1.00
C195   C     0.49601   0.17031   0.04410   0.00000  Uiso   1.00
C196   C     0.49917   0.12216   0.09178   0.00000  Uiso   1.00
C197   C     0.46531   0.04058   0.16480   0.00000  Uiso   1.00
C198   C     0.75774   0.22684   0.04083   0.00000  Uiso   1.00
C199   C     0.72729   0.29623   0.05212   0.00000  Uiso   1.00
C200   C     0.77798   0.34073   0.09028   0.00000  Uiso   1.00
C201   C     0.73803   0.40175   0.09440   0.00000  Uiso   1.00
C202   C     0.76466   0.21821   0.96545   0.00000  Uiso   1.00
C203   C     0.84677   0.19712   0.93075   0.00000  Uiso   1.00
C204   C     0.83829   0.19245   0.86191   0.00000  Uiso   1.00
C205   C     0.67092   0.18610   0.06343   0.00000  Uiso   1.00
C206   C     0.67422   0.13799   0.11109   0.00000  Uiso   1.00
C207   C     0.58682   0.10627   0.12473   0.00000  Uiso   1.00
H208   H     0.52857   0.26841   0.95468   0.00000  Uiso   1.00
H209   H     0.53207   0.38532   0.99783   0.00000  Uiso   1.00
H210   H     0.60085   0.24172   0.83832   0.00000  Uiso   1.00
H211   H     0.42832   0.18260   0.01864   0.00000  Uiso   1.00
H212   H     0.57455   0.50794   0.06015   0.00000  Uiso   1.00
H213   H     0.71957   0.20514   0.72383   0.00000  Uiso   1.00
H214   H     0.35577   0.08047   0.10406   0.00000  Uiso   1.00
H215   H     0.82586   0.21448   0.06643   0.00000  Uiso   1.00
H216   H     0.84568   0.32844   0.11572   0.00000  Uiso   1.00
H217   H     0.91446   0.18484   0.95621   0.00000  Uiso   1.00
H218   H     0.74193   0.12572   0.13653   0.00000  Uiso   1.00
H219   H     0.82909   0.46178   0.15584   0.00000  Uiso   1.00
H220   H     0.97411   0.15897   0.81951   0.00000  Uiso   1.00
H221   H     0.61031   0.03431   0.19975   0.00000  Uiso   1.00
O222   O     0.70951   0.56080   0.13838   0.00000  Uiso   1.00
O223   O     0.89976   0.16352   0.69714   0.00000  Uiso   1.00
O224   O     0.42246   0.99997   0.19600   0.00000  Uiso   1.00
N225   N     0.63173   0.48144   0.07592   0.00000  Uiso   1.00
N226   N     0.76732   0.19834   0.76148   0.00000  Uiso   1.00
N227   N     0.42720   0.08177   0.11695   0.00000  Uiso   1.00
N228   N     0.76870   0.45660   0.12741   0.00000  Uiso   1.00
N229   N     0.90428   0.17350   0.81296   0.00000  Uiso   1.00
N230   N     0.56416   0.05694   0.16844   0.00000  Uiso   1.00
C231   C     0.09667   0.75605   0.98028   0.00000  Uiso   1.00
C232   C     0.13980   0.81209   0.01923   0.00000  Uiso   1.00
C233   C     0.09977   0.87305   0.02329   0.00000  Uiso   1.00
C234   C     0.15039   0.91764   0.06145   0.00000  Uiso   1.00
C235   C     0.20407   0.00708   0.11689   0.00000  Uiso   1.00
C236   C     0.17718   0.73408   0.93256   0.00000  Uiso   1.00
C237   C     0.16856   0.72944   0.86376   0.00000  Uiso   1.00
C238   C     0.25064   0.70835   0.82896   0.00000  Uiso   1.00
C239   C     0.36233   0.67663   0.74986   0.00000  Uiso   1.00
C240   C     0.08343   0.70197   0.03054   0.00000  Uiso   1.00
C241   C     0.99601   0.67031   0.04410   0.00000  Uiso   1.00
C242   C     0.99917   0.62216   0.09178   0.00000  Uiso   1.00
C243   C     0.96531   0.54058   0.16480   0.00000  Uiso   1.00
C244   C     0.25774   0.72684   0.04083   0.00000  Uiso   1.00
C245   C     0.22729   0.79623   0.05212   0.00000  Uiso   1.00
C246   C     0.27798   0.84073   0.09028   0.00000  Uiso   1.00
C247   C     0.23803   0.90175   0.09440   0.00000  Uiso   1.00
C248   C     0.26466   0.71821   0.96545   0.00000  Uiso   1.00
C249   C     0.34677   0.69712   0.93075   0.00000  Uiso   1.00
C250   C     0.33829   0.69245   0.86191   0.00000  Uiso   1.00
C251   C     0.17092   0.68610   0.06343   0.00000  Uiso   1.00
C252   C     0.17422   0.63799   0.11109   0.00000  Uiso   1.00
C253   C     0.08682   0.60627   0.12473   0.00000  Uiso   1.00
H254   H     0.02857   0.76841   0.95468   0.00000  Uiso   1.00
H255   H     0.03207   0.88532   0.99783   0.00000  Uiso   1.00
H256   H     0.10085   0.74172   0.83832   0.00000  Uiso   1.00
H257   H     0.92832   0.68260   0.01864   0.00000  Uiso   1.00
H258   H     0.07455   0.00794   0.06015   0.00000  Uiso   1.00
H259   H     0.21957   0.70514   0.72383   0.00000  Uiso   1.00
H260   H     0.85577   0.58047   0.10406   0.00000  Uiso   1.00
H261   H     0.32586   0.71448   0.06643   0.00000  Uiso   1.00
H262   H     0.34568   0.82844   0.11572   0.00000  Uiso   1.00
H263   H     0.41446   0.68484   0.95621   0.00000  Uiso   1.00
H264   H     0.24193   0.62572   0.13653   0.00000  Uiso   1.00
H265   H     0.32909   0.96178   0.15584   0.00000  Uiso   1.00
H266   H     0.47411   0.65897   0.81951   0.00000  Uiso   1.00
H267   H     0.11031   0.53431   0.19975   0.00000  Uiso   1.00
O268   O     0.20951   0.06080   0.13838   0.00000  Uiso   1.00
O269   O     0.39976   0.66352   0.69714   0.00000  Uiso   1.00
O270   O     0.92246   0.49997   0.19600   0.00000  Uiso   1.00
N271   N     0.13173   0.98144   0.07592   0.00000  Uiso   1.00
N272   N     0.26732   0.69834   0.76148   0.00000  Uiso   1.00
N273   N     0.92720   0.58177   0.11695   0.00000  Uiso   1.00
N274   N     0.26870   0.95660   0.12741   0.00000  Uiso   1.00
N275   N     0.40428   0.67350   0.81296   0.00000  Uiso   1.00
N276   N     0.06416   0.55694   0.16844   0.00000  Uiso   1.00
C277   C     0.40333   0.74395   0.48028   0.00000  Uiso   1.00
C278   C     0.36020   0.68791   0.51923   0.00000  Uiso   1.00
C279   C     0.40023   0.62695   0.52329   0.00000  Uiso   1.00
C280   C     0.34961   0.58236   0.56145   0.00000  Uiso   1.00
C281   C     0.29593   0.49292   0.61689   0.00000  Uiso   1.00
C282   C     0.32282   0.76592   0.43256   0.00000  Uiso   1.00
C283   C     0.33144   0.77056   0.36376   0.00000  Uiso   1.00
C284   C     0.24936   0.79165   0.32896   0.00000  Uiso   1.00
C285   C     0.13767   0.82337   0.24986   0.00000  Uiso   1.00
C286   C     0.41657   0.79803   0.53054   0.00000  Uiso   1.00
C287   C     0.50399   0.82969   0.54410   0.00000  Uiso   1.00
C288   C     0.50083   0.87784   0.59178   0.00000  Uiso   1.00
C289   C     0.53469   0.95942   0.66480   0.00000  Uiso   1.00
C290   C     0.24226   0.77316   0.54083   0.00000  Uiso   1.00
C291   C     0.27271   0.70377   0.55212   0.00000  Uiso   1.00
C292   C     0.22202   0.65927   0.59028   0.00000  Uiso   1.00
C293   C     0.26197   0.59825   0.59440   0.00000  Uiso   1.00
C294   C     0.23534   0.78179   0.46545   0.00000  Uiso   1.00
C295   C     0.15323   0.80288   0.43075   0.00000  Uiso   1.00
C296   C     0.16171   0.80755   0.36191   0.00000  Uiso   1.00
C297   C     0.32908   0.81390   0.56343   0.00000  Uiso   1.00
C298   C     0.32578   0.86201   0.61109   0.00000  Uiso   1.00
C299   C     0.41318   0.89373   0.62473   0.00000  Uiso   1.00
H300   H     0.47143   0.73159   0.45468   0.00000  Uiso   1.00
H301   H     0.46793   0.61468   0.49783   0.00000  Uiso   1.00
H302   H     0.39915   0.75828   0.33832   0.00000  Uiso   1.00
H303   H     0.57168   0.81740   0.51864   0.00000  Uiso   1.00
H304   H     0.42545   0.49206   0.56015   0.00000  Uiso   1.00
H305   H     0.28043   0.79486   0.22383   0.00000  Uiso   1.00
H306   H     0.64423   0.91953   0.60406   0.00000  Uiso   1.00
H307   H     0.17414   0.78552   0.56643   0.00000  Uiso   1.00
H308   H     0.15432   0.67156   0.61572   0.00000  Uiso   1.00
H309   H     0.08554   0.81516   0.45621   0.00000  Uiso   1.00
H310   H     0.25807   0.87428   0.63653   0.00000  Uiso   1.00
H311   H     0.17091   0.53822   0.65584   0.00000  Uiso   1.00
H312   H     0.02589   0.84103   0.31951   0.00000  Uiso   1.00
H313   H     0.38969   0.96569   0.69975   0.00000  Uiso   1.00
O314   O     0.29049   0.43920   0.63838   0.00000  Uiso   1.00
O315   O     0.10024   0.83648   0.19714   0.00000  Uiso   1.00
O316   O     0.57754   0.00003   0.69600   0.00000  Uiso   1.00
N317   N     0.36827   0.51856   0.57592   0.00000  Uiso   1.00
N318   N     0.23268   0.80166   0.26148   0.00000  Uiso   1.00
N319   N     0.57280   0.91823   0.61695   0.00000  Uiso   1.00
N320   N     0.23130   0.54340   0.62741   0.00000  Uiso   1.00
N321   N     0.09572   0.82650   0.31296   0.00000  Uiso   1.00
N322   N     0.43584   0.94306   0.66844   0.00000  Uiso   1.00
C323   C     0.90333   0.24395   0.48028   0.00000  Uiso   1.00
C324   C     0.86020   0.18791   0.51923   0.00000  Uiso   1.00
C325   C     0.90023   0.12695   0.52329   0.00000  Uiso   1.00
C326   C     0.84961   0.08236   0.56145   0.00000  Uiso   1.00
C327   C     0.79593   0.99292   0.61689   0.00000  Uiso   1.00
C328   C     0.82282   0.26592   0.43256   0.00000  Uiso   1.00
C329   C     0.83144   0.27056   0.36376   0.00000  Uiso   1.00
C330   C     0.74936   0.29165   0.32896   0.00000  Uiso   1.00
C331   C     0.63767   0.32337   0.24986   0.00000  Uiso   1.00
C332   C     0.91657   0.29803   0.53054   0.00000  Uiso   1.00
C333   C     0.00399   0.32969   0.54410   0.00000  Uiso   1.00
C334   C     0.00083   0.37784   0.59178   0.00000  Uiso   1.00
C335   C     0.03469   0.45942   0.66480   0.00000  Uiso   1.00
C336   C     0.74226   0.27316   0.54083   0.00000  Uiso   1.00
C337   C     0.77271   0.20377   0.55212   0.00000  Uiso   1.00
C338   C     0.72202   0.15927   0.59028   0.00000  Uiso   1.00
C339   C     0.76197   0.09825   0.59440   0.00000  Uiso   1.00
C340   C     0.73534   0.28179   0.46545   0.00000  Uiso   1.00
C341   C     0.65323   0.30288   0.43075   0.00000  Uiso   1.00
C342   C     0.66171   0.30755   0.36191   0.00000  Uiso   1.00
C343   C     0.82908   0.31390   0.56343   0.00000  Uiso   1.00
C344   C     0.82578   0.36201   0.61109   0.00000  Uiso   1.00
C345   C     0.91318   0.39373   0.62473   0.00000  Uiso   1.00
H346   H     0.97143   0.23159   0.45468   0.00000  Uiso   1.00
H347   H     0.96793   0.11468   0.49783   0.00000  Uiso   1.00
H348   H     0.89915   0.25828   0.33832   0.00000  Uiso   1.00
H349   H     0.07168   0.31740   0.51864   0.00000  Uiso   1.00
H350   H     0.92545   0.99206   0.56015   0.00000  Uiso   1.00
H351   H     0.78043   0.29486   0.22383   0.00000  Uiso   1.00
H352   H     0.14423   0.41953   0.60406   0.00000  Uiso   1.00
H353   H     0.67414   0.28552   0.56643   0.00000  Uiso   1.00
H354   H     0.65432   0.17156   0.61572   0.00000  Uiso   1.00
H355   H     0.58554   0.31516   0.45621   0.00000  Uiso   1.00
H356   H     0.75807   0.37428   0.63653   0.00000  Uiso   1.00
H357   H     0.67091   0.03822   0.65584   0.00000  Uiso   1.00
H358   H     0.52589   0.34103   0.31951   0.00000  Uiso   1.00
H359   H     0.88969   0.46569   0.69975   0.00000  Uiso   1.00
O360   O     0.79049   0.93920   0.63838   0.00000  Uiso   1.00
O361   O     0.60024   0.33648   0.19714   0.00000  Uiso   1.00
O362   O     0.07754   0.50003   0.69600   0.00000  Uiso   1.00
N363   N     0.86827   0.01856   0.57592   0.00000  Uiso   1.00
N364   N     0.73268   0.30166   0.26148   0.00000  Uiso   1.00
N365   N     0.07280   0.41823   0.61695   0.00000  Uiso   1.00
N366   N     0.73130   0.04340   0.62741   0.00000  Uiso   1.00
N367   N     0.59572   0.32650   0.31296   0.00000  Uiso   1.00
N368   N     0.93584   0.44306   0.66844   0.00000  Uiso   1.00
