data_job_00881
_audit_creation_date              2018-12-19
_audit_creation_method            'Materials Studio'
_symmetry_space_group_name_H-M    'P1'
_symmetry_Int_Tables_number       1
_symmetry_cell_setting            triclinic
loop_
_symmetry_equiv_pos_as_xyz
  x,y,z
_cell_length_a                    22.7980
_cell_length_b                    8.9592
_cell_length_c                    40.7736
_cell_angle_alpha                 90.0000
_cell_angle_beta                  138.9014
_cell_angle_gamma                 90.0000
loop_
_atom_site_label
_atom_site_type_symbol
_atom_site_fract_x
_atom_site_fract_y
_atom_site_fract_z
_atom_site_U_iso_or_equiv
_atom_site_adp_type
_atom_site_occupancy
C1     C     0.98838   0.46646   0.17635   0.00000  Uiso   1.00
C2     C     0.02886   0.61148   0.20613   0.00000  Uiso   1.00
C3     C     0.09842   0.62275   0.25777   0.00000  Uiso   1.00
C4     C     0.12582   0.76559   0.27785   0.00000  Uiso   1.00
C5     C     0.19484   0.97148   0.32873   0.00000  Uiso   1.00
C6     C     0.88895   0.47489   0.14218   0.00000  Uiso   1.00
C7     C     0.84088   0.37130   0.14004   0.00000  Uiso   1.00
C8     C     0.75050   0.39915   0.10628   0.00000  Uiso   1.00
C9     C     0.60230   0.39291   0.05785   0.00000  Uiso   1.00
C10    C     0.99591   0.47311   0.14226   0.00000  Uiso   1.00
C11    C     0.03776   0.36800   0.14018   0.00000  Uiso   1.00
C12    C     0.03742   0.39433   0.10648   0.00000  Uiso   1.00
C13    C     0.05530   0.38533   0.05817   0.00000  Uiso   1.00
C14    C     0.91335   0.70010   0.12019   0.00000  Uiso   1.00
C15    C     0.98810   0.73839   0.17562   0.00000  Uiso   1.00
C16    C     0.01540   0.88125   0.19563   0.00000  Uiso   1.00
C17    C     0.08500   0.89273   0.24730   0.00000  Uiso   1.00
C18    C     0.84819   0.60179   0.11167   0.00000  Uiso   1.00
C19    C     0.75787   0.62980   0.07791   0.00000  Uiso   1.00
C20    C     0.70967   0.52628   0.07572   0.00000  Uiso   1.00
C21    C     0.95516   0.60001   0.11175   0.00000  Uiso   1.00
C22    C     0.95475   0.62651   0.07804   0.00000  Uiso   1.00
C23    C     0.99659   0.52147   0.07592   0.00000  Uiso   1.00
H24    H     0.02010   0.36765   0.20009   0.00000  Uiso   1.00
H25    H     0.12993   0.52451   0.28136   0.00000  Uiso   1.00
H26    H     0.87243   0.27310   0.16365   0.00000  Uiso   1.00
H27    H     0.06929   0.26981   0.16379   0.00000  Uiso   1.00
H28    H     0.23371   0.75439   0.35801   0.00000  Uiso   1.00
H29    H     0.69075   0.22423   0.10979   0.00000  Uiso   1.00
H30    H     0.10585   0.21729   0.11008   0.00000  Uiso   1.00
H31    H     0.88162   0.79890   0.09644   0.00000  Uiso   1.00
H32    H     0.98385   0.97944   0.17202   0.00000  Uiso   1.00
H33    H     0.72635   0.72801   0.05431   0.00000  Uiso   1.00
H34    H     0.92321   0.72472   0.05444   0.00000  Uiso   1.00
H35    H     0.11514   0.12362   0.26926   0.00000  Uiso   1.00
H36    H     0.57218   0.59345   0.02104   0.00000  Uiso   1.00
H37    H     0.98729   0.58652   0.02134   0.00000  Uiso   1.00
O38    O     0.24415   0.04999   0.36523   0.00000  Uiso   1.00
O39    O     0.53181   0.35442   0.03957   0.00000  Uiso   1.00
O40    O     0.07643   0.34532   0.03995   0.00000  Uiso   1.00
N41    N     0.19178   0.81651   0.32675   0.00000  Uiso   1.00
N42    N     0.68415   0.32086   0.09469   0.00000  Uiso   1.00
N43    N     0.07222   0.31435   0.09495   0.00000  Uiso   1.00
N44    N     0.12798   0.01519   0.27900   0.00000  Uiso   1.00
N45    N     0.62035   0.51954   0.04693   0.00000  Uiso   1.00
N46    N     0.00842   0.51303   0.04720   0.00000  Uiso   1.00
C47    C     0.48838   0.96646   0.17635   0.00000  Uiso   1.00
C48    C     0.52886   0.11148   0.20613   0.00000  Uiso   1.00
C49    C     0.59842   0.12275   0.25777   0.00000  Uiso   1.00
C50    C     0.62582   0.26559   0.27785   0.00000  Uiso   1.00
C51    C     0.69484   0.47148   0.32873   0.00000  Uiso   1.00
C52    C     0.38895   0.97489   0.14218   0.00000  Uiso   1.00
C53    C     0.34088   0.87130   0.14004   0.00000  Uiso   1.00
C54    C     0.25050   0.89915   0.10628   0.00000  Uiso   1.00
C55    C     0.10230   0.89291   0.05785   0.00000  Uiso   1.00
C56    C     0.49591   0.97311   0.14226   0.00000  Uiso   1.00
C57    C     0.53776   0.86800   0.14018   0.00000  Uiso   1.00
C58    C     0.53742   0.89433   0.10648   0.00000  Uiso   1.00
C59    C     0.55530   0.88533   0.05817   0.00000  Uiso   1.00
C60    C     0.41335   0.20010   0.12019   0.00000  Uiso   1.00
C61    C     0.48810   0.23839   0.17562   0.00000  Uiso   1.00
C62    C     0.51540   0.38125   0.19563   0.00000  Uiso   1.00
C63    C     0.58500   0.39273   0.24730   0.00000  Uiso   1.00
C64    C     0.34819   0.10179   0.11167   0.00000  Uiso   1.00
C65    C     0.25787   0.12980   0.07791   0.00000  Uiso   1.00
C66    C     0.20967   0.02628   0.07572   0.00000  Uiso   1.00
C67    C     0.45516   0.10001   0.11175   0.00000  Uiso   1.00
C68    C     0.45475   0.12651   0.07804   0.00000  Uiso   1.00
C69    C     0.49659   0.02147   0.07592   0.00000  Uiso   1.00
H70    H     0.52010   0.86765   0.20009   0.00000  Uiso   1.00
H71    H     0.62993   0.02451   0.28136   0.00000  Uiso   1.00
H72    H     0.37243   0.77310   0.16365   0.00000  Uiso   1.00
H73    H     0.56929   0.76981   0.16379   0.00000  Uiso   1.00
H74    H     0.73371   0.25439   0.35801   0.00000  Uiso   1.00
H75    H     0.19075   0.72423   0.10979   0.00000  Uiso   1.00
H76    H     0.60585   0.71729   0.11008   0.00000  Uiso   1.00
H77    H     0.38162   0.29890   0.09644   0.00000  Uiso   1.00
H78    H     0.48385   0.47944   0.17202   0.00000  Uiso   1.00
H79    H     0.22635   0.22801   0.05431   0.00000  Uiso   1.00
H80    H     0.42321   0.22472   0.05444   0.00000  Uiso   1.00
H81    H     0.61514   0.62362   0.26926   0.00000  Uiso   1.00
H82    H     0.07218   0.09345   0.02104   0.00000  Uiso   1.00
H83    H     0.48729   0.08652   0.02134   0.00000  Uiso   1.00
O84    O     0.74415   0.54999   0.36523   0.00000  Uiso   1.00
O85    O     0.03181   0.85442   0.03957   0.00000  Uiso   1.00
O86    O     0.57643   0.84532   0.03995   0.00000  Uiso   1.00
N87    N     0.69178   0.31651   0.32675   0.00000  Uiso   1.00
N88    N     0.18415   0.82086   0.09469   0.00000  Uiso   1.00
N89    N     0.57222   0.81435   0.09495   0.00000  Uiso   1.00
N90    N     0.62798   0.51519   0.27900   0.00000  Uiso   1.00
N91    N     0.12035   0.01954   0.04693   0.00000  Uiso   1.00
N92    N     0.50842   0.01303   0.04720   0.00000  Uiso   1.00
C93    C     0.01162   0.46646   0.32365   0.00000  Uiso   1.00
C94    C     0.97114   0.61148   0.29387   0.00000  Uiso   1.00
C95    C     0.90158   0.62275   0.24223   0.00000  Uiso   1.00
C96    C     0.87418   0.76559   0.22215   0.00000  Uiso   1.00
C97    C     0.80516   0.97148   0.17127   0.00000  Uiso   1.00
C98    C     0.11105   0.47489   0.35782   0.00000  Uiso   1.00
C99    C     0.15912   0.37130   0.35996   0.00000  Uiso   1.00
C100   C     0.24950   0.39915   0.39372   0.00000  Uiso   1.00
C101   C     0.39770   0.39291   0.44215   0.00000  Uiso   1.00
C102   C     0.00409   0.47311   0.35774   0.00000  Uiso   1.00
C103   C     0.96224   0.36800   0.35982   0.00000  Uiso   1.00
C104   C     0.96258   0.39433   0.39352   0.00000  Uiso   1.00
C105   C     0.94470   0.38533   0.44183   0.00000  Uiso   1.00
C106   C     0.08665   0.70010   0.37981   0.00000  Uiso   1.00
C107   C     0.01190   0.73839   0.32438   0.00000  Uiso   1.00
C108   C     0.98460   0.88125   0.30437   0.00000  Uiso   1.00
C109   C     0.91500   0.89273   0.25270   0.00000  Uiso   1.00
C110   C     0.15181   0.60179   0.38833   0.00000  Uiso   1.00
C111   C     0.24213   0.62980   0.42209   0.00000  Uiso   1.00
C112   C     0.29033   0.52628   0.42428   0.00000  Uiso   1.00
C113   C     0.04484   0.60001   0.38825   0.00000  Uiso   1.00
C114   C     0.04525   0.62651   0.42196   0.00000  Uiso   1.00
C115   C     0.00341   0.52147   0.42408   0.00000  Uiso   1.00
H116   H     0.97990   0.36765   0.29991   0.00000  Uiso   1.00
H117   H     0.87007   0.52451   0.21864   0.00000  Uiso   1.00
H118   H     0.12757   0.27310   0.33635   0.00000  Uiso   1.00
H119   H     0.93071   0.26981   0.33621   0.00000  Uiso   1.00
H120   H     0.76629   0.75439   0.14199   0.00000  Uiso   1.00
H121   H     0.30925   0.22423   0.39021   0.00000  Uiso   1.00
H122   H     0.89415   0.21729   0.38992   0.00000  Uiso   1.00
H123   H     0.11838   0.79890   0.40356   0.00000  Uiso   1.00
H124   H     0.01615   0.97944   0.32798   0.00000  Uiso   1.00
H125   H     0.27365   0.72801   0.44569   0.00000  Uiso   1.00
H126   H     0.07679   0.72472   0.44556   0.00000  Uiso   1.00
H127   H     0.88486   0.12362   0.23074   0.00000  Uiso   1.00
H128   H     0.42782   0.59345   0.47896   0.00000  Uiso   1.00
H129   H     0.01271   0.58652   0.47866   0.00000  Uiso   1.00
O130   O     0.75585   0.04999   0.13477   0.00000  Uiso   1.00
O131   O     0.46819   0.35442   0.46043   0.00000  Uiso   1.00
O132   O     0.92357   0.34532   0.46005   0.00000  Uiso   1.00
N133   N     0.80822   0.81651   0.17325   0.00000  Uiso   1.00
N134   N     0.31585   0.32086   0.40531   0.00000  Uiso   1.00
N135   N     0.92778   0.31435   0.40505   0.00000  Uiso   1.00
N136   N     0.87202   0.01519   0.22100   0.00000  Uiso   1.00
N137   N     0.37965   0.51954   0.45307   0.00000  Uiso   1.00
N138   N     0.99158   0.51303   0.45280   0.00000  Uiso   1.00
C139   C     0.51162   0.96646   0.32365   0.00000  Uiso   1.00
C140   C     0.47114   0.11148   0.29387   0.00000  Uiso   1.00
C141   C     0.40158   0.12275   0.24223   0.00000  Uiso   1.00
C142   C     0.37418   0.26559   0.22215   0.00000  Uiso   1.00
C143   C     0.30516   0.47148   0.17127   0.00000  Uiso   1.00
C144   C     0.61105   0.97489   0.35782   0.00000  Uiso   1.00
C145   C     0.65912   0.87130   0.35996   0.00000  Uiso   1.00
C146   C     0.74950   0.89915   0.39372   0.00000  Uiso   1.00
C147   C     0.89770   0.89291   0.44215   0.00000  Uiso   1.00
C148   C     0.50409   0.97311   0.35774   0.00000  Uiso   1.00
C149   C     0.46224   0.86800   0.35982   0.00000  Uiso   1.00
C150   C     0.46258   0.89433   0.39352   0.00000  Uiso   1.00
C151   C     0.44470   0.88533   0.44183   0.00000  Uiso   1.00
C152   C     0.58665   0.20010   0.37981   0.00000  Uiso   1.00
C153   C     0.51190   0.23839   0.32438   0.00000  Uiso   1.00
C154   C     0.48460   0.38125   0.30437   0.00000  Uiso   1.00
C155   C     0.41500   0.39273   0.25270   0.00000  Uiso   1.00
C156   C     0.65181   0.10179   0.38833   0.00000  Uiso   1.00
C157   C     0.74213   0.12980   0.42209   0.00000  Uiso   1.00
C158   C     0.79033   0.02628   0.42428   0.00000  Uiso   1.00
C159   C     0.54484   0.10001   0.38825   0.00000  Uiso   1.00
C160   C     0.54525   0.12651   0.42196   0.00000  Uiso   1.00
C161   C     0.50341   0.02147   0.42408   0.00000  Uiso   1.00
H162   H     0.47990   0.86765   0.29991   0.00000  Uiso   1.00
H163   H     0.37007   0.02451   0.21864   0.00000  Uiso   1.00
H164   H     0.62757   0.77310   0.33635   0.00000  Uiso   1.00
H165   H     0.43071   0.76981   0.33621   0.00000  Uiso   1.00
H166   H     0.26629   0.25439   0.14199   0.00000  Uiso   1.00
H167   H     0.80925   0.72423   0.39021   0.00000  Uiso   1.00
H168   H     0.39415   0.71729   0.38992   0.00000  Uiso   1.00
H169   H     0.61838   0.29890   0.40356   0.00000  Uiso   1.00
H170   H     0.51615   0.47944   0.32798   0.00000  Uiso   1.00
H171   H     0.77365   0.22801   0.44569   0.00000  Uiso   1.00
H172   H     0.57679   0.22472   0.44556   0.00000  Uiso   1.00
H173   H     0.38486   0.62362   0.23074   0.00000  Uiso   1.00
H174   H     0.92782   0.09345   0.47896   0.00000  Uiso   1.00
H175   H     0.51271   0.08652   0.47866   0.00000  Uiso   1.00
O176   O     0.25585   0.54999   0.13477   0.00000  Uiso   1.00
O177   O     0.96819   0.85442   0.46043   0.00000  Uiso   1.00
O178   O     0.42357   0.84532   0.46005   0.00000  Uiso   1.00
N179   N     0.30822   0.31651   0.17325   0.00000  Uiso   1.00
N180   N     0.81585   0.82086   0.40531   0.00000  Uiso   1.00
N181   N     0.42778   0.81435   0.40505   0.00000  Uiso   1.00
N182   N     0.37202   0.51519   0.22100   0.00000  Uiso   1.00
N183   N     0.87965   0.01954   0.45307   0.00000  Uiso   1.00
N184   N     0.49158   0.01303   0.45280   0.00000  Uiso   1.00
C185   C     0.01162   0.53354   0.82365   0.00000  Uiso   1.00
C186   C     0.97114   0.38852   0.79387   0.00000  Uiso   1.00
C187   C     0.90158   0.37725   0.74223   0.00000  Uiso   1.00
C188   C     0.87418   0.23441   0.72215   0.00000  Uiso   1.00
C189   C     0.80516   0.02852   0.67127   0.00000  Uiso   1.00
C190   C     0.11105   0.52511   0.85782   0.00000  Uiso   1.00
C191   C     0.15912   0.62870   0.85996   0.00000  Uiso   1.00
C192   C     0.24950   0.60085   0.89372   0.00000  Uiso   1.00
C193   C     0.39770   0.60709   0.94215   0.00000  Uiso   1.00
C194   C     0.00409   0.52689   0.85774   0.00000  Uiso   1.00
C195   C     0.96224   0.63200   0.85982   0.00000  Uiso   1.00
C196   C     0.96258   0.60567   0.89352   0.00000  Uiso   1.00
C197   C     0.94470   0.61467   0.94183   0.00000  Uiso   1.00
C198   C     0.08665   0.29990   0.87981   0.00000  Uiso   1.00
C199   C     0.01190   0.26161   0.82438   0.00000  Uiso   1.00
C200   C     0.98460   0.11875   0.80437   0.00000  Uiso   1.00
C201   C     0.91500   0.10727   0.75270   0.00000  Uiso   1.00
C202   C     0.15181   0.39821   0.88833   0.00000  Uiso   1.00
C203   C     0.24213   0.37020   0.92209   0.00000  Uiso   1.00
C204   C     0.29033   0.47372   0.92428   0.00000  Uiso   1.00
C205   C     0.04484   0.39999   0.88825   0.00000  Uiso   1.00
C206   C     0.04525   0.37349   0.92196   0.00000  Uiso   1.00
C207   C     0.00341   0.47853   0.92408   0.00000  Uiso   1.00
H208   H     0.97990   0.63235   0.79991   0.00000  Uiso   1.00
H209   H     0.87007   0.47549   0.71864   0.00000  Uiso   1.00
H210   H     0.12757   0.72690   0.83635   0.00000  Uiso   1.00
H211   H     0.93071   0.73019   0.83621   0.00000  Uiso   1.00
H212   H     0.76629   0.24561   0.64199   0.00000  Uiso   1.00
H213   H     0.30925   0.77577   0.89021   0.00000  Uiso   1.00
H214   H     0.89415   0.78271   0.88992   0.00000  Uiso   1.00
H215   H     0.11838   0.20110   0.90356   0.00000  Uiso   1.00
H216   H     0.01615   0.02056   0.82798   0.00000  Uiso   1.00
H217   H     0.27365   0.27199   0.94569   0.00000  Uiso   1.00
H218   H     0.07679   0.27528   0.94556   0.00000  Uiso   1.00
H219   H     0.88486   0.87638   0.73074   0.00000  Uiso   1.00
H220   H     0.42782   0.40655   0.97896   0.00000  Uiso   1.00
H221   H     0.01271   0.41348   0.97866   0.00000  Uiso   1.00
O222   O     0.75585   0.95001   0.63477   0.00000  Uiso   1.00
O223   O     0.46819   0.64558   0.96043   0.00000  Uiso   1.00
O224   O     0.92357   0.65468   0.96005   0.00000  Uiso   1.00
N225   N     0.80822   0.18349   0.67325   0.00000  Uiso   1.00
N226   N     0.31585   0.67914   0.90531   0.00000  Uiso   1.00
N227   N     0.92778   0.68565   0.90505   0.00000  Uiso   1.00
N228   N     0.87202   0.98481   0.72100   0.00000  Uiso   1.00
N229   N     0.37965   0.48046   0.95307   0.00000  Uiso   1.00
N230   N     0.99158   0.48697   0.95280   0.00000  Uiso   1.00
C231   C     0.51162   0.03354   0.82365   0.00000  Uiso   1.00
C232   C     0.47114   0.88852   0.79387   0.00000  Uiso   1.00
C233   C     0.40158   0.87725   0.74223   0.00000  Uiso   1.00
C234   C     0.37418   0.73441   0.72215   0.00000  Uiso   1.00
C235   C     0.30516   0.52852   0.67127   0.00000  Uiso   1.00
C236   C     0.61105   0.02511   0.85782   0.00000  Uiso   1.00
C237   C     0.65912   0.12870   0.85996   0.00000  Uiso   1.00
C238   C     0.74950   0.10085   0.89372   0.00000  Uiso   1.00
C239   C     0.89770   0.10709   0.94215   0.00000  Uiso   1.00
C240   C     0.50409   0.02689   0.85774   0.00000  Uiso   1.00
C241   C     0.46224   0.13200   0.85982   0.00000  Uiso   1.00
C242   C     0.46258   0.10567   0.89352   0.00000  Uiso   1.00
C243   C     0.44470   0.11467   0.94183   0.00000  Uiso   1.00
C244   C     0.58665   0.79990   0.87981   0.00000  Uiso   1.00
C245   C     0.51190   0.76161   0.82438   0.00000  Uiso   1.00
C246   C     0.48460   0.61875   0.80437   0.00000  Uiso   1.00
C247   C     0.41500   0.60727   0.75270   0.00000  Uiso   1.00
C248   C     0.65181   0.89821   0.88833   0.00000  Uiso   1.00
C249   C     0.74213   0.87020   0.92209   0.00000  Uiso   1.00
C250   C     0.79033   0.97372   0.92428   0.00000  Uiso   1.00
C251   C     0.54484   0.89999   0.88825   0.00000  Uiso   1.00
C252   C     0.54525   0.87349   0.92196   0.00000  Uiso   1.00
C253   C     0.50341   0.97853   0.92408   0.00000  Uiso   1.00
H254   H     0.47990   0.13235   0.79991   0.00000  Uiso   1.00
H255   H     0.37007   0.97549   0.71864   0.00000  Uiso   1.00
H256   H     0.62757   0.22690   0.83635   0.00000  Uiso   1.00
H257   H     0.43071   0.23019   0.83621   0.00000  Uiso   1.00
H258   H     0.26629   0.74561   0.64199   0.00000  Uiso   1.00
H259   H     0.80925   0.27577   0.89021   0.00000  Uiso   1.00
H260   H     0.39415   0.28271   0.88992   0.00000  Uiso   1.00
H261   H     0.61838   0.70110   0.90356   0.00000  Uiso   1.00
H262   H     0.51615   0.52056   0.82798   0.00000  Uiso   1.00
H263   H     0.77365   0.77199   0.94569   0.00000  Uiso   1.00
H264   H     0.57679   0.77528   0.94556   0.00000  Uiso   1.00
H265   H     0.38486   0.37638   0.73074   0.00000  Uiso   1.00
H266   H     0.92782   0.90655   0.97896   0.00000  Uiso   1.00
H267   H     0.51271   0.91348   0.97866   0.00000  Uiso   1.00
O268   O     0.25585   0.45001   0.63477   0.00000  Uiso   1.00
O269   O     0.96819   0.14558   0.96043   0.00000  Uiso   1.00
O270   O     0.42357   0.15468   0.96005   0.00000  Uiso   1.00
N271   N     0.30822   0.68349   0.67325   0.00000  Uiso   1.00
N272   N     0.81585   0.17914   0.90531   0.00000  Uiso   1.00
N273   N     0.42778   0.18565   0.90505   0.00000  Uiso   1.00
N274   N     0.37202   0.48481   0.72100   0.00000  Uiso   1.00
N275   N     0.87965   0.98046   0.95307   0.00000  Uiso   1.00
N276   N     0.49158   0.98697   0.95280   0.00000  Uiso   1.00
C277   C     0.98838   0.53354   0.67635   0.00000  Uiso   1.00
C278   C     0.02886   0.38852   0.70613   0.00000  Uiso   1.00
C279   C     0.09842   0.37725   0.75777   0.00000  Uiso   1.00
C280   C     0.12582   0.23441   0.77785   0.00000  Uiso   1.00
C281   C     0.19484   0.02852   0.82873   0.00000  Uiso   1.00
C282   C     0.88895   0.52511   0.64218   0.00000  Uiso   1.00
C283   C     0.84088   0.62870   0.64004   0.00000  Uiso   1.00
C284   C     0.75050   0.60085   0.60628   0.00000  Uiso   1.00
C285   C     0.60230   0.60709   0.55785   0.00000  Uiso   1.00
C286   C     0.99591   0.52689   0.64226   0.00000  Uiso   1.00
C287   C     0.03776   0.63200   0.64018   0.00000  Uiso   1.00
C288   C     0.03742   0.60567   0.60648   0.00000  Uiso   1.00
C289   C     0.05530   0.61467   0.55817   0.00000  Uiso   1.00
C290   C     0.91335   0.29990   0.62019   0.00000  Uiso   1.00
C291   C     0.98810   0.26161   0.67562   0.00000  Uiso   1.00
C292   C     0.01540   0.11875   0.69563   0.00000  Uiso   1.00
C293   C     0.08500   0.10727   0.74730   0.00000  Uiso   1.00
C294   C     0.84819   0.39821   0.61167   0.00000  Uiso   1.00
C295   C     0.75787   0.37020   0.57791   0.00000  Uiso   1.00
C296   C     0.70967   0.47372   0.57572   0.00000  Uiso   1.00
C297   C     0.95516   0.39999   0.61175   0.00000  Uiso   1.00
C298   C     0.95475   0.37349   0.57804   0.00000  Uiso   1.00
C299   C     0.99659   0.47853   0.57592   0.00000  Uiso   1.00
H300   H     0.02010   0.63235   0.70009   0.00000  Uiso   1.00
H301   H     0.12993   0.47549   0.78136   0.00000  Uiso   1.00
H302   H     0.87243   0.72690   0.66365   0.00000  Uiso   1.00
H303   H     0.06929   0.73019   0.66379   0.00000  Uiso   1.00
H304   H     0.23371   0.24561   0.85801   0.00000  Uiso   1.00
H305   H     0.69075   0.77577   0.60979   0.00000  Uiso   1.00
H306   H     0.10585   0.78271   0.61008   0.00000  Uiso   1.00
H307   H     0.88162   0.20110   0.59644   0.00000  Uiso   1.00
H308   H     0.98385   0.02056   0.67202   0.00000  Uiso   1.00
H309   H     0.72635   0.27199   0.55431   0.00000  Uiso   1.00
H310   H     0.92321   0.27528   0.55444   0.00000  Uiso   1.00
H311   H     0.11514   0.87638   0.76926   0.00000  Uiso   1.00
H312   H     0.57218   0.40655   0.52104   0.00000  Uiso   1.00
H313   H     0.98729   0.41348   0.52134   0.00000  Uiso   1.00
O314   O     0.24415   0.95001   0.86523   0.00000  Uiso   1.00
O315   O     0.53181   0.64558   0.53957   0.00000  Uiso   1.00
O316   O     0.07643   0.65468   0.53995   0.00000  Uiso   1.00
N317   N     0.19178   0.18349   0.82675   0.00000  Uiso   1.00
N318   N     0.68415   0.67914   0.59469   0.00000  Uiso   1.00
N319   N     0.07222   0.68565   0.59495   0.00000  Uiso   1.00
N320   N     0.12798   0.98481   0.77900   0.00000  Uiso   1.00
N321   N     0.62035   0.48046   0.54693   0.00000  Uiso   1.00
N322   N     0.00842   0.48697   0.54720   0.00000  Uiso   1.00
C323   C     0.48838   0.03354   0.67635   0.00000  Uiso   1.00
C324   C     0.52886   0.88852   0.70613   0.00000  Uiso   1.00
C325   C     0.59842   0.87725   0.75777   0.00000  Uiso   1.00
C326   C     0.62582   0.73441   0.77785   0.00000  Uiso   1.00
C327   C     0.69484   0.52852   0.82873   0.00000  Uiso   1.00
C328   C     0.38895   0.02511   0.64218   0.00000  Uiso   1.00
C329   C     0.34088   0.12870   0.64004   0.00000  Uiso   1.00
C330   C     0.25050   0.10085   0.60628   0.00000  Uiso   1.00
C331   C     0.10230   0.10709   0.55785   0.00000  Uiso   1.00
C332   C     0.49591   0.02689   0.64226   0.00000  Uiso   1.00
C333   C     0.53776   0.13200   0.64018   0.00000  Uiso   1.00
C334   C     0.53742   0.10567   0.60648   0.00000  Uiso   1.00
C335   C     0.55530   0.11467   0.55817   0.00000  Uiso   1.00
C336   C     0.41335   0.79990   0.62019   0.00000  Uiso   1.00
C337   C     0.48810   0.76161   0.67562   0.00000  Uiso   1.00
C338   C     0.51540   0.61875   0.69563   0.00000  Uiso   1.00
C339   C     0.58500   0.60727   0.74730   0.00000  Uiso   1.00
C340   C     0.34819   0.89821   0.61167   0.00000  Uiso   1.00
C341   C     0.25787   0.87020   0.57791   0.00000  Uiso   1.00
C342   C     0.20967   0.97372   0.57572   0.00000  Uiso   1.00
C343   C     0.45516   0.89999   0.61175   0.00000  Uiso   1.00
C344   C     0.45475   0.87349   0.57804   0.00000  Uiso   1.00
C345   C     0.49659   0.97853   0.57592   0.00000  Uiso   1.00
H346   H     0.52010   0.13235   0.70009   0.00000  Uiso   1.00
H347   H     0.62993   0.97549   0.78136   0.00000  Uiso   1.00
H348   H     0.37243   0.22690   0.66365   0.00000  Uiso   1.00
H349   H     0.56929   0.23019   0.66379   0.00000  Uiso   1.00
H350   H     0.73371   0.74561   0.85801   0.00000  Uiso   1.00
H351   H     0.19075   0.27577   0.60979   0.00000  Uiso   1.00
H352   H     0.60585   0.28271   0.61008   0.00000  Uiso   1.00
H353   H     0.38162   0.70110   0.59644   0.00000  Uiso   1.00
H354   H     0.48385   0.52056   0.67202   0.00000  Uiso   1.00
H355   H     0.22635   0.77199   0.55431   0.00000  Uiso   1.00
H356   H     0.42321   0.77528   0.55444   0.00000  Uiso   1.00
H357   H     0.61514   0.37638   0.76926   0.00000  Uiso   1.00
H358   H     0.07218   0.90655   0.52104   0.00000  Uiso   1.00
H359   H     0.48729   0.91348   0.52134   0.00000  Uiso   1.00
O360   O     0.74415   0.45001   0.86523   0.00000  Uiso   1.00
O361   O     0.03181   0.14558   0.53957   0.00000  Uiso   1.00
O362   O     0.57643   0.15468   0.53995   0.00000  Uiso   1.00
N363   N     0.69178   0.68349   0.82675   0.00000  Uiso   1.00
N364   N     0.18415   0.17914   0.59469   0.00000  Uiso   1.00
N365   N     0.57222   0.18565   0.59495   0.00000  Uiso   1.00
N366   N     0.62798   0.48481   0.77900   0.00000  Uiso   1.00
N367   N     0.12035   0.98046   0.54693   0.00000  Uiso   1.00
N368   N     0.50842   0.98697   0.54720   0.00000  Uiso   1.00
