data_job_06787
_audit_creation_date              2018-12-19
_audit_creation_method            'Materials Studio'
_symmetry_space_group_name_H-M    'P1'
_symmetry_Int_Tables_number       1
_symmetry_cell_setting            triclinic
loop_
_symmetry_equiv_pos_as_xyz
  x,y,z
_cell_length_a                    21.8137
_cell_length_b                    21.0191
_cell_length_c                    19.5356
_cell_angle_alpha                 81.7250
_cell_angle_beta                  86.2632
_cell_angle_gamma                 79.6852
loop_
_atom_site_label
_atom_site_type_symbol
_atom_site_fract_x
_atom_site_fract_y
_atom_site_fract_z
_atom_site_U_iso_or_equiv
_atom_site_adp_type
_atom_site_occupancy
C1     C     0.26735   0.64222   0.26949   0.00000  Uiso   1.00
C2     C     0.21530   0.60339   0.29328   0.00000  Uiso   1.00
C3     C     0.18037   0.60578   0.35511   0.00000  Uiso   1.00
C4     C     0.13490   0.56651   0.36731   0.00000  Uiso   1.00
C5     C     0.05563   0.51231   0.41157   0.00000  Uiso   1.00
C6     C     0.32489   0.59211   0.25541   0.00000  Uiso   1.00
C7     C     0.38210   0.58501   0.28538   0.00000  Uiso   1.00
C8     C     0.42888   0.53625   0.26569   0.00000  Uiso   1.00
C9     C     0.51977   0.46456   0.25110   0.00000  Uiso   1.00
C10    C     0.24910   0.68047   0.19928   0.00000  Uiso   1.00
C11    C     0.24261   0.74766   0.18205   0.00000  Uiso   1.00
C12    C     0.22560   0.77329   0.11509   0.00000  Uiso   1.00
C13    C     0.19882   0.83879   0.01335   0.00000  Uiso   1.00
C14    C     0.24872   0.56825   0.18120   0.00000  Uiso   1.00
C15    C     0.20518   0.56321   0.24533   0.00000  Uiso   1.00
C16    C     0.15975   0.52393   0.25743   0.00000  Uiso   1.00
C17    C     0.12475   0.52626   0.31927   0.00000  Uiso   1.00
C18    C     0.31477   0.55193   0.20745   0.00000  Uiso   1.00
C19    C     0.36148   0.50317   0.18770   0.00000  Uiso   1.00
C20    C     0.41874   0.49600   0.21765   0.00000  Uiso   1.00
C21    C     0.23898   0.64029   0.15132   0.00000  Uiso   1.00
C22    C     0.22199   0.66582   0.08437   0.00000  Uiso   1.00
C23    C     0.21546   0.73304   0.06705   0.00000  Uiso   1.00
H24    H     0.27524   0.67350   0.30682   0.00000  Uiso   1.00
H25    H     0.18822   0.63688   0.39221   0.00000  Uiso   1.00
H26    H     0.38992   0.61612   0.32249   0.00000  Uiso   1.00
H27    H     0.25045   0.77874   0.21917   0.00000  Uiso   1.00
H28    H     0.08729   0.57853   0.46575   0.00000  Uiso   1.00
H29    H     0.51260   0.53478   0.31871   0.00000  Uiso   1.00
H30    H     0.21850   0.87770   0.10085   0.00000  Uiso   1.00
H31    H     0.24084   0.53696   0.14386   0.00000  Uiso   1.00
H32    H     0.15192   0.49284   0.22031   0.00000  Uiso   1.00
H33    H     0.35363   0.47208   0.15059   0.00000  Uiso   1.00
H34    H     0.21416   0.63471   0.04727   0.00000  Uiso   1.00
H35    H     0.05784   0.46162   0.32623   0.00000  Uiso   1.00
H36    H     0.48315   0.41787   0.17919   0.00000  Uiso   1.00
H37    H     0.18904   0.76080   0.96133   0.00000  Uiso   1.00
O38    O     0.01471   0.49350   0.44923   0.00000  Uiso   1.00
O39    O     0.57270   0.43611   0.25632   0.00000  Uiso   1.00
O40    O     0.18684   0.88602   0.97049   0.00000  Uiso   1.00
N41    N     0.09255   0.55708   0.42241   0.00000  Uiso   1.00
N42    N     0.49019   0.51617   0.28495   0.00000  Uiso   1.00
N43    N     0.21524   0.83677   0.08126   0.00000  Uiso   1.00
N44    N     0.07670   0.49418   0.34734   0.00000  Uiso   1.00
N45    N     0.47434   0.45326   0.20988   0.00000  Uiso   1.00
N46    N     0.19939   0.77387   0.00619   0.00000  Uiso   1.00
C47    C     0.11078   0.25121   0.76784   0.00000  Uiso   1.00
C48    C     0.14302   0.19822   0.72557   0.00000  Uiso   1.00
C49    C     0.20094   0.15978   0.73792   0.00000  Uiso   1.00
C50    C     0.22231   0.11403   0.69335   0.00000  Uiso   1.00
C51    C     0.27775   0.03284   0.63605   0.00000  Uiso   1.00
C52    C     0.09724   0.31352   0.71666   0.00000  Uiso   1.00
C53    C     0.11667   0.37202   0.72152   0.00000  Uiso   1.00
C54    C     0.09948   0.42333   0.66945   0.00000  Uiso   1.00
C55    C     0.08381   0.52116   0.59834   0.00000  Uiso   1.00
C56    C     0.04750   0.23306   0.79199   0.00000  Uiso   1.00
C57    C     0.02510   0.22393   0.86020   0.00000  Uiso   1.00
C58    C     0.96604   0.20752   0.87155   0.00000  Uiso   1.00
C59    C     0.87315   0.18043   0.91740   0.00000  Uiso   1.00
C60    C     0.04571   0.23833   0.66672   0.00000  Uiso   1.00
C61    C     0.10767   0.19123   0.67064   0.00000  Uiso   1.00
C62    C     0.12895   0.14552   0.62604   0.00000  Uiso   1.00
C63    C     0.18690   0.10702   0.63833   0.00000  Uiso   1.00
C64    C     0.06189   0.30653   0.66173   0.00000  Uiso   1.00
C65    C     0.04467   0.35777   0.60964   0.00000  Uiso   1.00
C66    C     0.06408   0.41633   0.61443   0.00000  Uiso   1.00
C67    C     0.01216   0.22607   0.73706   0.00000  Uiso   1.00
C68    C     0.95312   0.20968   0.74831   0.00000  Uiso   1.00
C69    C     0.93064   0.20052   0.81652   0.00000  Uiso   1.00
H70    H     0.13830   0.25666   0.81060   0.00000  Uiso   1.00
H71    H     0.22828   0.16521   0.78043   0.00000  Uiso   1.00
H72    H     0.14401   0.37742   0.76404   0.00000  Uiso   1.00
H73    H     0.05247   0.22935   0.90269   0.00000  Uiso   1.00
H74    H     0.31248   0.06075   0.72274   0.00000  Uiso   1.00
H75    H     0.13476   0.50822   0.68819   0.00000  Uiso   1.00
H76    H     0.94173   0.19598   0.98056   0.00000  Uiso   1.00
H77    H     0.01819   0.23288   0.62395   0.00000  Uiso   1.00
H78    H     0.10159   0.14012   0.58354   0.00000  Uiso   1.00
H79    H     0.01732   0.35234   0.56715   0.00000  Uiso   1.00
H80    H     0.92578   0.20427   0.70580   0.00000  Uiso   1.00
H81    H     0.20965   0.04039   0.56294   0.00000  Uiso   1.00
H82    H     0.03194   0.48786   0.52839   0.00000  Uiso   1.00
H83    H     0.83890   0.17562   0.82076   0.00000  Uiso   1.00
O84    O     0.31810   0.99000   0.61961   0.00000  Uiso   1.00
O85    O     0.08494   0.57705   0.57429   0.00000  Uiso   1.00
O86    O     0.83168   0.16741   0.95787   0.00000  Uiso   1.00
N87    N     0.27683   0.06868   0.69069   0.00000  Uiso   1.00
N88    N     0.11068   0.48703   0.65838   0.00000  Uiso   1.00
N89    N     0.93020   0.19514   0.93172   0.00000  Uiso   1.00
N90    N     0.22150   0.05772   0.60470   0.00000  Uiso   1.00
N91    N     0.05535   0.47607   0.57239   0.00000  Uiso   1.00
N92    N     0.87487   0.18418   0.84573   0.00000  Uiso   1.00
C93    C     0.61055   0.10982   0.43041   0.00000  Uiso   1.00
C94    C     0.57448   0.14886   0.36933   0.00000  Uiso   1.00
C95    C     0.58128   0.21107   0.33850   0.00000  Uiso   1.00
C96    C     0.54394   0.23843   0.28324   0.00000  Uiso   1.00
C97    C     0.49438   0.30418   0.19201   0.00000  Uiso   1.00
C98    C     0.56163   0.09253   0.48602   0.00000  Uiso   1.00
C99    C     0.55763   0.10738   0.55330   0.00000  Uiso   1.00
C100   C     0.50948   0.08731   0.59627   0.00000  Uiso   1.00
C101   C     0.44000   0.06556   0.68621   0.00000  Uiso   1.00
C102   C     0.64181   0.04556   0.40619   0.00000  Uiso   1.00
C103   C     0.70524   0.02091   0.40637   0.00000  Uiso   1.00
C104   C     0.72460   0.96129   0.38215   0.00000  Uiso   1.00
C105   C     0.77962   0.86663   0.34815   0.00000  Uiso   1.00
C106   C     0.53215   0.04777   0.38709   0.00000  Uiso   1.00
C107   C     0.53189   0.11515   0.34580   0.00000  Uiso   1.00
C108   C     0.49453   0.14242   0.29057   0.00000  Uiso   1.00
C109   C     0.50127   0.20467   0.25967   0.00000  Uiso   1.00
C110   C     0.51904   0.05883   0.46249   0.00000  Uiso   1.00
C111   C     0.47089   0.03872   0.50537   0.00000  Uiso   1.00
C112   C     0.46682   0.05354   0.57270   0.00000  Uiso   1.00
C113   C     0.59923   0.01186   0.38266   0.00000  Uiso   1.00
C114   C     0.61849   0.95226   0.35844   0.00000  Uiso   1.00
C115   C     0.68193   0.92752   0.35858   0.00000  Uiso   1.00
H116   H     0.64370   0.13606   0.44873   0.00000  Uiso   1.00
H117   H     0.61423   0.23714   0.35673   0.00000  Uiso   1.00
H118   H     0.59060   0.13345   0.57150   0.00000  Uiso   1.00
H119   H     0.73818   0.04701   0.42458   0.00000  Uiso   1.00
H120   H     0.56276   0.33436   0.24438   0.00000  Uiso   1.00
H121   H     0.51294   0.11570   0.69723   0.00000  Uiso   1.00
H122   H     0.82415   0.93341   0.38744   0.00000  Uiso   1.00
H123   H     0.49899   0.02153   0.36877   0.00000  Uiso   1.00
H124   H     0.46158   0.11633   0.27238   0.00000  Uiso   1.00
H125   H     0.43794   0.01264   0.48715   0.00000  Uiso   1.00
H126   H     0.58552   0.92619   0.34023   0.00000  Uiso   1.00
H127   H     0.43886   0.23630   0.17591   0.00000  Uiso   1.00
H128   H     0.38904   0.01764   0.62877   0.00000  Uiso   1.00
H129   H     0.70024   0.83535   0.31897   0.00000  Uiso   1.00
O130   O     0.47880   0.34976   0.14819   0.00000  Uiso   1.00
O131   O     0.41344   0.06289   0.74232   0.00000  Uiso   1.00
O132   O     0.82173   0.82373   0.33588   0.00000  Uiso   1.00
N133   N     0.53875   0.29826   0.24148   0.00000  Uiso   1.00
N134   N     0.49216   0.09384   0.66487   0.00000  Uiso   1.00
N135   N     0.78311   0.92341   0.37526   0.00000  Uiso   1.00
N136   N     0.47208   0.24550   0.20464   0.00000  Uiso   1.00
N137   N     0.42549   0.04108   0.62803   0.00000  Uiso   1.00
N138   N     0.71644   0.87064   0.33842   0.00000  Uiso   1.00
C139   C     0.87689   0.55095   0.28930   0.00000  Uiso   1.00
C140   C     0.81426   0.57137   0.25502   0.00000  Uiso   1.00
C141   C     0.77315   0.62927   0.25991   0.00000  Uiso   1.00
C142   C     0.71827   0.63883   0.22472   0.00000  Uiso   1.00
C143   C     0.62306   0.67766   0.17734   0.00000  Uiso   1.00
C144   C     0.92540   0.53736   0.23103   0.00000  Uiso   1.00
C145   C     0.97774   0.56666   0.21577   0.00000  Uiso   1.00
C146   C     0.01641   0.54759   0.16039   0.00000  Uiso   1.00
C147   C     0.09377   0.53358   0.07581   0.00000  Uiso   1.00
C148   C     0.87431   0.48520   0.33305   0.00000  Uiso   1.00
C149   C     0.88370   0.47063   0.40356   0.00000  Uiso   1.00
C150   C     0.87938   0.40763   0.43406   0.00000  Uiso   1.00
C151   C     0.87740   0.31263   0.50788   0.00000  Uiso   1.00
C152   C     0.85252   0.46497   0.21809   0.00000  Uiso   1.00
C153   C     0.80103   0.52467   0.21634   0.00000  Uiso   1.00
C154   C     0.74620   0.53414   0.18113   0.00000  Uiso   1.00
C155   C     0.70501   0.59205   0.18598   0.00000  Uiso   1.00
C156   C     0.91217   0.49066   0.19236   0.00000  Uiso   1.00
C157   C     0.95078   0.47154   0.13699   0.00000  Uiso   1.00
C158   C     0.00316   0.50080   0.12164   0.00000  Uiso   1.00
C159   C     0.86107   0.43850   0.29437   0.00000  Uiso   1.00
C160   C     0.85674   0.37550   0.32477   0.00000  Uiso   1.00
C161   C     0.86612   0.36084   0.39532   0.00000  Uiso   1.00
H162   H     0.88719   0.58731   0.31941   0.00000  Uiso   1.00
H163   H     0.78342   0.66541   0.28984   0.00000  Uiso   1.00
H164   H     0.98797   0.60280   0.24571   0.00000  Uiso   1.00
H165   H     0.89394   0.50678   0.43347   0.00000  Uiso   1.00
H166   H     0.66253   0.73140   0.23999   0.00000  Uiso   1.00
H167   H     0.09385   0.59938   0.14695   0.00000  Uiso   1.00
H168   H     0.89559   0.39691   0.54287   0.00000  Uiso   1.00
H169   H     0.84222   0.42861   0.18798   0.00000  Uiso   1.00
H170   H     0.73597   0.49799   0.15121   0.00000  Uiso   1.00
H171   H     0.94052   0.43539   0.10707   0.00000  Uiso   1.00
H172   H     0.84650   0.33937   0.29483   0.00000  Uiso   1.00
H173   H     0.62402   0.59553   0.12746   0.00000  Uiso   1.00
H174   H     0.05535   0.46350   0.03443   0.00000  Uiso   1.00
H175   H     0.85708   0.26104   0.43035   0.00000  Uiso   1.00
O176   O     0.57420   0.71198   0.16189   0.00000  Uiso   1.00
O177   O     0.14008   0.53877   0.03983   0.00000  Uiso   1.00
O178   O     0.87996   0.27313   0.55927   0.00000  Uiso   1.00
N179   N     0.66804   0.68989   0.21856   0.00000  Uiso   1.00
N180   N     0.07130   0.56647   0.13157   0.00000  Uiso   1.00
N181   N     0.88595   0.37717   0.50172   0.00000  Uiso   1.00
N182   N     0.64732   0.61678   0.15802   0.00000  Uiso   1.00
N183   N     0.05058   0.49336   0.07102   0.00000  Uiso   1.00
N184   N     0.86523   0.30406   0.44117   0.00000  Uiso   1.00
C185   C     0.69174   0.04622   0.94799   0.00000  Uiso   1.00
C186   C     0.73524   0.01425   0.89363   0.00000  Uiso   1.00
C187   C     0.79427   0.02752   0.87305   0.00000  Uiso   1.00
C188   C     0.82669   0.99307   0.82259   0.00000  Uiso   1.00
C189   C     0.89817   0.95041   0.74260   0.00000  Uiso   1.00
C190   C     0.67640   0.99060   0.00184   0.00000  Uiso   1.00
C191   C     0.68594   0.98400   0.07224   0.00000  Uiso   1.00
C192   C     0.66882   0.92965   0.11286   0.00000  Uiso   1.00
C193   C     0.64889   0.85030   0.20086   0.00000  Uiso   1.00
C194   C     0.63111   0.07570   0.91216   0.00000  Uiso   1.00
C195   C     0.60256   0.14065   0.90718   0.00000  Uiso   1.00
C196   C     0.54730   0.15794   0.87231   0.00000  Uiso   1.00
C197   C     0.45707   0.21072   0.82108   0.00000  Uiso   1.00
C198   C     0.64436   0.96144   0.89496   0.00000  Uiso   1.00
C199   C     0.70951   0.96820   0.86483   0.00000  Uiso   1.00
C200   C     0.74185   0.93372   0.81438   0.00000  Uiso   1.00
C201   C     0.80091   0.94694   0.79373   0.00000  Uiso   1.00
C202   C     0.65067   0.94455   0.97303   0.00000  Uiso   1.00
C203   C     0.63352   0.89020   0.01356   0.00000  Uiso   1.00
C204   C     0.64304   0.88351   0.08401   0.00000  Uiso   1.00
C205   C     0.60538   0.02965   0.88335   0.00000  Uiso   1.00
C206   C     0.55015   0.04684   0.84850   0.00000  Uiso   1.00
C207   C     0.52152   0.11180   0.84346   0.00000  Uiso   1.00
H208   H     0.71177   0.08207   0.97042   0.00000  Uiso   1.00
H209   H     0.81417   0.06316   0.89536   0.00000  Uiso   1.00
H210   H     0.70585   0.01965   0.09451   0.00000  Uiso   1.00
H211   H     0.62249   0.17627   0.92947   0.00000  Uiso   1.00
H212   H     0.91635   0.02186   0.79947   0.00000  Uiso   1.00
H213   H     0.68794   0.93013   0.21939   0.00000  Uiso   1.00
H214   H     0.51215   0.26040   0.87137   0.00000  Uiso   1.00
H215   H     0.62433   0.92558   0.87253   0.00000  Uiso   1.00
H216   H     0.72192   0.89808   0.79210   0.00000  Uiso   1.00
H217   H     0.61361   0.85457   0.99126   0.00000  Uiso   1.00
H218   H     0.53025   0.01119   0.82622   0.00000  Uiso   1.00
H219   H     0.84148   0.88788   0.71566   0.00000  Uiso   1.00
H220   H     0.61307   0.79615   0.13559   0.00000  Uiso   1.00
H221   H     0.43729   0.12642   0.78757   0.00000  Uiso   1.00
O222   O     0.94470   0.93959   0.70644   0.00000  Uiso   1.00
O223   O     0.64502   0.81925   0.25736   0.00000  Uiso   1.00
O224   O     0.41441   0.25255   0.80077   0.00000  Uiso   1.00
N225   N     0.88533   0.99411   0.79077   0.00000  Uiso   1.00
N226   N     0.67179   0.90835   0.18337   0.00000  Uiso   1.00
N227   N     0.50744   0.21711   0.85802   0.00000  Uiso   1.00
N228   N     0.84504   0.92202   0.74567   0.00000  Uiso   1.00
N229   N     0.63150   0.83625   0.13828   0.00000  Uiso   1.00
N230   N     0.46715   0.14502   0.81293   0.00000  Uiso   1.00
C231   C     0.21768   0.67085   0.78906   0.00000  Uiso   1.00
C232   C     0.17641   0.61899   0.80763   0.00000  Uiso   1.00
C233   C     0.18349   0.56977   0.86353   0.00000  Uiso   1.00
C234   C     0.14091   0.52716   0.87162   0.00000  Uiso   1.00
C235   C     0.08411   0.44567   0.90751   0.00000  Uiso   1.00
C236   C     0.17408   0.73647   0.78643   0.00000  Uiso   1.00
C237   C     0.17921   0.78603   0.82449   0.00000  Uiso   1.00
C238   C     0.13467   0.84233   0.81474   0.00000  Uiso   1.00
C239   C     0.07428   0.94324   0.81767   0.00000  Uiso   1.00
C240   C     0.24209   0.66523   0.71485   0.00000  Uiso   1.00
C241   C     0.30439   0.65491   0.69272   0.00000  Uiso   1.00
C242   C     0.31712   0.65125   0.62269   0.00000  Uiso   1.00
C243   C     0.36231   0.64156   0.51448   0.00000  Uiso   1.00
C244   C     0.12948   0.68271   0.70404   0.00000  Uiso   1.00
C245   C     0.12850   0.62543   0.76146   0.00000  Uiso   1.00
C246   C     0.08591   0.58288   0.76947   0.00000  Uiso   1.00
C247   C     0.09292   0.53361   0.82536   0.00000  Uiso   1.00
C248   C     0.12618   0.74291   0.74026   0.00000  Uiso   1.00
C249   C     0.08163   0.79914   0.73044   0.00000  Uiso   1.00
C250   C     0.08668   0.84878   0.76848   0.00000  Uiso   1.00
C251   C     0.19418   0.67167   0.66867   0.00000  Uiso   1.00
C252   C     0.20681   0.66802   0.59866   0.00000  Uiso   1.00
C253   C     0.26912   0.65770   0.57643   0.00000  Uiso   1.00
H254   H     0.25497   0.66585   0.82501   0.00000  Uiso   1.00
H255   H     0.22057   0.56481   0.89925   0.00000  Uiso   1.00
H256   H     0.21629   0.78104   0.86022   0.00000  Uiso   1.00
H257   H     0.34145   0.64993   0.72847   0.00000  Uiso   1.00
H258   H     0.16128   0.45564   0.96122   0.00000  Uiso   1.00
H259   H     0.15228   0.91158   0.87890   0.00000  Uiso   1.00
H260   H     0.41621   0.63513   0.60107   0.00000  Uiso   1.00
H261   H     0.09218   0.68772   0.66809   0.00000  Uiso   1.00
H262   H     0.04884   0.58788   0.73373   0.00000  Uiso   1.00
H263   H     0.04456   0.80411   0.69470   0.00000  Uiso   1.00
H264   H     0.16973   0.67301   0.56294   0.00000  Uiso   1.00
H265   H     0.02190   0.47437   0.82688   0.00000  Uiso   1.00
H266   H     0.01289   0.93031   0.74455   0.00000  Uiso   1.00
H267   H     0.27683   0.65386   0.46672   0.00000  Uiso   1.00
O268   O     0.06600   0.39894   0.94007   0.00000  Uiso   1.00
O269   O     0.05420   0.99713   0.83206   0.00000  Uiso   1.00
O270   O     0.40047   0.63442   0.46755   0.00000  Uiso   1.00
N271   N     0.13443   0.47374   0.92059   0.00000  Uiso   1.00
N272   N     0.12601   0.90002   0.84363   0.00000  Uiso   1.00
N273   N     0.37276   0.64157   0.58388   0.00000  Uiso   1.00
N274   N     0.05943   0.48382   0.84830   0.00000  Uiso   1.00
N275   N     0.05101   0.91009   0.77134   0.00000  Uiso   1.00
N276   N     0.29776   0.65165   0.51159   0.00000  Uiso   1.00
C277   C     0.71139   0.30049   0.99796   0.00000  Uiso   1.00
C278   C     0.76109   0.34177   0.97186   0.00000  Uiso   1.00
C279   C     0.79631   0.33844   0.91031   0.00000  Uiso   1.00
C280   C     0.83938   0.38033   0.89575   0.00000  Uiso   1.00
C281   C     0.91538   0.43780   0.84830   0.00000  Uiso   1.00
C282   C     0.65178   0.34861   0.00993   0.00000  Uiso   1.00
C283   C     0.59511   0.35103   0.98038   0.00000  Uiso   1.00
C284   C     0.54616   0.39868   0.99788   0.00000  Uiso   1.00
C285   C     0.45246   0.46674   0.00956   0.00000  Uiso   1.00
C286   C     0.73077   0.26613   0.06940   0.00000  Uiso   1.00
C287   C     0.74048   0.19921   0.08986   0.00000  Uiso   1.00
C288   C     0.75802   0.17741   0.15744   0.00000  Uiso   1.00
C289   C     0.78695   0.11741   0.26146   0.00000  Uiso   1.00
C290   C     0.72522   0.38079   0.08158   0.00000  Uiso   1.00
C291   C     0.76860   0.38538   0.01728   0.00000  Uiso   1.00
C292   C     0.81162   0.42728   0.00281   0.00000  Uiso   1.00
C293   C     0.84691   0.42402   0.94125   0.00000  Uiso   1.00
C294   C     0.65930   0.39222   0.05534   0.00000  Uiso   1.00
C295   C     0.61042   0.43987   0.07289   0.00000  Uiso   1.00
C296   C     0.55369   0.44237   0.04338   0.00000  Uiso   1.00
C297   C     0.73828   0.30974   0.11481   0.00000  Uiso   1.00
C298   C     0.75580   0.28804   0.18237   0.00000  Uiso   1.00
C299   C     0.76555   0.22110   0.20294   0.00000  Uiso   1.00
H300   H     0.70553   0.26654   0.96261   0.00000  Uiso   1.00
H301   H     0.79048   0.30469   0.87517   0.00000  Uiso   1.00
H302   H     0.58930   0.31727   0.94524   0.00000  Uiso   1.00
H303   H     0.73466   0.16547   0.05471   0.00000  Uiso   1.00
H304   H     0.88796   0.36624   0.79825   0.00000  Uiso   1.00
H305   H     0.46377   0.39275   0.94602   0.00000  Uiso   1.00
H306   H     0.77028   0.07265   0.17684   0.00000  Uiso   1.00
H307   H     0.73107   0.41474   0.11693   0.00000  Uiso   1.00
H308   H     0.81743   0.46102   0.03797   0.00000  Uiso   1.00
H309   H     0.61625   0.47361   0.10804   0.00000  Uiso   1.00
H310   H     0.76161   0.32180   0.21750   0.00000  Uiso   1.00
H311   H     0.90983   0.49312   0.93038   0.00000  Uiso   1.00
H312   H     0.48564   0.51964   0.07815   0.00000  Uiso   1.00
H313   H     0.79215   0.19953   0.30897   0.00000  Uiso   1.00
O314   O     0.95522   0.45747   0.80957   0.00000  Uiso   1.00
O315   O     0.39870   0.49225   0.00345   0.00000  Uiso   1.00
O316   O     0.80084   0.07228   0.30628   0.00000  Uiso   1.00
N317   N     0.88126   0.38974   0.84019   0.00000  Uiso   1.00
N318   N     0.48467   0.41454   0.97834   0.00000  Uiso   1.00
N319   N     0.77122   0.11527   0.19414   0.00000  Uiso   1.00
N320   N     0.89303   0.45801   0.91129   0.00000  Uiso   1.00
N321   N     0.49644   0.48281   0.04943   0.00000  Uiso   1.00
N322   N     0.78299   0.18354   0.26524   0.00000  Uiso   1.00
C323   C     0.84282   0.68963   0.47225   0.00000  Uiso   1.00
C324   C     0.81795   0.74815   0.51013   0.00000  Uiso   1.00
C325   C     0.76034   0.78821   0.50131   0.00000  Uiso   1.00
C326   C     0.74628   0.83919   0.54083   0.00000  Uiso   1.00
C327   C     0.70126   0.92844   0.59257   0.00000  Uiso   1.00
C328   C     0.85884   0.63156   0.52836   0.00000  Uiso   1.00
C329   C     0.83561   0.57359   0.53486   0.00000  Uiso   1.00
C330   C     0.85598   0.52642   0.58973   0.00000  Uiso   1.00
C331   C     0.87447   0.43464   0.66974   0.00000  Uiso   1.00
C332   C     0.90477   0.70240   0.43712   0.00000  Uiso   1.00
C333   C     0.92015   0.70397   0.36691   0.00000  Uiso   1.00
C334   C     0.97920   0.71642   0.34495   0.00000  Uiso   1.00
C335   C     0.06900   0.73464   0.28330   0.00000  Uiso   1.00
C336   C     0.92032   0.70893   0.55812   0.00000  Uiso   1.00
C337   C     0.86005   0.75863   0.55677   0.00000  Uiso   1.00
C338   C     0.84609   0.80956   0.59631   0.00000  Uiso   1.00
C339   C     0.78846   0.84969   0.58755   0.00000  Uiso   1.00
C340   C     0.90094   0.64204   0.57500   0.00000  Uiso   1.00
C341   C     0.92136   0.59494   0.62986   0.00000  Uiso   1.00
C342   C     0.89816   0.53691   0.63645   0.00000  Uiso   1.00
C343   C     0.94687   0.71288   0.48376   0.00000  Uiso   1.00
C344   C     0.00590   0.72533   0.46191   0.00000  Uiso   1.00
C345   C     0.02138   0.72692   0.39167   0.00000  Uiso   1.00
H346   H     0.81004   0.68147   0.43595   0.00000  Uiso   1.00
H347   H     0.72777   0.78008   0.46522   0.00000  Uiso   1.00
H348   H     0.80303   0.56549   0.49876   0.00000  Uiso   1.00
H349   H     0.88756   0.69586   0.33083   0.00000  Uiso   1.00
H350   H     0.65510   0.89402   0.51825   0.00000  Uiso   1.00
H351   H     0.81382   0.44154   0.58897   0.00000  Uiso   1.00
H352   H     0.99208   0.71644   0.23486   0.00000  Uiso   1.00
H353   H     0.95310   0.71709   0.59443   0.00000  Uiso   1.00
H354   H     0.87867   0.81766   0.63239   0.00000  Uiso   1.00
H355   H     0.95394   0.60307   0.66594   0.00000  Uiso   1.00
H356   H     0.03847   0.73344   0.49801   0.00000  Uiso   1.00
H357   H     0.77758   0.92452   0.65394   0.00000  Uiso   1.00
H358   H     0.93630   0.47203   0.72465   0.00000  Uiso   1.00
H359   H     0.11456   0.74694   0.37055   0.00000  Uiso   1.00
O360   O     0.66479   0.97477   0.60823   0.00000  Uiso   1.00
O361   O     0.87304   0.38113   0.70100   0.00000  Uiso   1.00
O362   O     0.10690   0.74180   0.23641   0.00000  Uiso   1.00
N363   N     0.69415   0.88740   0.54497   0.00000  Uiso   1.00
N364   N     0.84253   0.46436   0.61109   0.00000  Uiso   1.00
N365   N     0.00919   0.72135   0.28003   0.00000  Uiso   1.00
N366   N     0.76005   0.90382   0.61798   0.00000  Uiso   1.00
N367   N     0.90844   0.48077   0.68410   0.00000  Uiso   1.00
N368   N     0.07510   0.73777   0.35304   0.00000  Uiso   1.00
C369   C     0.36696   0.83834   0.81813   0.00000  Uiso   1.00
C370   C     0.40086   0.79863   0.88036   0.00000  Uiso   1.00
C371   C     0.39290   0.73642   0.91002   0.00000  Uiso   1.00
C372   C     0.42828   0.70839   0.96665   0.00000  Uiso   1.00
C373   C     0.47458   0.64169   0.05930   0.00000  Uiso   1.00
C374   C     0.41768   0.85553   0.76478   0.00000  Uiso   1.00
C375   C     0.42385   0.84117   0.69725   0.00000  Uiso   1.00
C376   C     0.47339   0.86105   0.65658   0.00000  Uiso   1.00
C377   C     0.54577   0.88274   0.56978   0.00000  Uiso   1.00
C378   C     0.33512   0.90255   0.84202   0.00000  Uiso   1.00
C379   C     0.27187   0.92773   0.83944   0.00000  Uiso   1.00
C380   C     0.25189   0.98720   0.86379   0.00000  Uiso   1.00
C381   C     0.19608   0.08188   0.89692   0.00000  Uiso   1.00
C382   C     0.44396   0.89918   0.86596   0.00000  Uiso   1.00
C383   C     0.44268   0.83168   0.90634   0.00000  Uiso   1.00
C384   C     0.47809   0.80374   0.96294   0.00000  Uiso   1.00
C385   C     0.47018   0.74150   0.99268   0.00000  Uiso   1.00
C386   C     0.45950   0.88858   0.79075   0.00000  Uiso   1.00
C387   C     0.50904   0.90849   0.75017   0.00000  Uiso   1.00
C388   C     0.51529   0.89416   0.68261   0.00000  Uiso   1.00
C389   C     0.37694   0.93560   0.86801   0.00000  Uiso   1.00
C390   C     0.35706   0.99504   0.89236   0.00000  Uiso   1.00
C391   C     0.29379   0.02031   0.88982   0.00000  Uiso   1.00
H392   H     0.33440   0.81261   0.79790   0.00000  Uiso   1.00
H393   H     0.36053   0.71085   0.88990   0.00000  Uiso   1.00
H394   H     0.39147   0.81560   0.67716   0.00000  Uiso   1.00
H395   H     0.23952   0.90214   0.81933   0.00000  Uiso   1.00
H396   H     0.40796   0.61261   0.00333   0.00000  Uiso   1.00
H397   H     0.47319   0.83349   0.55477   0.00000  Uiso   1.00
H398   H     0.15276   0.01597   0.85455   0.00000  Uiso   1.00
H399   H     0.47652   0.92492   0.88618   0.00000  Uiso   1.00
H400   H     0.51045   0.82932   0.98303   0.00000  Uiso   1.00
H401   H     0.54139   0.93407   0.77029   0.00000  Uiso   1.00
H402   H     0.38943   0.02061   0.91246   0.00000  Uiso   1.00
H403   H     0.52964   0.70876   0.07892   0.00000  Uiso   1.00
H404   H     0.59487   0.92964   0.63035   0.00000  Uiso   1.00
H405   H     0.27444   0.11212   0.93014   0.00000  Uiso   1.00
O406   O     0.48857   0.59577   0.10323   0.00000  Uiso   1.00
O407   O     0.57414   0.88556   0.51472   0.00000  Uiso   1.00
O408   O     0.15375   0.12497   0.90803   0.00000  Uiso   1.00
N409   N     0.43193   0.64836   0.00784   0.00000  Uiso   1.00
N410   N     0.49293   0.85486   0.58846   0.00000  Uiso   1.00
N411   N     0.19335   0.02548   0.86871   0.00000  Uiso   1.00
N412   N     0.49741   0.70010   0.04852   0.00000  Uiso   1.00
N413   N     0.55840   0.90660   0.62913   0.00000  Uiso   1.00
N414   N     0.25883   0.07722   0.90939   0.00000  Uiso   1.00
C415   C     0.27054   0.25716   0.92440   0.00000  Uiso   1.00
C416   C     0.33135   0.23842   0.96249   0.00000  Uiso   1.00
C417   C     0.37065   0.17842   0.96616   0.00000  Uiso   1.00
C418   C     0.42405   0.17093   0.00355   0.00000  Uiso   1.00
C419   C     0.51639   0.13410   0.05778   0.00000  Uiso   1.00
C420   C     0.22022   0.27900   0.97812   0.00000  Uiso   1.00
C421   C     0.16608   0.25312   0.99492   0.00000  Uiso   1.00
C422   C     0.12593   0.27981   0.04547   0.00000  Uiso   1.00
C423   C     0.04571   0.30602   0.12392   0.00000  Uiso   1.00
C424   C     0.27715   0.31808   0.87364   0.00000  Uiso   1.00
C425   C     0.27087   0.32506   0.80259   0.00000  Uiso   1.00
C426   C     0.27863   0.38464   0.76518   0.00000  Uiso   1.00
C427   C     0.28681   0.47151   0.68141   0.00000  Uiso   1.00
C428   C     0.29548   0.35058   0.98431   0.00000  Uiso   1.00
C429   C     0.34489   0.28916   0.99503   0.00000  Uiso   1.00
C430   C     0.39824   0.28177   0.03244   0.00000  Uiso   1.00
C431   C     0.43762   0.22176   0.03615   0.00000  Uiso   1.00
C432   C     0.23376   0.32974   0.01066   0.00000  Uiso   1.00
C433   C     0.19367   0.35647   0.06120   0.00000  Uiso   1.00
C434   C     0.13950   0.33064   0.07806   0.00000  Uiso   1.00
C435   C     0.29069   0.36882   0.90618   0.00000  Uiso   1.00
C436   C     0.29846   0.42840   0.86887   0.00000  Uiso   1.00
C437   C     0.29220   0.43547   0.79777   0.00000  Uiso   1.00
H438   H     0.25999   0.21766   0.89907   0.00000  Uiso   1.00
H439   H     0.36015   0.13916   0.94097   0.00000  Uiso   1.00
H440   H     0.15561   0.21386   0.96972   0.00000  Uiso   1.00
H441   H     0.26039   0.28578   0.77743   0.00000  Uiso   1.00
H442   H     0.47716   0.07449   0.00180   0.00000  Uiso   1.00
H443   H     0.04586   0.23202   0.06240   0.00000  Uiso   1.00
H444   H     0.26680   0.38368   0.65691   0.00000  Uiso   1.00
H445   H     0.30602   0.39008   0.00964   0.00000  Uiso   1.00
H446   H     0.40871   0.32104   0.05761   0.00000  Uiso   1.00
H447   H     0.20417   0.39574   0.08636   0.00000  Uiso   1.00
H448   H     0.30894   0.46766   0.89407   0.00000  Uiso   1.00
H449   H     0.51657   0.22211   0.09647   0.00000  Uiso   1.00
H450   H     0.08527   0.37964   0.15707   0.00000  Uiso   1.00
H451   H     0.30621   0.53130   0.75158   0.00000  Uiso   1.00
O452   O     0.56358   0.09977   0.07872   0.00000  Uiso   1.00
O453   O     0.99773   0.30645   0.15821   0.00000  Uiso   1.00
O454   O     0.28759   0.50541   0.62622   0.00000  Uiso   1.00
N455   N     0.47235   0.11871   0.01749   0.00000  Uiso   1.00
N456   N     0.06912   0.26599   0.07415   0.00000  Uiso   1.00
N457   N     0.27566   0.40778   0.69506   0.00000  Uiso   1.00
N458   N     0.49356   0.19815   0.06843   0.00000  Uiso   1.00
N459   N     0.09032   0.34542   0.12510   0.00000  Uiso   1.00
N460   N     0.29686   0.48721   0.74600   0.00000  Uiso   1.00
C461   C     0.43837   0.76694   0.31551   0.00000  Uiso   1.00
C462   C     0.40120   0.79969   0.37363   0.00000  Uiso   1.00
C463   C     0.34282   0.78894   0.40024   0.00000  Uiso   1.00
C464   C     0.31661   0.82370   0.45333   0.00000  Uiso   1.00
C465   C     0.25415   0.86789   0.53967   0.00000  Uiso   1.00
C466   C     0.45205   0.82211   0.26012   0.00000  Uiso   1.00
C467   C     0.43643   0.83021   0.19129   0.00000  Uiso   1.00
C468   C     0.45304   0.88384   0.14883   0.00000  Uiso   1.00
C469   C     0.46957   0.96282   0.05894   0.00000  Uiso   1.00
C470   C     0.50109   0.73441   0.34496   0.00000  Uiso   1.00
C471   C     0.52672   0.66878   0.34746   0.00000  Uiso   1.00
C472   C     0.58463   0.64858   0.37642   0.00000  Uiso   1.00
C473   C     0.67731   0.59139   0.41825   0.00000  Uiso   1.00
C474   C     0.49564   0.84777   0.36249   0.00000  Uiso   1.00
C475   C     0.43231   0.84359   0.39914   0.00000  Uiso   1.00
C476   C     0.40618   0.87837   0.45221   0.00000  Uiso   1.00
C477   C     0.34777   0.86768   0.47890   0.00000  Uiso   1.00
C478   C     0.48316   0.86601   0.28563   0.00000  Uiso   1.00
C479   C     0.49979   0.91964   0.24327   0.00000  Uiso   1.00
C480   C     0.48420   0.92782   0.17439   0.00000  Uiso   1.00
C481   C     0.53220   0.77831   0.37048   0.00000  Uiso   1.00
C482   C     0.59008   0.75821   0.39944   0.00000  Uiso   1.00
C483   C     0.61579   0.69256   0.40198   0.00000  Uiso   1.00
H484   H     0.41415   0.73276   0.29564   0.00000  Uiso   1.00
H485   H     0.31876   0.75497   0.38047   0.00000  Uiso   1.00
H486   H     0.41236   0.79623   0.17156   0.00000  Uiso   1.00
H487   H     0.50264   0.63482   0.32770   0.00000  Uiso   1.00
H488   H     0.22671   0.79897   0.48576   0.00000  Uiso   1.00
H489   H     0.42410   0.88595   0.04525   0.00000  Uiso   1.00
H490   H     0.61446   0.54559   0.37451   0.00000  Uiso   1.00
H491   H     0.51986   0.88195   0.38235   0.00000  Uiso   1.00
H492   H     0.43027   0.91234   0.47195   0.00000  Uiso   1.00
H493   H     0.52387   0.95360   0.26303   0.00000  Uiso   1.00
H494   H     0.61414   0.79219   0.41918   0.00000  Uiso   1.00
H495   H     0.31721   0.92670   0.56000   0.00000  Uiso   1.00
H496   H     0.51460   0.01368   0.11949   0.00000  Uiso   1.00
H497   H     0.70496   0.67333   0.44875   0.00000  Uiso   1.00
O498   O     0.21111   0.88015   0.58024   0.00000  Uiso   1.00
O499   O     0.47008   0.99426   0.00230   0.00000  Uiso   1.00
O500   O     0.71983   0.54772   0.43429   0.00000  Uiso   1.00
N501   N     0.26031   0.82485   0.49095   0.00000  Uiso   1.00
N502   N     0.44484   0.90618   0.07910   0.00000  Uiso   1.00
N503   N     0.62283   0.58798   0.38691   0.00000  Uiso   1.00
N504   N     0.30901   0.89358   0.53090   0.00000  Uiso   1.00
N505   N     0.49354   0.97491   0.11905   0.00000  Uiso   1.00
N506   N     0.67153   0.65671   0.42686   0.00000  Uiso   1.00
C507   C     0.92693   0.09876   0.41575   0.00000  Uiso   1.00
C508   C     0.95972   0.15792   0.40440   0.00000  Uiso   1.00
C509   C     0.95975   0.20195   0.34422   0.00000  Uiso   1.00
C510   C     0.99252   0.25282   0.34416   0.00000  Uiso   1.00
C511   C     0.03865   0.34367   0.31770   0.00000  Uiso   1.00
C512   C     0.97723   0.03991   0.43647   0.00000  Uiso   1.00
C513   C     0.99199   0.98472   0.40325   0.00000  Uiso   1.00
C514   C     0.03950   0.93625   0.43020   0.00000  Uiso   1.00
C515   C     0.11278   0.84387   0.45356   0.00000  Uiso   1.00
C516   C     0.88369   0.10669   0.47963   0.00000  Uiso   1.00
C517   C     0.81980   0.10763   0.48272   0.00000  Uiso   1.00
C518   C     0.78856   0.11536   0.54601   0.00000  Uiso   1.00
C519   C     0.71662   0.12667   0.63638   0.00000  Uiso   1.00
C520   C     0.98507   0.11080   0.52267   0.00000  Uiso   1.00
C521   C     0.99130   0.16446   0.46248   0.00000  Uiso   1.00
C522   C     0.02407   0.21528   0.46251   0.00000  Uiso   1.00
C523   C     0.02416   0.25938   0.40234   0.00000  Uiso   1.00
C524   C     0.00881   0.04645   0.49454   0.00000  Uiso   1.00
C525   C     0.05631   0.99805   0.52155   0.00000  Uiso   1.00
C526   C     0.07113   0.94280   0.48838   0.00000  Uiso   1.00
C527   C     0.91527   0.11323   0.53771   0.00000  Uiso   1.00
C528   C     0.88412   0.12096   0.60101   0.00000  Uiso   1.00
C529   C     0.82020   0.12192   0.60418   0.00000  Uiso   1.00
H530   H     0.90235   0.09366   0.37053   0.00000  Uiso   1.00
H531   H     0.93531   0.19687   0.29928   0.00000  Uiso   1.00
H532   H     0.96754   0.97967   0.35832   0.00000  Uiso   1.00
H533   H     0.79538   0.10256   0.43776   0.00000  Uiso   1.00
H534   H     0.98580   0.31416   0.24589   0.00000  Uiso   1.00
H535   H     0.05373   0.85618   0.37038   0.00000  Uiso   1.00
H536   H     0.69071   0.11533   0.53791   0.00000  Uiso   1.00
H537   H     0.00965   0.11589   0.56788   0.00000  Uiso   1.00
H538   H     0.04850   0.22033   0.50746   0.00000  Uiso   1.00
H539   H     0.08073   0.00313   0.56649   0.00000  Uiso   1.00
H540   H     0.90857   0.12602   0.64594   0.00000  Uiso   1.00
H541   H     0.07768   0.33320   0.41485   0.00000  Uiso   1.00
H542   H     0.14561   0.87522   0.53934   0.00000  Uiso   1.00
H543   H     0.78258   0.13436   0.70687   0.00000  Uiso   1.00
O544   O     0.05538   0.39197   0.28706   0.00000  Uiso   1.00
O545   O     0.14449   0.79111   0.45039   0.00000  Uiso   1.00
O546   O     0.66821   0.13110   0.67018   0.00000  Uiso   1.00
N547   N     0.00208   0.30432   0.29395   0.00000  Uiso   1.00
N548   N     0.06560   0.87614   0.41034   0.00000  Uiso   1.00
N549   N     0.72621   0.11840   0.56697   0.00000  Uiso   1.00
N550   N     0.05152   0.31457   0.38487   0.00000  Uiso   1.00
N551   N     0.11504   0.88638   0.50125   0.00000  Uiso   1.00
N552   N     0.77564   0.12864   0.65789   0.00000  Uiso   1.00
